MODEL        1
REMARK 921   NORMALIZED FREE ENERGY PREDICTED BY IDOCK:   -5.92 KCAL/MOL
REMARK 922        TOTAL FREE ENERGY PREDICTED BY IDOCK:   -7.59 KCAL/MOL
REMARK 923 INTER-LIGAND FREE ENERGY PREDICTED BY IDOCK:   -6.96 KCAL/MOL
REMARK 924 INTRA-LIGAND FREE ENERGY PREDICTED BY IDOCK:   -0.63 KCAL/MOL
REMARK 927      BINDING AFFINITY PREDICTED BY RF-SCORE:    0.00 PKD
ROOT
HETATM    1  C   UNL     1     -10.432  19.433  67.762  1.00  0.00    -0.441 C  
HETATM    2  N   UNL     1      -9.449  18.656  66.984  1.00  0.00    -0.291 NA 
ENDROOT
BRANCH   2   3
HETATM    3  C   UNL     1      -8.365  19.555  66.471  1.00  0.00    -0.332 C  
HETATM    4  C   UNL     1      -5.913  18.851  68.048  1.00  0.00    -0.208 C  
HETATM    5  C   UNL     1      -7.158  18.796  65.864  1.00  0.00    -0.290 C  
HETATM    6  C   UNL     1      -7.777  20.489  67.559  1.00  0.00    -0.336 C  
HETATM    7  C   UNL     1      -7.021  19.720  68.642  1.00  0.00    -0.363 C  
HETATM    8  C   UNL     1      -6.420  17.966  66.913  1.00  0.00    -0.207 C  
ENDBRANCH   2   3
BRANCH   2   9
HETATM    9  C   UNL     1     -10.126  17.953  65.861  1.00  0.00    -0.170 C  
BRANCH   9  10
HETATM   10  C   UNL     1     -10.104  16.429  65.887  1.00  0.00    -0.370 A  
HETATM   11  C   UNL     1      -9.926  13.611  65.918  1.00  0.00    -0.304 A  
HETATM   12 BR   UNL     1      -8.028  13.505  68.038  1.00  0.00    -0.166 Br 
HETATM   13  C   UNL     1      -9.230  15.759  66.769  1.00  0.00    -0.268 A  
HETATM   14  C   UNL     1      -9.166  14.367  66.799  1.00  0.00    -0.268 A  
HETATM   15  C   UNL     1     -10.747  14.261  64.998  1.00  0.00    -0.420 A  
HETATM   16 BR   UNL     1     -11.727  13.177  63.775  1.00  0.00    -0.501 Br 
HETATM   17  C   UNL     1     -10.877  15.669  64.978  1.00  0.00    -0.450 A  
HETATM   18  N   UNL     1     -11.573  16.289  63.918  1.00  0.00    -1.573 NA 
HETATM   19  H1  UNL     1     -12.130  15.741  63.262  1.00  0.00     0.000 HD 
HETATM   20  H2  UNL     1     -10.904  16.841  63.380  1.00  0.00     0.000 HD 
ENDBRANCH   9  10
ENDBRANCH   2   9
TORSDOF 3
ENDMDL
MODEL        2
REMARK 921   NORMALIZED FREE ENERGY PREDICTED BY IDOCK:   -5.87 KCAL/MOL
REMARK 922        TOTAL FREE ENERGY PREDICTED BY IDOCK:   -7.53 KCAL/MOL
REMARK 923 INTER-LIGAND FREE ENERGY PREDICTED BY IDOCK:   -6.95 KCAL/MOL
REMARK 924 INTRA-LIGAND FREE ENERGY PREDICTED BY IDOCK:   -0.58 KCAL/MOL
REMARK 927      BINDING AFFINITY PREDICTED BY RF-SCORE:    0.00 PKD
ROOT
HETATM    1  C   UNL     1     -14.410   8.111  71.400  1.00  0.00    -0.365 C  
HETATM    2  N   UNL     1     -13.109   8.803  71.452  1.00  0.00    -0.295 NA 
ENDROOT
BRANCH   2   3
HETATM    3  C   UNL     1     -12.127   8.006  72.254  1.00  0.00    -0.341 C  
HETATM    4  C   UNL     1     -10.077   7.034  70.293  1.00  0.00    -0.198 C  
HETATM    5  C   UNL     1     -10.680   8.558  72.200  1.00  0.00    -0.426 C  
HETATM    6  C   UNL     1     -12.034   6.523  71.812  1.00  0.00    -0.394 C  
HETATM    7  C   UNL     1     -11.447   6.369  70.409  1.00  0.00    -0.458 C  
HETATM    8  C   UNL     1     -10.090   8.475  70.793  1.00  0.00    -0.237 C  
ENDBRANCH   2   3
BRANCH   2   9
HETATM    9  C   UNL     1     -13.278  10.166  72.027  1.00  0.00    -0.430 C  
BRANCH   9  10
HETATM   10  C   UNL     1     -12.869  11.343  71.148  1.00  0.00    -0.440 A  
HETATM   11  C   UNL     1     -11.979  13.475  69.526  1.00  0.00    -0.390 A  
HETATM   12 BR   UNL     1     -10.787  11.806  67.552  1.00  0.00    -0.307 Br 
HETATM   13  C   UNL     1     -12.132  11.108  69.968  1.00  0.00    -0.437 A  
HETATM   14  C   UNL     1     -11.719  12.163  69.157  1.00  0.00    -0.328 A  
HETATM   15  C   UNL     1     -12.652  13.724  70.721  1.00  0.00    -0.340 A  
HETATM   16 BR   UNL     1     -12.935  15.545  71.208  1.00  0.00    -0.579 Br 
HETATM   17  C   UNL     1     -13.132  12.676  71.540  1.00  0.00    -0.278 A  
HETATM   18  N   UNL     1     -13.642  12.971  72.823  1.00  0.00    -0.707 NA 
HETATM   19  H1  UNL     1     -13.833  13.933  73.105  1.00  0.00     0.000 HD 
HETATM   20  H2  UNL     1     -13.018  12.556  73.514  1.00  0.00     0.000 HD 
ENDBRANCH   9  10
ENDBRANCH   2   9
TORSDOF 3
ENDMDL
MODEL        3
REMARK 921   NORMALIZED FREE ENERGY PREDICTED BY IDOCK:   -5.78 KCAL/MOL
REMARK 922        TOTAL FREE ENERGY PREDICTED BY IDOCK:   -7.42 KCAL/MOL
REMARK 923 INTER-LIGAND FREE ENERGY PREDICTED BY IDOCK:   -6.76 KCAL/MOL
REMARK 924 INTRA-LIGAND FREE ENERGY PREDICTED BY IDOCK:   -0.67 KCAL/MOL
REMARK 927      BINDING AFFINITY PREDICTED BY RF-SCORE:    0.00 PKD
ROOT
HETATM    1  C   UNL     1      -8.816  16.147  68.899  1.00  0.00    -0.248 C  
HETATM    2  N   UNL     1      -9.807  16.892  68.100  1.00  0.00    -0.255 NA 
ENDROOT
BRANCH   2   3
HETATM    3  C   UNL     1      -9.810  18.339  68.492  1.00  0.00    -0.381 C  
HETATM    4  C   UNL     1      -8.752  19.825  66.111  1.00  0.00    -0.368 C  
HETATM    5  C   UNL     1     -10.699  19.230  67.589  1.00  0.00    -0.533 C  
HETATM    6  C   UNL     1      -8.399  18.982  68.470  1.00  0.00    -0.387 C  
HETATM    7  C   UNL     1      -7.820  19.070  67.058  1.00  0.00    -0.255 C  
HETATM    8  C   UNL     1     -10.179  19.285  66.153  1.00  0.00    -0.549 C  
ENDBRANCH   2   3
BRANCH   2   9
HETATM    9  C   UNL     1     -11.160  16.296  68.278  1.00  0.00    -0.346 C  
BRANCH   9  10
HETATM   10  C   UNL     1     -11.374  14.892  67.725  1.00  0.00    -0.341 A  
HETATM   11  C   UNL     1     -11.665  12.247  66.781  1.00  0.00    -0.411 A  
HETATM   12 BR   UNL     1     -12.006  11.097  69.363  1.00  0.00    -0.412 Br 
HETATM   13  C   UNL     1     -11.546  13.811  68.615  1.00  0.00    -0.369 A  
HETATM   14  C   UNL     1     -11.716  12.511  68.143  1.00  0.00    -0.348 A  
HETATM   15  C   UNL     1     -11.434  13.297  65.894  1.00  0.00    -0.332 A  
HETATM   16 BR   UNL     1     -11.318  12.870  64.040  1.00  0.00    -0.495 Br 
HETATM   17  C   UNL     1     -11.311  14.634  66.335  1.00  0.00    -0.348 A  
HETATM   18  N   UNL     1     -10.897  15.632  65.427  1.00  0.00    -0.377 NA 
HETATM   19  H1  UNL     1     -10.851  15.447  64.425  1.00  0.00     0.000 HD 
HETATM   20  H2  UNL     1      -9.983  15.974  65.727  1.00  0.00     0.000 HD 
ENDBRANCH   9  10
ENDBRANCH   2   9
TORSDOF 3
ENDMDL
MODEL        4
REMARK 921   NORMALIZED FREE ENERGY PREDICTED BY IDOCK:   -5.75 KCAL/MOL
REMARK 922        TOTAL FREE ENERGY PREDICTED BY IDOCK:   -7.38 KCAL/MOL
REMARK 923 INTER-LIGAND FREE ENERGY PREDICTED BY IDOCK:   -6.70 KCAL/MOL
REMARK 924 INTRA-LIGAND FREE ENERGY PREDICTED BY IDOCK:   -0.68 KCAL/MOL
REMARK 927      BINDING AFFINITY PREDICTED BY RF-SCORE:    0.00 PKD
ROOT
HETATM    1  C   UNL     1     -10.596   9.956  66.858  1.00  0.00    -0.178 C  
HETATM    2  N   UNL     1     -10.970  11.308  67.313  1.00  0.00    -0.270 NA 
ENDROOT
BRANCH   2   3
HETATM    3  C   UNL     1     -10.418  12.343  66.381  1.00  0.00    -0.243 C  
HETATM    4  C   UNL     1     -12.774  13.975  65.496  1.00  0.00    -0.517 C  
HETATM    5  C   UNL     1     -10.660  13.800  66.848  1.00  0.00    -0.276 C  
HETATM    6  C   UNL     1     -11.005  12.252  64.949  1.00  0.00    -0.344 C  
HETATM    7  C   UNL     1     -12.494  12.594  64.906  1.00  0.00    -0.564 C  
HETATM    8  C   UNL     1     -12.147  14.150  66.876  1.00  0.00    -0.466 C  
ENDBRANCH   2   3
BRANCH   2   9
HETATM    9  C   UNL     1     -10.478  11.534  68.700  1.00  0.00    -0.202 C  
BRANCH   9  10
HETATM   10  C   UNL     1     -11.525  11.559  69.809  1.00  0.00    -0.362 A  
HETATM   11  C   UNL     1     -13.377  11.686  71.936  1.00  0.00    -0.403 A  
HETATM   12 BR   UNL     1     -13.505  14.530  71.985  1.00  0.00    -0.526 Br 
HETATM   13  C   UNL     1     -11.962  12.796  70.327  1.00  0.00    -0.358 A  
HETATM   14  C   UNL     1     -12.897  12.853  71.359  1.00  0.00    -0.283 A  
HETATM   15  C   UNL     1     -12.907  10.457  71.475  1.00  0.00    -0.464 A  
HETATM   16 BR   UNL     1     -13.558   8.888  72.339  1.00  0.00    -0.490 Br 
HETATM   17  C   UNL     1     -12.000  10.362  70.394  1.00  0.00    -0.320 A  
HETATM   18  N   UNL     1     -11.414   9.116  70.084  1.00  0.00    -0.439 NA 
HETATM   19  H1  UNL     1     -11.757   8.253  70.507  1.00  0.00     0.000 HD 
HETATM   20  H2  UNL     1     -10.413   9.183  70.269  1.00  0.00     0.000 HD 
ENDBRANCH   9  10
ENDBRANCH   2   9
TORSDOF 3
ENDMDL
MODEL        5
REMARK 921   NORMALIZED FREE ENERGY PREDICTED BY IDOCK:   -5.72 KCAL/MOL
REMARK 922        TOTAL FREE ENERGY PREDICTED BY IDOCK:   -7.35 KCAL/MOL
REMARK 923 INTER-LIGAND FREE ENERGY PREDICTED BY IDOCK:   -6.88 KCAL/MOL
REMARK 924 INTRA-LIGAND FREE ENERGY PREDICTED BY IDOCK:   -0.47 KCAL/MOL
REMARK 927      BINDING AFFINITY PREDICTED BY RF-SCORE:    0.00 PKD
ROOT
HETATM    1  C   UNL     1      -8.767  16.362  68.998  1.00  0.00    -0.233 C  
HETATM    2  N   UNL     1      -9.822  17.007  68.195  1.00  0.00    -0.262 NA 
ENDROOT
BRANCH   2   3
HETATM    3  C   UNL     1      -9.906  18.467  68.522  1.00  0.00    -0.376 C  
HETATM    4  C   UNL     1      -8.896  19.902  66.089  1.00  0.00    -0.358 C  
HETATM    5  C   UNL     1     -10.829  19.269  67.570  1.00  0.00    -0.524 C  
HETATM    6  C   UNL     1      -8.531  19.182  68.486  1.00  0.00    -0.399 C  
HETATM    7  C   UNL     1      -7.939  19.239  67.079  1.00  0.00    -0.277 C  
HETATM    8  C   UNL     1     -10.293  19.289  66.139  1.00  0.00    -0.578 C  
ENDBRANCH   2   3
BRANCH   2   9
HETATM    9  C   UNL     1     -11.130  16.337  68.436  1.00  0.00    -0.362 C  
BRANCH   9  10
HETATM   10  C   UNL     1     -11.294  14.925  67.885  1.00  0.00    -0.340 A  
HETATM   11  C   UNL     1     -11.717  12.352  66.802  1.00  0.00    -0.430 A  
HETATM   12 BR   UNL     1     -11.856  13.239  64.100  1.00  0.00    -0.526 Br 
HETATM   13  C   UNL     1     -11.485  14.735  66.500  1.00  0.00    -0.328 A  
HETATM   14  C   UNL     1     -11.666  13.460  65.968  1.00  0.00    -0.362 A  
HETATM   15  C   UNL     1     -11.593  12.532  68.178  1.00  0.00    -0.340 A  
HETATM   16 BR   UNL     1     -11.726  10.984  69.283  1.00  0.00    -0.422 Br 
HETATM   17  C   UNL     1     -11.354  13.805  68.747  1.00  0.00    -0.283 A  
HETATM   18  N   UNL     1     -11.418  13.966  70.148  1.00  0.00    -0.482 NA 
HETATM   19  H1  UNL     1     -11.461  13.157  70.769  1.00  0.00     0.000 HD 
HETATM   20  H2  UNL     1     -12.211  14.571  70.360  1.00  0.00     0.000 HD 
ENDBRANCH   9  10
ENDBRANCH   2   9
TORSDOF 3
ENDMDL
MODEL        6
REMARK 921   NORMALIZED FREE ENERGY PREDICTED BY IDOCK:   -5.72 KCAL/MOL
REMARK 922        TOTAL FREE ENERGY PREDICTED BY IDOCK:   -7.35 KCAL/MOL
REMARK 923 INTER-LIGAND FREE ENERGY PREDICTED BY IDOCK:   -6.66 KCAL/MOL
REMARK 924 INTRA-LIGAND FREE ENERGY PREDICTED BY IDOCK:   -0.69 KCAL/MOL
REMARK 927      BINDING AFFINITY PREDICTED BY RF-SCORE:    0.00 PKD
ROOT
HETATM    1  C   UNL     1     -12.152  13.961  66.359  1.00  0.00    -0.455 C  
HETATM    2  N   UNL     1     -11.303  14.169  67.546  1.00  0.00    -0.306 NA 
ENDROOT
BRANCH   2   3
HETATM    3  C   UNL     1      -9.985  14.759  67.147  1.00  0.00    -0.236 C  
HETATM    4  C   UNL     1      -9.790  17.371  68.608  1.00  0.00    -0.322 C  
HETATM    5  C   UNL     1      -9.018  14.993  68.334  1.00  0.00    -0.179 C  
HETATM    6  C   UNL     1     -10.119  16.128  66.430  1.00  0.00    -0.321 C  
HETATM    7  C   UNL     1     -10.651  17.221  67.355  1.00  0.00    -0.303 C  
HETATM    8  C   UNL     1      -9.557  16.037  69.311  1.00  0.00    -0.255 C  
ENDBRANCH   2   3
BRANCH   2   9
HETATM    9  C   UNL     1     -11.107  12.882  68.266  1.00  0.00    -0.264 C  
BRANCH   9  10
HETATM   10  C   UNL     1     -11.901  12.682  69.553  1.00  0.00    -0.376 A  
HETATM   11  C   UNL     1     -13.273  12.386  72.003  1.00  0.00    -0.514 A  
HETATM   12 BR   UNL     1     -13.458  15.179  72.523  1.00  0.00    -0.625 Br 
HETATM   13  C   UNL     1     -12.251  13.802  70.336  1.00  0.00    -0.433 A  
HETATM   14  C   UNL     1     -12.952  13.652  71.532  1.00  0.00    -0.360 A  
HETATM   15  C   UNL     1     -12.878  11.268  71.269  1.00  0.00    -0.389 A  
HETATM   16 BR   UNL     1     -13.296   9.553  71.990  1.00  0.00    -0.555 Br 
HETATM   17  C   UNL     1     -12.214  11.386  70.027  1.00  0.00    -0.301 A  
HETATM   18  N   UNL     1     -11.674  10.236  69.413  1.00  0.00    -0.464 NA 
HETATM   19  H1  UNL     1     -11.900   9.301  69.755  1.00  0.00     0.000 HD 
HETATM   20  H2  UNL     1     -10.658  10.331  69.401  1.00  0.00     0.000 HD 
ENDBRANCH   9  10
ENDBRANCH   2   9
TORSDOF 3
ENDMDL
MODEL        7
REMARK 921   NORMALIZED FREE ENERGY PREDICTED BY IDOCK:   -5.61 KCAL/MOL
REMARK 922        TOTAL FREE ENERGY PREDICTED BY IDOCK:   -7.22 KCAL/MOL
REMARK 923 INTER-LIGAND FREE ENERGY PREDICTED BY IDOCK:   -6.49 KCAL/MOL
REMARK 924 INTRA-LIGAND FREE ENERGY PREDICTED BY IDOCK:   -0.73 KCAL/MOL
REMARK 927      BINDING AFFINITY PREDICTED BY RF-SCORE:    0.00 PKD
ROOT
HETATM    1  C   UNL     1     -12.262  13.253  66.574  1.00  0.00    -0.327 C  
HETATM    2  N   UNL     1     -11.122  13.874  67.273  1.00  0.00    -0.293 NA 
ENDROOT
BRANCH   2   3
HETATM    3  C   UNL     1     -10.008  14.149  66.310  1.00  0.00    -0.303 C  
HETATM    4  C   UNL     1      -9.384  17.068  66.606  1.00  0.00    -0.274 C  
HETATM    5  C   UNL     1      -8.714  14.673  66.982  1.00  0.00    -0.258 C  
HETATM    6  C   UNL     1     -10.379  15.195  65.227  1.00  0.00    -0.425 C  
HETATM    7  C   UNL     1     -10.600  16.589  65.814  1.00  0.00    -0.307 C  
HETATM    8  C   UNL     1      -8.923  16.040  67.634  1.00  0.00    -0.193 C  
ENDBRANCH   2   3
BRANCH   2   9
HETATM    9  C   UNL     1     -10.656  12.990  68.377  1.00  0.00    -0.251 C  
BRANCH   9  10
HETATM   10  C   UNL     1     -11.544  12.903  69.614  1.00  0.00    -0.318 A  
HETATM   11  C   UNL     1     -13.276  12.662  71.830  1.00  0.00    -0.504 A  
HETATM   12 BR   UNL     1     -13.252   9.816  71.857  1.00  0.00    -0.556 Br 
HETATM   13  C   UNL     1     -11.948  11.640  70.094  1.00  0.00    -0.441 A  
HETATM   14  C   UNL     1     -12.782  11.526  71.205  1.00  0.00    -0.364 A  
HETATM   15  C   UNL     1     -12.935  13.917  71.328  1.00  0.00    -0.341 A  
HETATM   16 BR   UNL     1     -13.685  15.442  72.190  1.00  0.00    -0.657 Br 
HETATM   17  C   UNL     1     -12.049  14.069  70.237  1.00  0.00    -0.355 A  
HETATM   18  N   UNL     1     -11.877  15.341  69.650  1.00  0.00    -0.320 NA 
HETATM   19  H1  UNL     1     -12.241  16.182  70.099  1.00  0.00     0.000 HD 
HETATM   20  H2  UNL     1     -12.249  15.304  68.700  1.00  0.00     0.000 HD 
ENDBRANCH   9  10
ENDBRANCH   2   9
TORSDOF 3
ENDMDL
MODEL        8
REMARK 921   NORMALIZED FREE ENERGY PREDICTED BY IDOCK:   -5.54 KCAL/MOL
REMARK 922        TOTAL FREE ENERGY PREDICTED BY IDOCK:   -7.14 KCAL/MOL
REMARK 923 INTER-LIGAND FREE ENERGY PREDICTED BY IDOCK:   -6.59 KCAL/MOL
REMARK 924 INTRA-LIGAND FREE ENERGY PREDICTED BY IDOCK:   -0.55 KCAL/MOL
REMARK 927      BINDING AFFINITY PREDICTED BY RF-SCORE:    0.00 PKD
ROOT
HETATM    1  C   UNL     1      -9.195  14.003  66.918  1.00  0.00    -0.260 C  
HETATM    2  N   UNL     1     -10.552  13.703  66.426  1.00  0.00    -0.281 NA 
ENDROOT
BRANCH   2   3
HETATM    3  C   UNL     1     -10.644  13.975  64.955  1.00  0.00    -0.424 C  
HETATM    4  C   UNL     1     -12.537  11.917  63.868  1.00  0.00    -0.450 C  
HETATM    5  C   UNL     1     -12.075  14.316  64.470  1.00  0.00    -0.499 C  
HETATM    6  C   UNL     1     -10.171  12.784  64.081  1.00  0.00    -0.344 C  
HETATM    7  C   UNL     1     -11.088  11.568  64.205  1.00  0.00    -0.417 C  
HETATM    8  C   UNL     1     -13.032  13.136  64.641  1.00  0.00    -0.115 C  
ENDBRANCH   2   3
BRANCH   2   9
HETATM    9  C   UNL     1     -11.556  14.507  67.174  1.00  0.00    -0.388 C  
BRANCH   9  10
HETATM   10  C   UNL     1     -11.871  14.067  68.599  1.00  0.00    -0.396 A  
HETATM   11  C   UNL     1     -12.332  13.308  71.279  1.00  0.00    -0.254 A  
HETATM   12 BR   UNL     1     -12.041  15.935  72.336  1.00  0.00    -0.653 Br 
HETATM   13  C   UNL     1     -11.813  15.009  69.648  1.00  0.00    -0.358 A  
HETATM   14  C   UNL     1     -12.068  14.633  70.966  1.00  0.00    -0.329 A  
HETATM   15  C   UNL     1     -12.332  12.356  70.260  1.00  0.00    -0.188 A  
HETATM   16 BR   UNL     1     -12.646  10.542  70.753  1.00  0.00    -0.491 Br 
HETATM   17  C   UNL     1     -12.131  12.711  68.907  1.00  0.00    -0.123 A  
HETATM   18  N   UNL     1     -11.957  11.698  67.939  1.00  0.00    -0.623 NA 
HETATM   19  H1  UNL     1     -12.144  10.720  68.161  1.00  0.00     0.000 HD 
HETATM   20  H2  UNL     1     -11.004  11.764  67.580  1.00  0.00     0.000 HD 
ENDBRANCH   9  10
ENDBRANCH   2   9
TORSDOF 3
ENDMDL
MODEL        9
REMARK 921   NORMALIZED FREE ENERGY PREDICTED BY IDOCK:   -5.49 KCAL/MOL
REMARK 922        TOTAL FREE ENERGY PREDICTED BY IDOCK:   -7.08 KCAL/MOL
REMARK 923 INTER-LIGAND FREE ENERGY PREDICTED BY IDOCK:   -7.07 KCAL/MOL
REMARK 924 INTRA-LIGAND FREE ENERGY PREDICTED BY IDOCK:   -0.01 KCAL/MOL
REMARK 927      BINDING AFFINITY PREDICTED BY RF-SCORE:    0.00 PKD
ROOT
HETATM    1  C   UNL     1     -11.310  16.464  68.226  1.00  0.00    -0.241 C  
HETATM    2  N   UNL     1     -10.333  17.212  67.414  1.00  0.00    -0.326 NA 
ENDROOT
BRANCH   2   3
HETATM    3  C   UNL     1     -10.638  18.679  67.452  1.00  0.00    -0.441 C  
HETATM    4  C   UNL     1      -7.977  20.057  67.586  1.00  0.00    -0.338 C  
HETATM    5  C   UNL     1     -10.038  19.474  66.266  1.00  0.00    -0.560 C  
HETATM    6  C   UNL     1     -10.124  19.378  68.737  1.00  0.00    -0.504 C  
HETATM    7  C   UNL     1      -8.598  19.402  68.818  1.00  0.00    -0.371 C  
HETATM    8  C   UNL     1      -8.510  19.462  66.286  1.00  0.00    -0.346 C  
ENDBRANCH   2   3
BRANCH   2   9
HETATM    9  C   UNL     1     -10.341  16.709  66.013  1.00  0.00    -0.340 C  
BRANCH   9  10
HETATM   10  C   UNL     1     -10.343  15.197  65.822  1.00  0.00    -0.359 A  
HETATM   11  C   UNL     1     -10.209  12.402  65.443  1.00  0.00    -0.302 A  
HETATM   12 BR   UNL     1      -8.201  11.979  67.416  1.00  0.00    -0.176 Br 
HETATM   13  C   UNL     1      -9.433  14.401  66.549  1.00  0.00    -0.309 A  
HETATM   14  C   UNL     1      -9.390  13.019  66.378  1.00  0.00    -0.182 A  
HETATM   15  C   UNL     1     -11.069  13.184  64.673  1.00  0.00    -0.345 A  
HETATM   16 BR   UNL     1     -12.132  12.293  63.365  1.00  0.00    -0.571 Br 
HETATM   17  C   UNL     1     -11.177  14.581  64.859  1.00  0.00    -0.391 A  
HETATM   18  N   UNL     1     -11.919  15.352  63.938  1.00  0.00    -0.972 NA 
HETATM   19  H1  UNL     1     -12.521  14.907  63.244  1.00  0.00     0.000 HD 
HETATM   20  H2  UNL     1     -11.272  15.968  63.448  1.00  0.00     0.000 HD 
ENDBRANCH   9  10
ENDBRANCH   2   9
TORSDOF 3
ENDMDL
MODEL       10
REMARK 921   NORMALIZED FREE ENERGY PREDICTED BY IDOCK:   -5.47 KCAL/MOL
REMARK 922        TOTAL FREE ENERGY PREDICTED BY IDOCK:   -7.06 KCAL/MOL
REMARK 923 INTER-LIGAND FREE ENERGY PREDICTED BY IDOCK:   -6.78 KCAL/MOL
REMARK 924 INTRA-LIGAND FREE ENERGY PREDICTED BY IDOCK:   -0.29 KCAL/MOL
REMARK 927      BINDING AFFINITY PREDICTED BY RF-SCORE:    0.00 PKD
ROOT
HETATM    1  C   UNL     1      -9.191  13.658  67.251  1.00  0.00    -0.232 C  
HETATM    2  N   UNL     1     -10.573  13.587  66.743  1.00  0.00    -0.271 NA 
ENDROOT
BRANCH   2   3
HETATM    3  C   UNL     1     -10.624  14.020  65.309  1.00  0.00    -0.363 C  
HETATM    4  C   UNL     1     -12.454  12.078  63.941  1.00  0.00    -0.543 C  
HETATM    5  C   UNL     1     -12.044  14.398  64.820  1.00  0.00    -0.462 C  
HETATM    6  C   UNL     1     -10.108  12.939  64.325  1.00  0.00    -0.251 C  
HETATM    7  C   UNL     1     -11.012  11.708  64.283  1.00  0.00    -0.418 C  
HETATM    8  C   UNL     1     -12.989  13.198  64.828  1.00  0.00    -0.176 C  
ENDBRANCH   2   3
BRANCH   2   9
HETATM    9  C   UNL     1     -11.469  14.431  67.580  1.00  0.00    -0.349 C  
BRANCH   9  10
HETATM   10  C   UNL     1     -11.859  13.880  68.947  1.00  0.00    -0.393 A  
HETATM   11  C   UNL     1     -12.668  12.771  71.414  1.00  0.00    -0.353 A  
HETATM   12 BR   UNL     1     -11.990  10.095  70.718  1.00  0.00    -0.475 Br 
HETATM   13  C   UNL     1     -11.786  12.492  69.185  1.00  0.00    -0.375 A  
HETATM   14  C   UNL     1     -12.161  11.953  70.415  1.00  0.00    -0.333 A  
HETATM   15  C   UNL     1     -12.805  14.136  71.170  1.00  0.00    -0.360 A  
HETATM   16 BR   UNL     1     -13.559  15.206  72.556  1.00  0.00    -0.632 Br 
HETATM   17  C   UNL     1     -12.384  14.723  69.955  1.00  0.00    -0.283 A  
HETATM   18  N   UNL     1     -12.708  16.070  69.682  1.00  0.00    -0.507 NA 
HETATM   19  H1  UNL     1     -13.086  16.678  70.409  1.00  0.00     0.000 HD 
HETATM   20  H2  UNL     1     -13.351  16.086  68.890  1.00  0.00     0.000 HD 
ENDBRANCH   9  10
ENDBRANCH   2   9
TORSDOF 3
ENDMDL
MODEL       11
REMARK 921   NORMALIZED FREE ENERGY PREDICTED BY IDOCK:   -5.47 KCAL/MOL
REMARK 922        TOTAL FREE ENERGY PREDICTED BY IDOCK:   -7.06 KCAL/MOL
REMARK 923 INTER-LIGAND FREE ENERGY PREDICTED BY IDOCK:   -6.90 KCAL/MOL
REMARK 924 INTRA-LIGAND FREE ENERGY PREDICTED BY IDOCK:   -0.16 KCAL/MOL
REMARK 927      BINDING AFFINITY PREDICTED BY RF-SCORE:    0.00 PKD
ROOT
HETATM    1  C   UNL     1     -11.543  15.440  67.534  1.00  0.00    -0.169 C  
HETATM    2  N   UNL     1     -10.945  14.107  67.332  1.00  0.00    -0.293 NA 
ENDROOT
BRANCH   2   3
HETATM    3  C   UNL     1     -11.955  13.166  66.749  1.00  0.00    -0.373 C  
HETATM    4  C   UNL     1     -11.184  12.829  63.871  1.00  0.00    -0.491 C  
HETATM    5  C   UNL     1     -11.342  11.860  66.186  1.00  0.00    -0.383 C  
HETATM    6  C   UNL     1     -12.773  13.788  65.588  1.00  0.00    -0.523 C  
HETATM    7  C   UNL     1     -11.914  14.079  64.359  1.00  0.00    -0.480 C  
HETATM    8  C   UNL     1     -10.425  12.128  64.994  1.00  0.00    -0.326 C  
ENDBRANCH   2   3
BRANCH   2   9
HETATM    9  C   UNL     1     -10.418  13.582  68.621  1.00  0.00    -0.232 C  
BRANCH   9  10
HETATM   10  C   UNL     1     -11.444  13.191  69.679  1.00  0.00    -0.261 A  
HETATM   11  C   UNL     1     -13.279  12.552  71.727  1.00  0.00    -0.444 A  
HETATM   12 BR   UNL     1     -14.078  15.244  72.193  1.00  0.00    -0.679 Br 
HETATM   13  C   UNL     1     -12.163  14.197  70.358  1.00  0.00    -0.427 A  
HETATM   14  C   UNL     1     -13.088  13.874  71.349  1.00  0.00    -0.340 A  
HETATM   15  C   UNL     1     -12.530  11.554  71.107  1.00  0.00    -0.337 A  
HETATM   16 BR   UNL     1     -12.792   9.762  71.702  1.00  0.00    -0.556 Br 
HETATM   17  C   UNL     1     -11.623  11.841  70.061  1.00  0.00    -0.236 A  
HETATM   18  N   UNL     1     -10.757  10.829  69.592  1.00  0.00    -0.351 NA 
HETATM   19  H1  UNL     1     -10.887   9.855  69.868  1.00  0.00     0.000 HD 
HETATM   20  H2  UNL     1      -9.801  11.099  69.824  1.00  0.00     0.000 HD 
ENDBRANCH   9  10
ENDBRANCH   2   9
TORSDOF 3
ENDMDL
MODEL       12
REMARK 921   NORMALIZED FREE ENERGY PREDICTED BY IDOCK:   -5.37 KCAL/MOL
REMARK 922        TOTAL FREE ENERGY PREDICTED BY IDOCK:   -6.94 KCAL/MOL
REMARK 923 INTER-LIGAND FREE ENERGY PREDICTED BY IDOCK:   -7.00 KCAL/MOL
REMARK 924 INTRA-LIGAND FREE ENERGY PREDICTED BY IDOCK:    0.06 KCAL/MOL
REMARK 927      BINDING AFFINITY PREDICTED BY RF-SCORE:    0.00 PKD
ROOT
HETATM    1  C   UNL     1     -10.722  10.772  66.949  1.00  0.00    -0.252 C  
HETATM    2  N   UNL     1     -10.932  12.221  66.780  1.00  0.00    -0.263 NA 
ENDROOT
BRANCH   2   3
HETATM    3  C   UNL     1     -10.197  12.716  65.571  1.00  0.00    -0.281 C  
HETATM    4  C   UNL     1     -12.312  13.350  63.541  1.00  0.00    -0.398 C  
HETATM    5  C   UNL     1     -10.569  14.163  65.162  1.00  0.00    -0.414 C  
HETATM    6  C   UNL     1     -10.433  11.843  64.312  1.00  0.00    -0.370 C  
HETATM    7  C   UNL     1     -11.877  11.912  63.816  1.00  0.00    -0.558 C  
HETATM    8  C   UNL     1     -12.028  14.275  64.721  1.00  0.00    -0.449 C  
ENDBRANCH   2   3
BRANCH   2   9
HETATM    9  C   UNL     1     -10.487  12.948  68.001  1.00  0.00    -0.230 C  
BRANCH   9  10
HETATM   10  C   UNL     1     -11.364  12.817  69.241  1.00  0.00    -0.307 A  
HETATM   11  C   UNL     1     -13.064  12.478  71.470  1.00  0.00    -0.373 A  
HETATM   12 BR   UNL     1     -12.617   9.676  71.700  1.00  0.00    -0.522 Br 
HETATM   13  C   UNL     1     -11.581  11.545  69.810  1.00  0.00    -0.401 A  
HETATM   14  C   UNL     1     -12.399  11.387  70.927  1.00  0.00    -0.381 A  
HETATM   15  C   UNL     1     -12.907  13.731  70.879  1.00  0.00    -0.271 A  
HETATM   16 BR   UNL     1     -13.885  15.185  71.630  1.00  0.00    -0.652 Br 
HETATM   17  C   UNL     1     -12.043  13.936  69.779  1.00  0.00    -0.345 A  
HETATM   18  N   UNL     1     -12.057  15.175  69.103  1.00  0.00    -0.534 NA 
HETATM   19  H1  UNL     1     -12.546  15.981  69.491  1.00  0.00     0.000 HD 
HETATM   20  H2  UNL     1     -12.409  15.016  68.159  1.00  0.00     0.000 HD 
ENDBRANCH   9  10
ENDBRANCH   2   9
TORSDOF 3
ENDMDL
MODEL       13
REMARK 921   NORMALIZED FREE ENERGY PREDICTED BY IDOCK:   -5.32 KCAL/MOL
REMARK 922        TOTAL FREE ENERGY PREDICTED BY IDOCK:   -6.88 KCAL/MOL
REMARK 923 INTER-LIGAND FREE ENERGY PREDICTED BY IDOCK:   -6.18 KCAL/MOL
REMARK 924 INTRA-LIGAND FREE ENERGY PREDICTED BY IDOCK:   -0.70 KCAL/MOL
REMARK 927      BINDING AFFINITY PREDICTED BY RF-SCORE:    0.00 PKD
ROOT
HETATM    1  C   UNL     1     -11.672  15.250  64.579  1.00  0.00    -0.305 C  
HETATM    2  N   UNL     1     -11.220  14.271  65.585  1.00  0.00    -0.307 NA 
ENDROOT
BRANCH   2   3
HETATM    3  C   UNL     1     -12.052  13.027  65.511  1.00  0.00    -0.452 C  
HETATM    4  C   UNL     1     -10.252  10.915  64.372  1.00  0.00    -0.423 C  
HETATM    5  C   UNL     1     -11.493  11.850  66.350  1.00  0.00    -0.371 C  
HETATM    6  C   UNL     1     -12.214  12.483  64.068  1.00  0.00    -0.566 C  
HETATM    7  C   UNL     1     -10.895  11.979  63.483  1.00  0.00    -0.509 C  
HETATM    8  C   UNL     1     -10.142  11.367  65.825  1.00  0.00    -0.289 C  
ENDBRANCH   2   3
BRANCH   2   9
HETATM    9  C   UNL     1     -11.286  14.869  66.946  1.00  0.00    -0.343 C  
BRANCH   9  10
HETATM   10  C   UNL     1     -10.226  15.908  67.297  1.00  0.00    -0.278 A  
HETATM   11  C   UNL     1      -8.317  17.914  67.847  1.00  0.00    -0.247 A  
HETATM   12 BR   UNL     1     -10.238  19.958  68.333  1.00  0.00    -0.480 Br 
HETATM   13  C   UNL     1     -10.617  17.231  67.589  1.00  0.00    -0.350 A  
HETATM   14  C   UNL     1      -9.672  18.211  67.886  1.00  0.00    -0.299 A  
HETATM   15  C   UNL     1      -7.914  16.626  67.499  1.00  0.00    -0.168 A  
HETATM   16 BR   UNL     1      -6.041  16.286  67.407  1.00  0.00    -0.188 Br 
HETATM   17  C   UNL     1      -8.847  15.594  67.245  1.00  0.00    -0.198 A  
HETATM   18  N   UNL     1      -8.399  14.363  66.720  1.00  0.00    -0.411 NA 
HETATM   19  H1  UNL     1      -7.405  14.137  66.683  1.00  0.00     0.000 HD 
HETATM   20  H2  UNL     1      -8.782  14.261  65.780  1.00  0.00     0.000 HD 
ENDBRANCH   9  10
ENDBRANCH   2   9
TORSDOF 3
ENDMDL
MODEL       14
REMARK 921   NORMALIZED FREE ENERGY PREDICTED BY IDOCK:   -5.29 KCAL/MOL
REMARK 922        TOTAL FREE ENERGY PREDICTED BY IDOCK:   -6.85 KCAL/MOL
REMARK 923 INTER-LIGAND FREE ENERGY PREDICTED BY IDOCK:   -6.05 KCAL/MOL
REMARK 924 INTRA-LIGAND FREE ENERGY PREDICTED BY IDOCK:   -0.79 KCAL/MOL
REMARK 927      BINDING AFFINITY PREDICTED BY RF-SCORE:    0.00 PKD
ROOT
HETATM    1  C   UNL     1     -10.952  16.308  70.130  1.00  0.00    -0.332 C  
HETATM    2  N   UNL     1     -10.797  16.000  68.696  1.00  0.00    -0.283 NA 
ENDROOT
BRANCH   2   3
HETATM    3  C   UNL     1     -10.609  17.261  67.909  1.00  0.00    -0.384 C  
HETATM    4  C   UNL     1      -7.896  17.035  66.650  1.00  0.00    -0.299 C  
HETATM    5  C   UNL     1     -10.398  17.026  66.392  1.00  0.00    -0.304 C  
HETATM    6  C   UNL     1      -9.398  18.104  68.383  1.00  0.00    -0.319 C  
HETATM    7  C   UNL     1      -8.063  17.405  68.123  1.00  0.00    -0.232 C  
HETATM    8  C   UNL     1      -9.100  16.272  66.107  1.00  0.00    -0.377 C  
ENDBRANCH   2   3
BRANCH   2   9
HETATM    9  C   UNL     1     -11.981  15.244  68.205  1.00  0.00    -0.127 C  
BRANCH   9  10
HETATM   10  C   UNL     1     -11.714  13.904  67.529  1.00  0.00    -0.416 A  
HETATM   11  C   UNL     1     -11.352  11.424  66.229  1.00  0.00    -0.140 A  
HETATM   12 BR   UNL     1     -12.134  12.372  63.661  1.00  0.00    -0.680 Br 
HETATM   13  C   UNL     1     -12.003  13.746  66.156  1.00  0.00    -0.449 A  
HETATM   14  C   UNL     1     -11.796  12.527  65.514  1.00  0.00    -0.439 A  
HETATM   15  C   UNL     1     -11.123  11.549  67.598  1.00  0.00    -0.266 A  
HETATM   16 BR   UNL     1     -10.567   9.989  68.542  1.00  0.00    -0.259 Br 
HETATM   17  C   UNL     1     -11.270  12.784  68.270  1.00  0.00    -0.271 A  
HETATM   18  N   UNL     1     -11.206  12.822  69.680  1.00  0.00    -0.476 NA 
HETATM   19  H1  UNL     1     -10.886  12.015  70.215  1.00  0.00     0.000 HD 
HETATM   20  H2  UNL     1     -12.126  13.089  70.031  1.00  0.00     0.000 HD 
ENDBRANCH   9  10
ENDBRANCH   2   9
TORSDOF 3
ENDMDL
MODEL       15
REMARK 921   NORMALIZED FREE ENERGY PREDICTED BY IDOCK:   -5.29 KCAL/MOL
REMARK 922        TOTAL FREE ENERGY PREDICTED BY IDOCK:   -6.84 KCAL/MOL
REMARK 923 INTER-LIGAND FREE ENERGY PREDICTED BY IDOCK:   -6.75 KCAL/MOL
REMARK 924 INTRA-LIGAND FREE ENERGY PREDICTED BY IDOCK:   -0.10 KCAL/MOL
REMARK 927      BINDING AFFINITY PREDICTED BY RF-SCORE:    0.00 PKD
ROOT
HETATM    1  C   UNL     1      -9.179  16.020  69.134  1.00  0.00    -0.247 C  
HETATM    2  N   UNL     1      -9.967  16.765  68.135  1.00  0.00    -0.260 NA 
ENDROOT
BRANCH   2   3
HETATM    3  C   UNL     1     -10.048  18.214  68.510  1.00  0.00    -0.400 C  
HETATM    4  C   UNL     1      -8.811  19.712  66.225  1.00  0.00    -0.410 C  
HETATM    5  C   UNL     1     -10.871  19.072  67.518  1.00  0.00    -0.478 C  
HETATM    6  C   UNL     1      -8.659  18.897  68.614  1.00  0.00    -0.376 C  
HETATM    7  C   UNL     1      -7.952  18.991  67.263  1.00  0.00    -0.273 C  
HETATM    8  C   UNL     1     -10.219  19.132  66.137  1.00  0.00    -0.535 C  
ENDBRANCH   2   3
BRANCH   2   9
HETATM    9  C   UNL     1     -11.329  16.176  68.016  1.00  0.00    -0.234 C  
BRANCH   9  10
HETATM   10  C   UNL     1     -11.759  15.204  69.108  1.00  0.00    -0.349 A  
HETATM   11  C   UNL     1     -12.463  13.463  71.217  1.00  0.00    -0.368 A  
HETATM   12 BR   UNL     1     -13.096  15.543  73.056  1.00  0.00    -0.691 Br 
HETATM   13  C   UNL     1     -12.148  15.701  70.370  1.00  0.00    -0.425 A  
HETATM   14  C   UNL     1     -12.521  14.838  71.399  1.00  0.00    -0.336 A  
HETATM   15  C   UNL     1     -12.021  12.958  69.996  1.00  0.00    -0.309 A  
HETATM   16 BR   UNL     1     -11.908  11.063  69.819  1.00  0.00    -0.461 Br 
HETATM   17  C   UNL     1     -11.688  13.804  68.914  1.00  0.00    -0.336 A  
HETATM   18  N   UNL     1     -11.074  13.259  67.766  1.00  0.00    -0.256 NA 
HETATM   19  H1  UNL     1     -11.022  12.249  67.625  1.00  0.00     0.000 HD 
HETATM   20  H2  UNL     1     -10.128  13.635  67.704  1.00  0.00     0.000 HD 
ENDBRANCH   9  10
ENDBRANCH   2   9
TORSDOF 3
ENDMDL
MODEL       16
REMARK 921   NORMALIZED FREE ENERGY PREDICTED BY IDOCK:   -5.28 KCAL/MOL
REMARK 922        TOTAL FREE ENERGY PREDICTED BY IDOCK:   -6.83 KCAL/MOL
REMARK 923 INTER-LIGAND FREE ENERGY PREDICTED BY IDOCK:   -6.08 KCAL/MOL
REMARK 924 INTRA-LIGAND FREE ENERGY PREDICTED BY IDOCK:   -0.75 KCAL/MOL
REMARK 927      BINDING AFFINITY PREDICTED BY RF-SCORE:    0.00 PKD
ROOT
HETATM    1  C   UNL     1      -7.009  17.130  66.385  1.00  0.00    -0.261 C  
HETATM    2  N   UNL     1      -8.224  17.234  67.214  1.00  0.00    -0.192 NA 
ENDROOT
BRANCH   2   3
HETATM    3  C   UNL     1      -8.211  18.511  67.998  1.00  0.00    -0.268 C  
HETATM    4  C   UNL     1     -10.291  20.261  66.729  1.00  0.00    -0.420 C  
HETATM    5  C   UNL     1      -9.565  18.842  68.675  1.00  0.00    -0.443 C  
HETATM    6  C   UNL     1      -7.848  19.751  67.142  1.00  0.00    -0.308 C  
HETATM    7  C   UNL     1      -8.914  20.070  66.095  1.00  0.00    -0.338 C  
HETATM    8  C   UNL     1     -10.667  19.103  67.650  1.00  0.00    -0.514 C  
ENDBRANCH   2   3
BRANCH   2   9
HETATM    9  C   UNL     1      -8.324  16.059  68.123  1.00  0.00    -0.160 C  
BRANCH   9  10
HETATM   10  C   UNL     1      -9.640  15.289  68.114  1.00  0.00    -0.204 A  
HETATM   11  C   UNL     1     -12.034  13.795  68.213  1.00  0.00    -0.392 A  
HETATM   12 BR   UNL     1     -12.683  14.540  70.883  1.00  0.00    -0.432 Br 
HETATM   13  C   UNL     1     -10.428  15.244  69.284  1.00  0.00    -0.258 A  
HETATM   14  C   UNL     1     -11.623  14.527  69.318  1.00  0.00    -0.302 A  
HETATM   15  C   UNL     1     -11.233  13.781  67.072  1.00  0.00    -0.311 A  
HETATM   16 BR   UNL     1     -11.817  12.717  65.602  1.00  0.00    -0.504 Br 
HETATM   17  C   UNL     1     -10.044  14.540  66.984  1.00  0.00    -0.254 A  
HETATM   18  N   UNL     1      -9.176  14.353  65.887  1.00  0.00    -0.515 NA 
HETATM   19  H1  UNL     1      -9.468  13.813  65.071  1.00  0.00     0.000 HD 
HETATM   20  H2  UNL     1      -8.306  13.953  66.237  1.00  0.00     0.000 HD 
ENDBRANCH   9  10
ENDBRANCH   2   9
TORSDOF 3
ENDMDL
MODEL       17
REMARK 921   NORMALIZED FREE ENERGY PREDICTED BY IDOCK:   -5.26 KCAL/MOL
REMARK 922        TOTAL FREE ENERGY PREDICTED BY IDOCK:   -6.81 KCAL/MOL
REMARK 923 INTER-LIGAND FREE ENERGY PREDICTED BY IDOCK:   -6.09 KCAL/MOL
REMARK 924 INTRA-LIGAND FREE ENERGY PREDICTED BY IDOCK:   -0.72 KCAL/MOL
REMARK 927      BINDING AFFINITY PREDICTED BY RF-SCORE:    0.00 PKD
ROOT
HETATM    1  C   UNL     1     -10.014   9.756  66.187  1.00  0.00    -0.268 C  
HETATM    2  N   UNL     1     -10.320  11.091  66.734  1.00  0.00    -0.229 NA 
ENDROOT
BRANCH   2   3
HETATM    3  C   UNL     1     -10.100  12.144  65.691  1.00  0.00    -0.248 C  
HETATM    4  C   UNL     1     -12.636  13.743  65.606  1.00  0.00    -0.551 C  
HETATM    5  C   UNL     1     -10.205  13.592  66.231  1.00  0.00    -0.299 C  
HETATM    6  C   UNL     1     -11.103  12.056  64.511  1.00  0.00    -0.384 C  
HETATM    7  C   UNL     1     -12.535  12.372  64.938  1.00  0.00    -0.439 C  
HETATM    8  C   UNL     1     -11.614  13.916  66.725  1.00  0.00    -0.398 C  
ENDBRANCH   2   3
BRANCH   2   9
HETATM    9  C   UNL     1      -9.481  11.356  67.934  1.00  0.00    -0.174 C  
BRANCH   9  10
HETATM   10  C   UNL     1      -9.857  10.622  69.216  1.00  0.00    -0.201 A  
HETATM   11  C   UNL     1     -10.500   9.146  71.536  1.00  0.00    -0.422 A  
HETATM   12 BR   UNL     1      -7.835   8.266  72.017  1.00  0.00    -0.176 Br 
HETATM   13  C   UNL     1      -8.874   9.889  69.914  1.00  0.00    -0.222 A  
HETATM   14  C   UNL     1      -9.192   9.185  71.074  1.00  0.00    -0.252 A  
HETATM   15  C   UNL     1     -11.492   9.814  70.821  1.00  0.00    -0.342 A  
HETATM   16 BR   UNL     1     -13.281   9.683  71.468  1.00  0.00    -0.495 Br 
HETATM   17  C   UNL     1     -11.196  10.583  69.672  1.00  0.00    -0.282 A  
HETATM   18  N   UNL     1     -12.250  11.087  68.880  1.00  0.00    -0.712 NA 
HETATM   19  H1  UNL     1     -13.216  11.059  69.208  1.00  0.00     0.000 HD 
HETATM   20  H2  UNL     1     -12.212  10.626  67.971  1.00  0.00     0.000 HD 
ENDBRANCH   9  10
ENDBRANCH   2   9
TORSDOF 3
ENDMDL
MODEL       18
REMARK 921   NORMALIZED FREE ENERGY PREDICTED BY IDOCK:   -5.25 KCAL/MOL
REMARK 922        TOTAL FREE ENERGY PREDICTED BY IDOCK:   -6.80 KCAL/MOL
REMARK 923 INTER-LIGAND FREE ENERGY PREDICTED BY IDOCK:   -6.71 KCAL/MOL
REMARK 924 INTRA-LIGAND FREE ENERGY PREDICTED BY IDOCK:   -0.09 KCAL/MOL
REMARK 927      BINDING AFFINITY PREDICTED BY RF-SCORE:    0.00 PKD
ROOT
HETATM    1  C   UNL     1     -14.284   8.300  71.247  1.00  0.00    -0.233 C  
HETATM    2  N   UNL     1     -13.048   9.073  71.466  1.00  0.00    -0.337 NA 
ENDROOT
BRANCH   2   3
HETATM    3  C   UNL     1     -12.045   8.251  72.216  1.00  0.00    -0.379 C  
HETATM    4  C   UNL     1     -10.011   7.401  70.182  1.00  0.00    -0.184 C  
HETATM    5  C   UNL     1     -10.606   8.823  72.170  1.00  0.00    -0.386 C  
HETATM    6  C   UNL     1     -11.940   6.792  71.700  1.00  0.00    -0.391 C  
HETATM    7  C   UNL     1     -11.372   6.714  70.283  1.00  0.00    -0.431 C  
HETATM    8  C   UNL     1     -10.035   8.816  70.753  1.00  0.00    -0.263 C  
ENDBRANCH   2   3
BRANCH   2   9
HETATM    9  C   UNL     1     -13.356  10.329  72.204  1.00  0.00    -0.299 C  
BRANCH   9  10
HETATM   10  C   UNL     1     -12.906  11.636  71.560  1.00  0.00    -0.469 A  
HETATM   11  C   UNL     1     -12.201  14.108  70.392  1.00  0.00    -0.427 A  
HETATM   12 BR   UNL     1     -12.904  15.668  72.667  1.00  0.00    -0.596 Br 
HETATM   13  C   UNL     1     -13.084  12.852  72.254  1.00  0.00    -0.421 A  
HETATM   14  C   UNL     1     -12.709  14.066  71.683  1.00  0.00    -0.339 A  
HETATM   15  C   UNL     1     -12.079  12.921  69.672  1.00  0.00    -0.226 A  
HETATM   16 BR   UNL     1     -11.428  13.040  67.884  1.00  0.00    -0.377 Br 
HETATM   17  C   UNL     1     -12.398  11.666  70.240  1.00  0.00    -0.258 A  
HETATM   18  N   UNL     1     -12.433  10.518  69.420  1.00  0.00    -0.693 NA 
HETATM   19  H1  UNL     1     -12.067  10.540  68.468  1.00  0.00     0.000 HD 
HETATM   20  H2  UNL     1     -13.397  10.187  69.380  1.00  0.00     0.000 HD 
ENDBRANCH   9  10
ENDBRANCH   2   9
TORSDOF 3
ENDMDL
MODEL       19
REMARK 921   NORMALIZED FREE ENERGY PREDICTED BY IDOCK:   -5.21 KCAL/MOL
REMARK 922        TOTAL FREE ENERGY PREDICTED BY IDOCK:   -6.75 KCAL/MOL
REMARK 923 INTER-LIGAND FREE ENERGY PREDICTED BY IDOCK:   -6.02 KCAL/MOL
REMARK 924 INTRA-LIGAND FREE ENERGY PREDICTED BY IDOCK:   -0.72 KCAL/MOL
REMARK 927      BINDING AFFINITY PREDICTED BY RF-SCORE:    0.00 PKD
ROOT
HETATM    1  C   UNL     1     -10.911  10.666  67.053  1.00  0.00    -0.238 C  
HETATM    2  N   UNL     1     -10.790  12.117  66.818  1.00  0.00    -0.238 NA 
ENDROOT
BRANCH   2   3
HETATM    3  C   UNL     1     -10.185  12.378  65.472  1.00  0.00    -0.274 C  
HETATM    4  C   UNL     1     -12.408  13.477  63.784  1.00  0.00    -0.392 C  
HETATM    5  C   UNL     1     -10.257  13.861  65.030  1.00  0.00    -0.383 C  
HETATM    6  C   UNL     1     -10.850  11.562  64.333  1.00  0.00    -0.405 C  
HETATM    7  C   UNL     1     -12.297  11.982  64.082  1.00  0.00    -0.452 C  
HETATM    8  C   UNL     1     -11.699  14.328  64.833  1.00  0.00    -0.399 C  
ENDBRANCH   2   3
BRANCH   2   9
HETATM    9  C   UNL     1      -9.972  12.743  67.893  1.00  0.00    -0.229 C  
BRANCH   9  10
HETATM   10  C   UNL     1     -10.613  13.886  68.672  1.00  0.00    -0.265 A  
HETATM   11  C   UNL     1     -11.672  16.044  70.154  1.00  0.00    -0.290 A  
HETATM   12 BR   UNL     1     -10.139  18.038  68.820  1.00  0.00    -0.348 Br 
HETATM   13  C   UNL     1     -10.169  15.209  68.460  1.00  0.00    -0.231 A  
HETATM   14  C   UNL     1     -10.715  16.273  69.175  1.00  0.00    -0.305 A  
HETATM   15  C   UNL     1     -12.075  14.735  70.416  1.00  0.00    -0.321 A  
HETATM   16 BR   UNL     1     -13.351  14.471  71.807  1.00  0.00    -0.484 Br 
HETATM   17  C   UNL     1     -11.582  13.639  69.673  1.00  0.00    -0.278 A  
HETATM   18  N   UNL     1     -11.876  12.323  70.092  1.00  0.00    -0.493 NA 
HETATM   19  H1  UNL     1     -12.575  12.145  70.814  1.00  0.00     0.000 HD 
HETATM   20  H2  UNL     1     -11.003  11.881  70.380  1.00  0.00     0.000 HD 
ENDBRANCH   9  10
ENDBRANCH   2   9
TORSDOF 3
ENDMDL
MODEL       20
REMARK 921   NORMALIZED FREE ENERGY PREDICTED BY IDOCK:   -5.20 KCAL/MOL
REMARK 922        TOTAL FREE ENERGY PREDICTED BY IDOCK:   -6.74 KCAL/MOL
REMARK 923 INTER-LIGAND FREE ENERGY PREDICTED BY IDOCK:   -6.60 KCAL/MOL
REMARK 924 INTRA-LIGAND FREE ENERGY PREDICTED BY IDOCK:   -0.14 KCAL/MOL
REMARK 927      BINDING AFFINITY PREDICTED BY RF-SCORE:    0.00 PKD
ROOT
HETATM    1  C   UNL     1      -9.142  16.204  69.246  1.00  0.00    -0.213 C  
HETATM    2  N   UNL     1      -9.967  16.991  68.310  1.00  0.00    -0.271 NA 
ENDROOT
BRANCH   2   3
HETATM    3  C   UNL     1      -9.867  18.452  68.630  1.00  0.00    -0.376 C  
HETATM    4  C   UNL     1      -8.604  19.724  66.226  1.00  0.00    -0.397 C  
HETATM    5  C   UNL     1     -10.646  19.362  67.649  1.00  0.00    -0.575 C  
HETATM    6  C   UNL     1      -8.409  18.979  68.635  1.00  0.00    -0.397 C  
HETATM    7  C   UNL     1      -7.773  18.948  67.246  1.00  0.00    -0.247 C  
HETATM    8  C   UNL     1     -10.070  19.301  66.235  1.00  0.00    -0.519 C  
ENDBRANCH   2   3
BRANCH   2   9
HETATM    9  C   UNL     1     -11.383  16.535  68.369  1.00  0.00    -0.209 C  
BRANCH   9  10
HETATM   10  C   UNL     1     -11.635  15.131  68.908  1.00  0.00    -0.361 A  
HETATM   11  C   UNL     1     -12.177  12.505  69.791  1.00  0.00    -0.199 A  
HETATM   12 BR   UNL     1     -11.167  11.241  67.449  1.00  0.00    -0.351 Br 
HETATM   13  C   UNL     1     -11.360  14.013  68.093  1.00  0.00    -0.320 A  
HETATM   14  C   UNL     1     -11.605  12.717  68.545  1.00  0.00    -0.321 A  
HETATM   15  C   UNL     1     -12.511  13.604  70.581  1.00  0.00    -0.347 A  
HETATM   16 BR   UNL     1     -13.345  13.258  72.260  1.00  0.00    -0.603 Br 
HETATM   17  C   UNL     1     -12.227  14.928  70.176  1.00  0.00    -0.336 A  
HETATM   18  N   UNL     1     -12.744  16.011  70.920  1.00  0.00    -0.561 NA 
HETATM   19  H1  UNL     1     -13.171  15.865  71.835  1.00  0.00     0.000 HD 
HETATM   20  H2  UNL     1     -13.416  16.505  70.333  1.00  0.00     0.000 HD 
ENDBRANCH   9  10
ENDBRANCH   2   9
TORSDOF 3
ENDMDL
MODEL       21
REMARK 921   NORMALIZED FREE ENERGY PREDICTED BY IDOCK:   -5.19 KCAL/MOL
REMARK 922        TOTAL FREE ENERGY PREDICTED BY IDOCK:   -6.73 KCAL/MOL
REMARK 923 INTER-LIGAND FREE ENERGY PREDICTED BY IDOCK:   -5.96 KCAL/MOL
REMARK 924 INTRA-LIGAND FREE ENERGY PREDICTED BY IDOCK:   -0.77 KCAL/MOL
REMARK 927      BINDING AFFINITY PREDICTED BY RF-SCORE:    0.00 PKD
ROOT
HETATM    1  C   UNL     1     -10.777  12.968  64.101  1.00  0.00    -0.402 C  
HETATM    2  N   UNL     1     -10.784  12.951  65.576  1.00  0.00    -0.275 NA 
ENDROOT
BRANCH   2   3
HETATM    3  C   UNL     1     -11.047  11.564  66.079  1.00  0.00    -0.230 C  
HETATM    4  C   UNL     1      -8.612  10.798  67.653  1.00  0.00    -0.123 C  
HETATM    5  C   UNL     1     -11.042  11.448  67.624  1.00  0.00    -0.325 C  
HETATM    6  C   UNL     1     -10.018  10.523  65.569  1.00  0.00    -0.342 C  
HETATM    7  C   UNL     1      -8.616  10.767  66.126  1.00  0.00    -0.171 C  
HETATM    8  C   UNL     1      -9.665  11.750  68.214  1.00  0.00    -0.199 C  
ENDBRANCH   2   3
BRANCH   2   9
HETATM    9  C   UNL     1     -11.807  13.901  66.093  1.00  0.00    -0.400 C  
BRANCH   9  10
HETATM   10  C   UNL     1     -11.309  15.033  66.985  1.00  0.00    -0.319 A  
HETATM   11  C   UNL     1     -10.519  17.144  68.686  1.00  0.00    -0.366 A  
HETATM   12 BR   UNL     1     -11.505  15.929  71.065  1.00  0.00    -0.473 Br 
HETATM   13  C   UNL     1     -11.587  15.003  68.369  1.00  0.00    -0.352 A  
HETATM   14  C   UNL     1     -11.170  16.035  69.208  1.00  0.00    -0.346 A  
HETATM   15  C   UNL     1     -10.294  17.215  67.312  1.00  0.00    -0.320 A  
HETATM   16 BR   UNL     1      -9.446  18.785  66.642  1.00  0.00    -0.364 Br 
HETATM   17  C   UNL     1     -10.655  16.162  66.441  1.00  0.00    -0.269 A  
HETATM   18  N   UNL     1     -10.575  16.355  65.044  1.00  0.00    -0.685 NA 
HETATM   19  H1  UNL     1     -10.103  17.170  64.651  1.00  0.00     0.000 HD 
HETATM   20  H2  UNL     1     -11.523  16.326  64.667  1.00  0.00     0.000 HD 
ENDBRANCH   9  10
ENDBRANCH   2   9
TORSDOF 3
ENDMDL
MODEL       22
REMARK 921   NORMALIZED FREE ENERGY PREDICTED BY IDOCK:   -5.17 KCAL/MOL
REMARK 922        TOTAL FREE ENERGY PREDICTED BY IDOCK:   -6.70 KCAL/MOL
REMARK 923 INTER-LIGAND FREE ENERGY PREDICTED BY IDOCK:   -6.04 KCAL/MOL
REMARK 924 INTRA-LIGAND FREE ENERGY PREDICTED BY IDOCK:   -0.67 KCAL/MOL
REMARK 927      BINDING AFFINITY PREDICTED BY RF-SCORE:    0.00 PKD
ROOT
HETATM    1  C   UNL     1      -8.867  13.667  68.149  1.00  0.00    -0.189 C  
HETATM    2  N   UNL     1      -9.884  12.616  67.961  1.00  0.00    -0.212 NA 
ENDROOT
BRANCH   2   3
HETATM    3  C   UNL     1      -9.737  11.985  66.610  1.00  0.00    -0.208 C  
HETATM    4  C   UNL     1      -9.424   9.045  67.118  1.00  0.00    -0.196 C  
HETATM    5  C   UNL     1     -10.839  10.948  66.280  1.00  0.00    -0.191 C  
HETATM    6  C   UNL     1      -8.387  11.245  66.423  1.00  0.00    -0.159 C  
HETATM    7  C   UNL     1      -8.264  10.018  67.326  1.00  0.00    -0.117 C  
HETATM    8  C   UNL     1     -10.781   9.737  67.210  1.00  0.00    -0.296 C  
ENDBRANCH   2   3
BRANCH   2   9
HETATM    9  C   UNL     1     -11.248  13.188  68.129  1.00  0.00    -0.271 C  
BRANCH   9  10
HETATM   10  C   UNL     1     -11.906  13.017  69.494  1.00  0.00    -0.385 A  
HETATM   11  C   UNL     1     -13.216  12.613  71.962  1.00  0.00    -0.531 A  
HETATM   12 BR   UNL     1     -12.961   9.778  71.919  1.00  0.00    -0.545 Br 
HETATM   13  C   UNL     1     -12.121  11.720  70.006  1.00  0.00    -0.387 A  
HETATM   14  C   UNL     1     -12.745  11.528  71.237  1.00  0.00    -0.364 A  
HETATM   15  C   UNL     1     -13.065  13.896  71.439  1.00  0.00    -0.340 A  
HETATM   16 BR   UNL     1     -13.779  15.347  72.448  1.00  0.00    -0.684 Br 
HETATM   17  C   UNL     1     -12.390  14.131  70.219  1.00  0.00    -0.356 A  
HETATM   18  N   UNL     1     -12.421  15.418  69.641  1.00  0.00    -0.605 NA 
HETATM   19  H1  UNL     1     -12.771  16.222  70.164  1.00  0.00     0.000 HD 
HETATM   20  H2  UNL     1     -12.943  15.359  68.766  1.00  0.00     0.000 HD 
ENDBRANCH   9  10
ENDBRANCH   2   9
TORSDOF 3
ENDMDL
MODEL       23
REMARK 921   NORMALIZED FREE ENERGY PREDICTED BY IDOCK:   -5.16 KCAL/MOL
REMARK 922        TOTAL FREE ENERGY PREDICTED BY IDOCK:   -6.69 KCAL/MOL
REMARK 923 INTER-LIGAND FREE ENERGY PREDICTED BY IDOCK:   -6.00 KCAL/MOL
REMARK 924 INTRA-LIGAND FREE ENERGY PREDICTED BY IDOCK:   -0.69 KCAL/MOL
REMARK 927      BINDING AFFINITY PREDICTED BY RF-SCORE:    0.00 PKD
ROOT
HETATM    1  C   UNL     1     -12.117  15.324  64.141  1.00  0.00    -0.129 C  
HETATM    2  N   UNL     1     -11.367  14.412  65.024  1.00  0.00    -0.355 NA 
ENDROOT
BRANCH   2   3
HETATM    3  C   UNL     1     -12.141  13.149  65.249  1.00  0.00    -0.429 C  
HETATM    4  C   UNL     1     -10.319  10.921  64.406  1.00  0.00    -0.430 C  
HETATM    5  C   UNL     1     -11.475  12.177  66.254  1.00  0.00    -0.433 C  
HETATM    6  C   UNL     1     -12.368  12.332  63.951  1.00  0.00    -0.606 C  
HETATM    7  C   UNL     1     -11.067  11.771  63.379  1.00  0.00    -0.448 C  
HETATM    8  C   UNL     1     -10.138  11.648  65.735  1.00  0.00    -0.278 C  
ENDBRANCH   2   3
BRANCH   2   9
HETATM    9  C   UNL     1     -11.070  15.085  66.319  1.00  0.00    -0.334 C  
BRANCH   9  10
HETATM   10  C   UNL     1      -9.653  15.613  66.514  1.00  0.00    -0.293 A  
HETATM   11  C   UNL     1      -7.035  16.549  67.009  1.00  0.00    -0.250 A  
HETATM   12 BR   UNL     1      -6.051  14.049  67.951  1.00  0.00    -0.139 Br 
HETATM   13  C   UNL     1      -8.663  14.768  67.060  1.00  0.00    -0.258 A  
HETATM   14  C   UNL     1      -7.366  15.228  67.277  1.00  0.00    -0.195 A  
HETATM   15  C   UNL     1      -8.020  17.411  66.527  1.00  0.00    -0.281 A  
HETATM   16 BR   UNL     1      -7.526  19.228  66.229  1.00  0.00    -0.301 Br 
HETATM   17  C   UNL     1      -9.331  16.964  66.245  1.00  0.00    -0.262 A  
HETATM   18  N   UNL     1     -10.336  17.905  65.937  1.00  0.00    -0.578 NA 
HETATM   19  H1  UNL     1     -10.104  18.880  65.743  1.00  0.00     0.000 HD 
HETATM   20  H2  UNL     1     -11.027  17.888  66.687  1.00  0.00     0.000 HD 
ENDBRANCH   9  10
ENDBRANCH   2   9
TORSDOF 3
ENDMDL
MODEL       24
REMARK 921   NORMALIZED FREE ENERGY PREDICTED BY IDOCK:   -5.08 KCAL/MOL
REMARK 922        TOTAL FREE ENERGY PREDICTED BY IDOCK:   -6.60 KCAL/MOL
REMARK 923 INTER-LIGAND FREE ENERGY PREDICTED BY IDOCK:   -5.93 KCAL/MOL
REMARK 924 INTRA-LIGAND FREE ENERGY PREDICTED BY IDOCK:   -0.67 KCAL/MOL
REMARK 927      BINDING AFFINITY PREDICTED BY RF-SCORE:    0.00 PKD
ROOT
HETATM    1  C   UNL     1     -10.568  19.497  67.107  1.00  0.00    -0.487 C  
HETATM    2  N   UNL     1      -9.796  18.263  66.870  1.00  0.00    -0.314 NA 
ENDROOT
BRANCH   2   3
HETATM    3  C   UNL     1      -8.391  18.597  66.473  1.00  0.00    -0.291 C  
HETATM    4  C   UNL     1      -6.669  17.710  68.763  1.00  0.00    -0.230 C  
HETATM    5  C   UNL     1      -7.453  17.366  66.398  1.00  0.00    -0.341 C  
HETATM    6  C   UNL     1      -7.703  19.599  67.436  1.00  0.00    -0.299 C  
HETATM    7  C   UNL     1      -7.474  19.007  68.827  1.00  0.00    -0.369 C  
HETATM    8  C   UNL     1      -7.255  16.715  67.766  1.00  0.00    -0.154 C  
ENDBRANCH   2   3
BRANCH   2   9
HETATM    9  C   UNL     1     -10.458  17.439  65.822  1.00  0.00    -0.215 C  
BRANCH   9  10
HETATM   10  C   UNL     1     -10.643  15.956  66.122  1.00  0.00    -0.310 A  
HETATM   11  C   UNL     1     -11.082  13.205  66.579  1.00  0.00    -0.317 A  
HETATM   12 BR   UNL     1     -10.580  12.422  63.888  1.00  0.00    -0.496 Br 
HETATM   13  C   UNL     1     -10.564  15.017  65.072  1.00  0.00    -0.437 A  
HETATM   14  C   UNL     1     -10.755  13.657  65.308  1.00  0.00    -0.336 A  
HETATM   15  C   UNL     1     -11.224  14.129  67.613  1.00  0.00    -0.297 A  
HETATM   16 BR   UNL     1     -11.728  13.460  69.325  1.00  0.00    -0.400 Br 
HETATM   17  C   UNL     1     -10.985  15.508  67.420  1.00  0.00    -0.306 A  
HETATM   18  N   UNL     1     -11.317  16.423  68.442  1.00  0.00    -0.335 NA 
HETATM   19  H1  UNL     1     -11.563  16.101  69.378  1.00  0.00     0.000 HD 
HETATM   20  H2  UNL     1     -12.075  17.016  68.102  1.00  0.00     0.000 HD 
ENDBRANCH   9  10
ENDBRANCH   2   9
TORSDOF 3
ENDMDL
MODEL       25
REMARK 921   NORMALIZED FREE ENERGY PREDICTED BY IDOCK:   -5.08 KCAL/MOL
REMARK 922        TOTAL FREE ENERGY PREDICTED BY IDOCK:   -6.60 KCAL/MOL
REMARK 923 INTER-LIGAND FREE ENERGY PREDICTED BY IDOCK:   -5.85 KCAL/MOL
REMARK 924 INTRA-LIGAND FREE ENERGY PREDICTED BY IDOCK:   -0.75 KCAL/MOL
REMARK 927      BINDING AFFINITY PREDICTED BY RF-SCORE:    0.00 PKD
ROOT
HETATM    1  C   UNL     1     -12.082  14.074  68.962  1.00  0.00    -0.323 C  
HETATM    2  N   UNL     1     -11.333  14.097  67.692  1.00  0.00    -0.303 NA 
ENDROOT
BRANCH   2   3
HETATM    3  C   UNL     1     -11.256  15.495  67.158  1.00  0.00    -0.204 C  
HETATM    4  C   UNL     1      -8.340  16.198  67.145  1.00  0.00    -0.225 C  
HETATM    5  C   UNL     1     -10.424  15.624  65.858  1.00  0.00    -0.358 C  
HETATM    6  C   UNL     1     -10.636  16.501  68.163  1.00  0.00    -0.329 C  
HETATM    7  C   UNL     1      -9.159  16.218  68.435  1.00  0.00    -0.203 C  
HETATM    8  C   UNL     1      -8.952  15.285  66.087  1.00  0.00    -0.251 C  
ENDBRANCH   2   3
BRANCH   2   9
HETATM    9  C   UNL     1     -11.977  13.191  66.702  1.00  0.00    -0.389 C  
BRANCH   9  10
HETATM   10  C   UNL     1     -11.169  11.982  66.244  1.00  0.00    -0.394 A  
HETATM   11  C   UNL     1      -9.758   9.731  65.287  1.00  0.00    -0.371 A  
HETATM   12 BR   UNL     1      -9.214  10.850  62.726  1.00  0.00    -0.383 Br 
HETATM   13  C   UNL     1     -10.657  11.942  64.930  1.00  0.00    -0.333 A  
HETATM   14  C   UNL     1      -9.938  10.840  64.472  1.00  0.00    -0.333 A  
HETATM   15  C   UNL     1     -10.312   9.732  66.566  1.00  0.00    -0.192 A  
HETATM   16 BR   UNL     1     -10.082   8.162  67.623  1.00  0.00    -0.288 Br 
HETATM   17  C   UNL     1     -11.000  10.854  67.081  1.00  0.00    -0.272 A  
HETATM   18  N   UNL     1     -11.698  10.743  68.303  1.00  0.00    -0.696 NA 
HETATM   19  H1  UNL     1     -11.576   9.929  68.907  1.00  0.00     0.000 HD 
HETATM   20  H2  UNL     1     -12.694  10.846  68.109  1.00  0.00     0.000 HD 
ENDBRANCH   9  10
ENDBRANCH   2   9
TORSDOF 3
ENDMDL
MODEL       26
REMARK 921   NORMALIZED FREE ENERGY PREDICTED BY IDOCK:   -5.06 KCAL/MOL
REMARK 922        TOTAL FREE ENERGY PREDICTED BY IDOCK:   -6.58 KCAL/MOL
REMARK 923 INTER-LIGAND FREE ENERGY PREDICTED BY IDOCK:   -5.99 KCAL/MOL
REMARK 924 INTRA-LIGAND FREE ENERGY PREDICTED BY IDOCK:   -0.59 KCAL/MOL
REMARK 927      BINDING AFFINITY PREDICTED BY RF-SCORE:    0.00 PKD
ROOT
HETATM    1  C   UNL     1     -12.740  11.893  71.174  1.00  0.00    -0.284 C  
HETATM    2  N   UNL     1     -12.383  13.237  70.682  1.00  0.00    -0.360 NA 
ENDROOT
BRANCH   2   3
HETATM    3  C   UNL     1     -13.391  14.245  71.142  1.00  0.00    -0.299 C  
HETATM    4  C   UNL     1     -11.916  16.078  73.002  1.00  0.00    -0.597 C  
HETATM    5  C   UNL     1     -13.028  15.705  70.776  1.00  0.00    -0.413 C  
HETATM    6  C   UNL     1     -13.615  14.232  72.676  1.00  0.00    -0.601 C  
HETATM    7  C   UNL     1     -12.379  14.692  73.449  1.00  0.00    -0.380 C  
HETATM    8  C   UNL     1     -11.758  16.172  71.487  1.00  0.00    -0.533 C  
ENDBRANCH   2   3
BRANCH   2   9
HETATM    9  C   UNL     1     -12.286  13.228  69.197  1.00  0.00    -0.124 C  
BRANCH   9  10
HETATM   10  C   UNL     1     -10.931  12.872  68.595  1.00  0.00    -0.295 A  
HETATM   11  C   UNL     1      -8.440  12.316  67.387  1.00  0.00    -0.176 A  
HETATM   12 BR   UNL     1      -7.417  14.954  67.699  1.00  0.00    -0.223 Br 
HETATM   13  C   UNL     1      -9.957  13.879  68.425  1.00  0.00    -0.233 A  
HETATM   14  C   UNL     1      -8.719  13.593  67.853  1.00  0.00    -0.184 A  
HETATM   15  C   UNL     1      -9.416  11.326  67.492  1.00  0.00    -0.169 A  
HETATM   16 BR   UNL     1      -9.001   9.605  66.787  1.00  0.00    -0.164 Br 
HETATM   17  C   UNL     1     -10.662  11.569  68.116  1.00  0.00    -0.205 A  
HETATM   18  N   UNL     1     -11.682  10.597  68.035  1.00  0.00    -0.747 NA 
HETATM   19  H1  UNL     1     -11.488   9.656  67.690  1.00  0.00     0.000 HD 
HETATM   20  H2  UNL     1     -12.446  10.985  67.483  1.00  0.00     0.000 HD 
ENDBRANCH   9  10
ENDBRANCH   2   9
TORSDOF 3
ENDMDL
MODEL       27
REMARK 921   NORMALIZED FREE ENERGY PREDICTED BY IDOCK:   -5.04 KCAL/MOL
REMARK 922        TOTAL FREE ENERGY PREDICTED BY IDOCK:   -6.56 KCAL/MOL
REMARK 923 INTER-LIGAND FREE ENERGY PREDICTED BY IDOCK:   -5.86 KCAL/MOL
REMARK 924 INTRA-LIGAND FREE ENERGY PREDICTED BY IDOCK:   -0.69 KCAL/MOL
REMARK 927      BINDING AFFINITY PREDICTED BY RF-SCORE:    0.00 PKD
ROOT
HETATM    1  C   UNL     1     -10.471  19.370  66.169  1.00  0.00    -0.508 C  
HETATM    2  N   UNL     1      -9.755  18.145  66.570  1.00  0.00    -0.331 NA 
ENDROOT
BRANCH   2   3
HETATM    3  C   UNL     1      -8.301  18.254  66.223  1.00  0.00    -0.203 C  
HETATM    4  C   UNL     1      -6.825  17.993  68.821  1.00  0.00    -0.260 C  
HETATM    5  C   UNL     1      -7.472  17.002  66.602  1.00  0.00    -0.300 C  
HETATM    6  C   UNL     1      -7.597  19.454  66.906  1.00  0.00    -0.261 C  
HETATM    7  C   UNL     1      -7.516  19.297  68.424  1.00  0.00    -0.346 C  
HETATM    8  C   UNL     1      -7.427  16.783  68.113  1.00  0.00    -0.172 C  
ENDBRANCH   2   3
BRANCH   2   9
HETATM    9  C   UNL     1     -10.366  16.958  65.912  1.00  0.00    -0.315 C  
BRANCH   9  10
HETATM   10  C   UNL     1     -10.740  15.786  66.812  1.00  0.00    -0.293 A  
HETATM   11  C   UNL     1     -11.350  13.668  68.577  1.00  0.00    -0.325 A  
HETATM   12 BR   UNL     1     -12.216  15.355  70.700  1.00  0.00    -0.474 Br 
HETATM   13  C   UNL     1     -11.208  16.033  68.120  1.00  0.00    -0.325 A  
HETATM   14  C   UNL     1     -11.533  14.984  68.978  1.00  0.00    -0.304 A  
HETATM   15  C   UNL     1     -10.829  13.410  67.310  1.00  0.00    -0.269 A  
HETATM   16 BR   UNL     1     -10.545  11.587  66.832  1.00  0.00    -0.300 Br 
HETATM   17  C   UNL     1     -10.540  14.449  66.396  1.00  0.00    -0.297 A  
HETATM   18  N   UNL     1      -9.847  14.154  65.202  1.00  0.00    -0.582 NA 
HETATM   19  H1  UNL     1      -9.703  13.189  64.901  1.00  0.00     0.000 HD 
HETATM   20  H2  UNL     1      -8.937  14.612  65.243  1.00  0.00     0.000 HD 
ENDBRANCH   9  10
ENDBRANCH   2   9
TORSDOF 3
ENDMDL
MODEL       28
REMARK 921   NORMALIZED FREE ENERGY PREDICTED BY IDOCK:   -5.03 KCAL/MOL
REMARK 922        TOTAL FREE ENERGY PREDICTED BY IDOCK:   -6.54 KCAL/MOL
REMARK 923 INTER-LIGAND FREE ENERGY PREDICTED BY IDOCK:   -5.88 KCAL/MOL
REMARK 924 INTRA-LIGAND FREE ENERGY PREDICTED BY IDOCK:   -0.66 KCAL/MOL
REMARK 927      BINDING AFFINITY PREDICTED BY RF-SCORE:    0.00 PKD
ROOT
HETATM    1  C   UNL     1     -11.120  15.820  70.233  1.00  0.00    -0.361 C  
HETATM    2  N   UNL     1     -10.887  15.572  68.798  1.00  0.00    -0.244 NA 
ENDROOT
BRANCH   2   3
HETATM    3  C   UNL     1     -10.783  16.869  68.055  1.00  0.00    -0.364 C  
HETATM    4  C   UNL     1      -8.008  16.932  66.918  1.00  0.00    -0.248 C  
HETATM    5  C   UNL     1     -10.485  16.703  66.544  1.00  0.00    -0.262 C  
HETATM    6  C   UNL     1      -9.676  17.804  68.608  1.00  0.00    -0.346 C  
HETATM    7  C   UNL     1      -8.273  17.238  68.391  1.00  0.00    -0.260 C  
HETATM    8  C   UNL     1      -9.112  16.079  66.299  1.00  0.00    -0.379 C  
ENDBRANCH   2   3
BRANCH   2   9
HETATM    9  C   UNL     1     -11.982  14.732  68.240  1.00  0.00    -0.223 C  
BRANCH   9  10
HETATM   10  C   UNL     1     -11.573  13.573  67.339  1.00  0.00    -0.392 A  
HETATM   11  C   UNL     1     -10.685  11.476  65.670  1.00  0.00    -0.323 A  
HETATM   12 BR   UNL     1      -8.643  10.593  67.446  1.00  0.00    -0.122 Br 
HETATM   13  C   UNL     1     -10.483  12.756  67.706  1.00  0.00    -0.228 A  
HETATM   14  C   UNL     1     -10.067  11.705  66.891  1.00  0.00    -0.211 A  
HETATM   15  C   UNL     1     -11.723  12.314  65.267  1.00  0.00    -0.361 A  
HETATM   16 BR   UNL     1     -12.500  11.989  63.557  1.00  0.00    -0.545 Br 
HETATM   17  C   UNL     1     -12.206  13.355  66.092  1.00  0.00    -0.415 A  
HETATM   18  N   UNL     1     -13.127  14.288  65.570  1.00  0.00    -0.598 NA 
HETATM   19  H1  UNL     1     -13.584  14.131  64.671  1.00  0.00     0.000 HD 
HETATM   20  H2  UNL     1     -12.670  15.200  65.538  1.00  0.00     0.000 HD 
ENDBRANCH   9  10
ENDBRANCH   2   9
TORSDOF 3
ENDMDL
MODEL       29
REMARK 921   NORMALIZED FREE ENERGY PREDICTED BY IDOCK:   -5.00 KCAL/MOL
REMARK 922        TOTAL FREE ENERGY PREDICTED BY IDOCK:   -6.50 KCAL/MOL
REMARK 923 INTER-LIGAND FREE ENERGY PREDICTED BY IDOCK:   -5.99 KCAL/MOL
REMARK 924 INTRA-LIGAND FREE ENERGY PREDICTED BY IDOCK:   -0.52 KCAL/MOL
REMARK 927      BINDING AFFINITY PREDICTED BY RF-SCORE:    0.00 PKD
ROOT
HETATM    1  C   UNL     1     -12.149  13.974  68.870  1.00  0.00    -0.316 C  
HETATM    2  N   UNL     1     -11.059  14.552  68.064  1.00  0.00    -0.267 NA 
ENDROOT
BRANCH   2   3
HETATM    3  C   UNL     1     -10.675  13.617  66.958  1.00  0.00    -0.278 C  
HETATM    4  C   UNL     1     -12.051  14.655  64.504  1.00  0.00    -0.490 C  
HETATM    5  C   UNL     1      -9.920  14.301  65.792  1.00  0.00    -0.346 C  
HETATM    6  C   UNL     1     -11.890  12.898  66.316  1.00  0.00    -0.477 C  
HETATM    7  C   UNL     1     -12.809  13.862  65.567  1.00  0.00    -0.471 C  
HETATM    8  C   UNL     1     -10.797  15.319  65.064  1.00  0.00    -0.457 C  
ENDBRANCH   2   3
BRANCH   2   9
HETATM    9  C   UNL     1      -9.886  14.852  68.930  1.00  0.00    -0.230 C  
BRANCH   9  10
HETATM   10  C   UNL     1      -9.243  16.225  68.773  1.00  0.00    -0.240 A  
HETATM   11  C   UNL     1      -8.082  18.763  68.344  1.00  0.00    -0.371 A  
HETATM   12 BR   UNL     1     -10.394  19.893  67.128  1.00  0.00    -0.571 Br 
HETATM   13  C   UNL     1      -9.956  17.258  68.127  1.00  0.00    -0.303 A  
HETATM   14  C   UNL     1      -9.387  18.517  67.942  1.00  0.00    -0.294 A  
HETATM   15  C   UNL     1      -7.345  17.733  68.927  1.00  0.00    -0.245 A  
HETATM   16 BR   UNL     1      -5.540  18.109  69.411  1.00  0.00    -0.225 Br 
HETATM   17  C   UNL     1      -7.909  16.461  69.179  1.00  0.00    -0.214 A  
HETATM   18  N   UNL     1      -7.077  15.401  69.599  1.00  0.00    -0.191 NA 
HETATM   19  H1  UNL     1      -6.115  15.571  69.892  1.00  0.00     0.000 HD 
HETATM   20  H2  UNL     1      -7.063  14.698  68.861  1.00  0.00     0.000 HD 
ENDBRANCH   9  10
ENDBRANCH   2   9
TORSDOF 3
ENDMDL
MODEL       30
REMARK 921   NORMALIZED FREE ENERGY PREDICTED BY IDOCK:   -4.99 KCAL/MOL
REMARK 922        TOTAL FREE ENERGY PREDICTED BY IDOCK:   -6.49 KCAL/MOL
REMARK 923 INTER-LIGAND FREE ENERGY PREDICTED BY IDOCK:   -5.74 KCAL/MOL
REMARK 924 INTRA-LIGAND FREE ENERGY PREDICTED BY IDOCK:   -0.76 KCAL/MOL
REMARK 927      BINDING AFFINITY PREDICTED BY RF-SCORE:    0.00 PKD
ROOT
HETATM    1  C   UNL     1     -12.270  11.886  70.527  1.00  0.00    -0.336 C  
HETATM    2  N   UNL     1     -12.023  13.302  70.197  1.00  0.00    -0.335 NA 
ENDROOT
BRANCH   2   3
HETATM    3  C   UNL     1     -13.139  14.159  70.712  1.00  0.00    -0.226 C  
HETATM    4  C   UNL     1     -11.945  15.803  72.918  1.00  0.00    -0.599 C  
HETATM    5  C   UNL     1     -12.871  15.679  70.583  1.00  0.00    -0.400 C  
HETATM    6  C   UNL     1     -13.463  13.909  72.207  1.00  0.00    -0.623 C  
HETATM    7  C   UNL     1     -12.324  14.338  73.131  1.00  0.00    -0.090 C  
HETATM    8  C   UNL     1     -11.694  16.126  71.449  1.00  0.00    -0.506 C  
ENDBRANCH   2   3
BRANCH   2   9
HETATM    9  C   UNL     1     -11.871  13.464  68.725  1.00  0.00    -0.351 C  
BRANCH   9  10
HETATM   10  C   UNL     1     -10.631  14.205  68.236  1.00  0.00    -0.254 A  
HETATM   11  C   UNL     1      -8.397  15.589  67.205  1.00  0.00    -0.218 A  
HETATM   12 BR   UNL     1      -9.884  17.862  66.352  1.00  0.00    -0.329 Br 
HETATM   13  C   UNL     1     -10.772  15.462  67.611  1.00  0.00    -0.292 A  
HETATM   14  C   UNL     1      -9.663  16.153  67.128  1.00  0.00    -0.233 A  
HETATM   15  C   UNL     1      -8.251  14.321  67.764  1.00  0.00    -0.174 A  
HETATM   16 BR   UNL     1      -6.499  13.570  67.795  1.00  0.00    -0.174 Br 
HETATM   17  C   UNL     1      -9.347  13.616  68.312  1.00  0.00    -0.204 A  
HETATM   18  N   UNL     1      -9.186  12.268  68.699  1.00  0.00    -0.394 NA 
HETATM   19  H1  UNL     1      -8.260  11.843  68.754  1.00  0.00     0.000 HD 
HETATM   20  H2  UNL     1      -9.762  11.692  68.085  1.00  0.00     0.000 HD 
ENDBRANCH   9  10
ENDBRANCH   2   9
TORSDOF 3
ENDMDL
MODEL       31
REMARK 921   NORMALIZED FREE ENERGY PREDICTED BY IDOCK:   -4.98 KCAL/MOL
REMARK 922        TOTAL FREE ENERGY PREDICTED BY IDOCK:   -6.48 KCAL/MOL
REMARK 923 INTER-LIGAND FREE ENERGY PREDICTED BY IDOCK:   -6.11 KCAL/MOL
REMARK 924 INTRA-LIGAND FREE ENERGY PREDICTED BY IDOCK:   -0.38 KCAL/MOL
REMARK 927      BINDING AFFINITY PREDICTED BY RF-SCORE:    0.00 PKD
ROOT
HETATM    1  C   UNL     1      -9.435  10.438  69.320  1.00  0.00    -0.198 C  
HETATM    2  N   UNL     1     -10.642  10.057  70.077  1.00  0.00    -0.276 NA 
ENDROOT
BRANCH   2   3
HETATM    3  C   UNL     1     -10.773   8.566  70.131  1.00  0.00    -0.235 C  
HETATM    4  C   UNL     1     -10.700   7.850  73.043  1.00  0.00    -0.408 C  
HETATM    5  C   UNL     1     -12.017   8.075  70.912  1.00  0.00    -0.201 C  
HETATM    6  C   UNL     1      -9.555   7.867  70.788  1.00  0.00    -0.171 C  
HETATM    7  C   UNL     1      -9.425   8.196  72.274  1.00  0.00    -0.312 C  
HETATM    8  C   UNL     1     -11.945   8.446  72.392  1.00  0.00    -0.451 C  
ENDBRANCH   2   3
BRANCH   2   9
HETATM    9  C   UNL     1     -11.848  10.670  69.456  1.00  0.00    -0.273 C  
BRANCH   9  10
HETATM   10  C   UNL     1     -11.779  12.159  69.135  1.00  0.00    -0.384 A  
HETATM   11  C   UNL     1     -11.774  14.932  68.606  1.00  0.00    -0.358 A  
HETATM   12 BR   UNL     1     -12.018  15.706  71.335  1.00  0.00    -0.537 Br 
HETATM   13  C   UNL     1     -11.920  13.103  70.174  1.00  0.00    -0.381 A  
HETATM   14  C   UNL     1     -11.889  14.471  69.910  1.00  0.00    -0.317 A  
HETATM   15  C   UNL     1     -11.697  14.009  67.564  1.00  0.00    -0.387 A  
HETATM   16 BR   UNL     1     -11.596  14.696  65.789  1.00  0.00    -0.292 Br 
HETATM   17  C   UNL     1     -11.671  12.616  67.801  1.00  0.00    -0.356 A  
HETATM   18  N   UNL     1     -11.777  11.722  66.713  1.00  0.00    -0.571 NA 
HETATM   19  H1  UNL     1     -11.698  12.052  65.751  1.00  0.00     0.000 HD 
HETATM   20  H2  UNL     1     -12.659  11.218  66.804  1.00  0.00     0.000 HD 
ENDBRANCH   9  10
ENDBRANCH   2   9
TORSDOF 3
ENDMDL
MODEL       32
REMARK 921   NORMALIZED FREE ENERGY PREDICTED BY IDOCK:   -4.97 KCAL/MOL
REMARK 922        TOTAL FREE ENERGY PREDICTED BY IDOCK:   -6.47 KCAL/MOL
REMARK 923 INTER-LIGAND FREE ENERGY PREDICTED BY IDOCK:   -5.72 KCAL/MOL
REMARK 924 INTRA-LIGAND FREE ENERGY PREDICTED BY IDOCK:   -0.75 KCAL/MOL
REMARK 927      BINDING AFFINITY PREDICTED BY RF-SCORE:    0.00 PKD
ROOT
HETATM    1  C   UNL     1      -8.760  10.003  68.847  1.00  0.00    -0.146 C  
HETATM    2  N   UNL     1     -10.097   9.669  69.372  1.00  0.00    -0.190 NA 
ENDROOT
BRANCH   2   3
HETATM    3  C   UNL     1     -10.161   8.222  69.755  1.00  0.00    -0.197 C  
HETATM    4  C   UNL     1     -10.726   8.186  72.700  1.00  0.00    -0.421 C  
HETATM    5  C   UNL     1     -11.525   7.791  70.348  1.00  0.00    -0.171 C  
HETATM    6  C   UNL     1      -9.093   7.819  70.804  1.00  0.00    -0.149 C  
HETATM    7  C   UNL     1      -9.327   8.483  72.160  1.00  0.00    -0.353 C  
HETATM    8  C   UNL     1     -11.816   8.489  71.676  1.00  0.00    -0.370 C  
ENDBRANCH   2   3
BRANCH   2   9
HETATM    9  C   UNL     1     -11.139   9.992  68.359  1.00  0.00    -0.182 C  
BRANCH   9  10
HETATM   10  C   UNL     1     -11.442  11.468  68.125  1.00  0.00    -0.385 A  
HETATM   11  C   UNL     1     -11.877  14.214  67.634  1.00  0.00    -0.427 A  
HETATM   12 BR   UNL     1     -11.406  14.043  64.831  1.00  0.00    -0.374 Br 
HETATM   13  C   UNL     1     -11.301  12.012  66.831  1.00  0.00    -0.400 A  
HETATM   14  C   UNL     1     -11.544  13.363  66.589  1.00  0.00    -0.362 A  
HETATM   15  C   UNL     1     -11.958  13.702  68.927  1.00  0.00    -0.356 A  
HETATM   16 BR   UNL     1     -12.365  14.925  70.332  1.00  0.00    -0.418 Br 
HETATM   17  C   UNL     1     -11.772  12.327  69.200  1.00  0.00    -0.323 A  
HETATM   18  N   UNL     1     -11.682  11.888  70.538  1.00  0.00    -0.495 NA 
HETATM   19  H1  UNL     1     -11.921  12.507  71.313  1.00  0.00     0.000 HD 
HETATM   20  H2  UNL     1     -10.737  11.536  70.693  1.00  0.00     0.000 HD 
ENDBRANCH   9  10
ENDBRANCH   2   9
TORSDOF 3
ENDMDL
MODEL       33
REMARK 921   NORMALIZED FREE ENERGY PREDICTED BY IDOCK:   -4.94 KCAL/MOL
REMARK 922        TOTAL FREE ENERGY PREDICTED BY IDOCK:   -6.43 KCAL/MOL
REMARK 923 INTER-LIGAND FREE ENERGY PREDICTED BY IDOCK:   -5.79 KCAL/MOL
REMARK 924 INTRA-LIGAND FREE ENERGY PREDICTED BY IDOCK:   -0.64 KCAL/MOL
REMARK 927      BINDING AFFINITY PREDICTED BY RF-SCORE:    0.00 PKD
ROOT
HETATM    1  C   UNL     1     -11.853  15.252  69.148  1.00  0.00    -0.321 C  
HETATM    2  N   UNL     1     -11.053  15.218  67.909  1.00  0.00    -0.310 NA 
ENDROOT
BRANCH   2   3
HETATM    3  C   UNL     1     -10.701  16.609  67.477  1.00  0.00    -0.278 C  
HETATM    4  C   UNL     1      -7.707  16.676  67.318  1.00  0.00    -0.198 C  
HETATM    5  C   UNL     1      -9.928  16.671  66.137  1.00  0.00    -0.356 C  
HETATM    6  C   UNL     1      -9.828  17.368  68.509  1.00  0.00    -0.320 C  
HETATM    7  C   UNL     1      -8.436  16.756  68.659  1.00  0.00    -0.259 C  
HETATM    8  C   UNL     1      -8.555  16.008  66.239  1.00  0.00    -0.363 C  
ENDBRANCH   2   3
BRANCH   2   9
HETATM    9  C   UNL     1     -11.802  14.507  66.837  1.00  0.00    -0.377 C  
BRANCH   9  10
HETATM   10  C   UNL     1     -11.265  13.146  66.406  1.00  0.00    -0.328 A  
HETATM   11  C   UNL     1     -10.173  10.639  65.705  1.00  0.00    -0.319 A  
HETATM   12 BR   UNL     1     -10.377   9.538  68.322  1.00  0.00    -0.259 Br 
HETATM   13  C   UNL     1     -11.075  12.135  67.370  1.00  0.00    -0.330 A  
HETATM   14  C   UNL     1     -10.560  10.889  67.014  1.00  0.00    -0.257 A  
HETATM   15  C   UNL     1     -10.298  11.651  64.754  1.00  0.00    -0.282 A  
HETATM   16 BR   UNL     1      -9.700  11.272  62.984  1.00  0.00    -0.382 Br 
HETATM   17  C   UNL     1     -10.866  12.906  65.070  1.00  0.00    -0.299 A  
HETATM   18  N   UNL     1     -10.804  13.956  64.128  1.00  0.00    -0.556 NA 
HETATM   19  H1  UNL     1     -10.516  13.783  63.165  1.00  0.00     0.000 HD 
HETATM   20  H2  UNL     1     -10.206  14.689  64.510  1.00  0.00     0.000 HD 
ENDBRANCH   9  10
ENDBRANCH   2   9
TORSDOF 3
ENDMDL
MODEL       34
REMARK 921   NORMALIZED FREE ENERGY PREDICTED BY IDOCK:   -4.93 KCAL/MOL
REMARK 922        TOTAL FREE ENERGY PREDICTED BY IDOCK:   -6.42 KCAL/MOL
REMARK 923 INTER-LIGAND FREE ENERGY PREDICTED BY IDOCK:   -5.74 KCAL/MOL
REMARK 924 INTRA-LIGAND FREE ENERGY PREDICTED BY IDOCK:   -0.68 KCAL/MOL
REMARK 927      BINDING AFFINITY PREDICTED BY RF-SCORE:    0.00 PKD
ROOT
HETATM    1  C   UNL     1     -12.847  10.799  71.129  1.00  0.00    -0.414 C  
HETATM    2  N   UNL     1     -11.756  10.152  70.377  1.00  0.00    -0.289 NA 
ENDROOT
BRANCH   2   3
HETATM    3  C   UNL     1     -10.983   9.230  71.270  1.00  0.00    -0.351 C  
HETATM    4  C   UNL     1     -11.545   6.462  70.262  1.00  0.00    -0.451 C  
HETATM    5  C   UNL     1      -9.930   8.373  70.524  1.00  0.00    -0.205 C  
HETATM    6  C   UNL     1     -11.880   8.228  72.041  1.00  0.00    -0.408 C  
HETATM    7  C   UNL     1     -12.561   7.222  71.114  1.00  0.00    -0.362 C  
HETATM    8  C   UNL     1     -10.580   7.399  69.542  1.00  0.00    -0.244 C  
ENDBRANCH   2   3
BRANCH   2   9
HETATM    9  C   UNL     1     -10.862  11.183  69.783  1.00  0.00    -0.090 C  
BRANCH   9  10
HETATM   10  C   UNL     1     -10.918  11.358  68.270  1.00  0.00    -0.266 A  
HETATM   11  C   UNL     1     -10.882  11.683  65.465  1.00  0.00    -0.334 A  
HETATM   12 BR   UNL     1      -9.278   9.384  64.969  1.00  0.00    -0.235 Br 
HETATM   13  C   UNL     1     -10.197  10.475  67.439  1.00  0.00    -0.253 A  
HETATM   14  C   UNL     1     -10.205  10.624  66.053  1.00  0.00    -0.247 A  
HETATM   15  C   UNL     1     -11.547  12.599  66.279  1.00  0.00    -0.386 A  
HETATM   16 BR   UNL     1     -12.414  14.065  65.423  1.00  0.00    -0.516 Br 
HETATM   17  C   UNL     1     -11.604  12.447  67.683  1.00  0.00    -0.357 A  
HETATM   18  N   UNL     1     -12.128  13.491  68.476  1.00  0.00    -0.334 NA 
HETATM   19  H1  UNL     1     -12.624  14.276  68.053  1.00  0.00     0.000 HD 
HETATM   20  H2  UNL     1     -11.370  13.865  69.047  1.00  0.00     0.000 HD 
ENDBRANCH   9  10
ENDBRANCH   2   9
TORSDOF 3
ENDMDL
MODEL       35
REMARK 921   NORMALIZED FREE ENERGY PREDICTED BY IDOCK:   -4.89 KCAL/MOL
REMARK 922        TOTAL FREE ENERGY PREDICTED BY IDOCK:   -6.38 KCAL/MOL
REMARK 923 INTER-LIGAND FREE ENERGY PREDICTED BY IDOCK:   -5.80 KCAL/MOL
REMARK 924 INTRA-LIGAND FREE ENERGY PREDICTED BY IDOCK:   -0.57 KCAL/MOL
REMARK 927      BINDING AFFINITY PREDICTED BY RF-SCORE:    0.00 PKD
ROOT
HETATM    1  C   UNL     1      -8.880   9.850  69.855  1.00  0.00    -0.195 C  
HETATM    2  N   UNL     1     -10.250   9.509  70.279  1.00  0.00    -0.242 NA 
ENDROOT
BRANCH   2   3
HETATM    3  C   UNL     1     -10.421   8.022  70.342  1.00  0.00    -0.218 C  
HETATM    4  C   UNL     1     -10.742   7.365  73.251  1.00  0.00    -0.441 C  
HETATM    5  C   UNL     1     -11.767   7.572  70.963  1.00  0.00    -0.317 C  
HETATM    6  C   UNL     1      -9.314   7.313  71.165  1.00  0.00    -0.156 C  
HETATM    7  C   UNL     1      -9.371   7.669  72.649  1.00  0.00    -0.225 C  
HETATM    8  C   UNL     1     -11.879   7.972  72.434  1.00  0.00    -0.429 C  
ENDBRANCH   2   3
BRANCH   2   9
HETATM    9  C   UNL     1     -11.239  10.113  69.345  1.00  0.00    -0.215 C  
BRANCH   9  10
HETATM   10  C   UNL     1     -11.583  11.583  69.560  1.00  0.00    -0.400 A  
HETATM   11  C   UNL     1     -12.084  14.333  69.957  1.00  0.00    -0.400 A  
HETATM   12 BR   UNL     1     -10.634  15.184  67.659  1.00  0.00    -0.268 Br 
HETATM   13  C   UNL     1     -11.047  12.558  68.693  1.00  0.00    -0.305 A  
HETATM   14  C   UNL     1     -11.319  13.912  68.877  1.00  0.00    -0.282 A  
HETATM   15  C   UNL     1     -12.568  13.385  70.856  1.00  0.00    -0.327 A  
HETATM   16 BR   UNL     1     -13.566  14.022  72.351  1.00  0.00    -0.693 Br 
HETATM   17  C   UNL     1     -12.356  12.000  70.669  1.00  0.00    -0.304 A  
HETATM   18  N   UNL     1     -12.705  11.096  71.695  1.00  0.00    -0.388 NA 
HETATM   19  H1  UNL     1     -13.263  11.397  72.495  1.00  0.00     0.000 HD 
HETATM   20  H2  UNL     1     -11.847  10.674  72.049  1.00  0.00     0.000 HD 
ENDBRANCH   9  10
ENDBRANCH   2   9
TORSDOF 3
ENDMDL
MODEL       36
REMARK 921   NORMALIZED FREE ENERGY PREDICTED BY IDOCK:   -4.88 KCAL/MOL
REMARK 922        TOTAL FREE ENERGY PREDICTED BY IDOCK:   -6.37 KCAL/MOL
REMARK 923 INTER-LIGAND FREE ENERGY PREDICTED BY IDOCK:   -5.68 KCAL/MOL
REMARK 924 INTRA-LIGAND FREE ENERGY PREDICTED BY IDOCK:   -0.69 KCAL/MOL
REMARK 927      BINDING AFFINITY PREDICTED BY RF-SCORE:    0.00 PKD
ROOT
HETATM    1  C   UNL     1     -13.287   8.196  71.585  1.00  0.00    -0.331 C  
HETATM    2  N   UNL     1     -11.856   8.503  71.402  1.00  0.00    -0.286 NA 
ENDROOT
BRANCH   2   3
HETATM    3  C   UNL     1     -11.059   7.979  72.558  1.00  0.00    -0.375 C  
HETATM    4  C   UNL     1      -9.136   5.998  71.384  1.00  0.00    -0.149 C  
HETATM    5  C   UNL     1      -9.537   8.246  72.441  1.00  0.00    -0.364 C  
HETATM    6  C   UNL     1     -11.209   6.449  72.762  1.00  0.00    -0.261 C  
HETATM    7  C   UNL     1     -10.605   5.645  71.611  1.00  0.00    -0.301 C  
HETATM    8  C   UNL     1      -8.917   7.503  71.258  1.00  0.00    -0.142 C  
ENDBRANCH   2   3
BRANCH   2   9
HETATM    9  C   UNL     1     -11.664   9.971  71.252  1.00  0.00    -0.369 C  
BRANCH   9  10
HETATM   10  C   UNL     1     -11.437  10.498  69.840  1.00  0.00    -0.384 A  
HETATM   11  C   UNL     1     -10.882  11.438  67.236  1.00  0.00    -0.311 A  
HETATM   12 BR   UNL     1      -9.781   8.980  66.313  1.00  0.00    -0.351 Br 
HETATM   13  C   UNL     1     -10.811   9.673  68.881  1.00  0.00    -0.201 A  
HETATM   14  C   UNL     1     -10.564  10.134  67.589  1.00  0.00    -0.265 A  
HETATM   15  C   UNL     1     -11.444  12.282  68.192  1.00  0.00    -0.316 A  
HETATM   16 BR   UNL     1     -11.810  14.079  67.670  1.00  0.00    -0.421 Br 
HETATM   17  C   UNL     1     -11.757  11.832  69.495  1.00  0.00    -0.343 A  
HETATM   18  N   UNL     1     -12.151  12.764  70.479  1.00  0.00    -0.508 NA 
HETATM   19  H1  UNL     1     -12.383  13.726  70.230  1.00  0.00     0.000 HD 
HETATM   20  H2  UNL     1     -11.429  12.788  71.199  1.00  0.00     0.000 HD 
ENDBRANCH   9  10
ENDBRANCH   2   9
TORSDOF 3
ENDMDL
MODEL       37
REMARK 921   NORMALIZED FREE ENERGY PREDICTED BY IDOCK:   -4.86 KCAL/MOL
REMARK 922        TOTAL FREE ENERGY PREDICTED BY IDOCK:   -6.34 KCAL/MOL
REMARK 923 INTER-LIGAND FREE ENERGY PREDICTED BY IDOCK:   -5.64 KCAL/MOL
REMARK 924 INTRA-LIGAND FREE ENERGY PREDICTED BY IDOCK:   -0.69 KCAL/MOL
REMARK 927      BINDING AFFINITY PREDICTED BY RF-SCORE:    0.00 PKD
ROOT
HETATM    1  C   UNL     1     -12.261  11.765  70.727  1.00  0.00    -0.326 C  
HETATM    2  N   UNL     1     -12.162  13.195  70.379  1.00  0.00    -0.345 NA 
ENDROOT
BRANCH   2   3
HETATM    3  C   UNL     1     -13.301  13.958  70.982  1.00  0.00    -0.126 C  
HETATM    4  C   UNL     1     -12.078  15.711  73.086  1.00  0.00    -0.598 C  
HETATM    5  C   UNL     1     -13.174  15.495  70.832  1.00  0.00    -0.474 C  
HETATM    6  C   UNL     1     -13.482  13.691  72.498  1.00  0.00    -0.675 C  
HETATM    7  C   UNL     1     -12.313  14.221  73.328  1.00  0.00    -0.050 C  
HETATM    8  C   UNL     1     -11.973  16.045  71.601  1.00  0.00    -0.569 C  
ENDBRANCH   2   3
BRANCH   2   9
HETATM    9  C   UNL     1     -12.141  13.360  68.899  1.00  0.00    -0.252 C  
BRANCH   9  10
HETATM   10  C   UNL     1     -10.868  12.939  68.175  1.00  0.00    -0.257 A  
HETATM   11  C   UNL     1      -8.527  12.030  66.883  1.00  0.00    -0.172 A  
HETATM   12 BR   UNL     1      -9.823   9.921  65.476  1.00  0.00    -0.359 Br 
HETATM   13  C   UNL     1     -10.892  11.817  67.319  1.00  0.00    -0.300 A  
HETATM   14  C   UNL     1      -9.739  11.390  66.663  1.00  0.00    -0.200 A  
HETATM   15  C   UNL     1      -8.478  13.101  67.774  1.00  0.00    -0.185 A  
HETATM   16 BR   UNL     1      -6.779  13.909  68.082  1.00  0.00    -0.146 Br 
HETATM   17  C   UNL     1      -9.637  13.594  68.414  1.00  0.00    -0.203 A  
HETATM   18  N   UNL     1      -9.511  14.555  69.441  1.00  0.00    -0.407 NA 
HETATM   19  H1  UNL     1      -8.624  15.028  69.614  1.00  0.00     0.000 HD 
HETATM   20  H2  UNL     1      -9.816  14.125  70.315  1.00  0.00     0.000 HD 
ENDBRANCH   9  10
ENDBRANCH   2   9
TORSDOF 3
ENDMDL
MODEL       38
REMARK 921   NORMALIZED FREE ENERGY PREDICTED BY IDOCK:   -4.82 KCAL/MOL
REMARK 922        TOTAL FREE ENERGY PREDICTED BY IDOCK:   -6.29 KCAL/MOL
REMARK 923 INTER-LIGAND FREE ENERGY PREDICTED BY IDOCK:   -5.59 KCAL/MOL
REMARK 924 INTRA-LIGAND FREE ENERGY PREDICTED BY IDOCK:   -0.70 KCAL/MOL
REMARK 927      BINDING AFFINITY PREDICTED BY RF-SCORE:    0.00 PKD
ROOT
HETATM    1  C   UNL     1      -8.569  12.421  68.405  1.00  0.00    -0.129 C  
HETATM    2  N   UNL     1      -9.596  11.617  67.716  1.00  0.00    -0.173 NA 
ENDROOT
BRANCH   2   3
HETATM    3  C   UNL     1      -9.168  11.315  66.313  1.00  0.00    -0.200 C  
HETATM    4  C   UNL     1      -8.577   8.375  66.262  1.00  0.00    -0.149 C  
HETATM    5  C   UNL     1     -10.071  10.284  65.591  1.00  0.00    -0.341 C  
HETATM    6  C   UNL     1      -7.724  10.756  66.221  1.00  0.00    -0.146 C  
HETATM    7  C   UNL     1      -7.591   9.375  66.864  1.00  0.00    -0.091 C  
HETATM    8  C   UNL     1     -10.006   8.907  66.252  1.00  0.00    -0.337 C  
ENDBRANCH   2   3
BRANCH   2   9
HETATM    9  C   UNL     1     -10.899  12.338  67.725  1.00  0.00    -0.221 C  
BRANCH   9  10
HETATM   10  C   UNL     1     -11.655  12.382  69.048  1.00  0.00    -0.362 A  
HETATM   11  C   UNL     1     -12.952  12.544  71.551  1.00  0.00    -0.379 A  
HETATM   12 BR   UNL     1     -12.998  15.389  71.625  1.00  0.00    -0.560 Br 
HETATM   13  C   UNL     1     -11.929  13.627  69.653  1.00  0.00    -0.402 A  
HETATM   14  C   UNL     1     -12.593  13.702  70.876  1.00  0.00    -0.346 A  
HETATM   15  C   UNL     1     -12.632  11.306  70.994  1.00  0.00    -0.394 A  
HETATM   16 BR   UNL     1     -13.099   9.749  71.989  1.00  0.00    -0.542 Br 
HETATM   17  C   UNL     1     -12.008  11.195  69.731  1.00  0.00    -0.357 A  
HETATM   18  N   UNL     1     -11.540   9.937  69.294  1.00  0.00    -0.460 NA 
HETATM   19  H1  UNL     1     -11.794   9.080  69.786  1.00  0.00     0.000 HD 
HETATM   20  H2  UNL     1     -10.522   9.979  69.238  1.00  0.00     0.000 HD 
ENDBRANCH   9  10
ENDBRANCH   2   9
TORSDOF 3
ENDMDL
MODEL       39
REMARK 921   NORMALIZED FREE ENERGY PREDICTED BY IDOCK:   -4.81 KCAL/MOL
REMARK 922        TOTAL FREE ENERGY PREDICTED BY IDOCK:   -6.29 KCAL/MOL
REMARK 923 INTER-LIGAND FREE ENERGY PREDICTED BY IDOCK:   -5.65 KCAL/MOL
REMARK 924 INTRA-LIGAND FREE ENERGY PREDICTED BY IDOCK:   -0.63 KCAL/MOL
REMARK 927      BINDING AFFINITY PREDICTED BY RF-SCORE:    0.00 PKD
ROOT
HETATM    1  C   UNL     1     -10.846  13.401  64.664  1.00  0.00    -0.392 C  
HETATM    2  N   UNL     1     -10.934  13.097  66.104  1.00  0.00    -0.281 NA 
ENDROOT
BRANCH   2   3
HETATM    3  C   UNL     1     -11.224  11.642  66.312  1.00  0.00    -0.271 C  
HETATM    4  C   UNL     1      -8.849  10.544  67.778  1.00  0.00    -0.125 C  
HETATM    5  C   UNL     1     -11.271  11.220  67.802  1.00  0.00    -0.354 C  
HETATM    6  C   UNL     1     -10.186  10.708  65.637  1.00  0.00    -0.319 C  
HETATM    7  C   UNL     1      -8.802  10.817  66.275  1.00  0.00    -0.182 C  
HETATM    8  C   UNL     1      -9.913  11.379  68.483  1.00  0.00    -0.203 C  
ENDBRANCH   2   3
BRANCH   2   9
HETATM    9  C   UNL     1     -11.984  13.939  66.741  1.00  0.00    -0.438 C  
BRANCH   9  10
HETATM   10  C   UNL     1     -11.514  14.991  67.739  1.00  0.00    -0.347 A  
HETATM   11  C   UNL     1     -10.511  16.905  69.557  1.00  0.00    -0.228 A  
HETATM   12 BR   UNL     1      -8.916  18.266  67.631  1.00  0.00    -0.277 Br 
HETATM   13  C   UNL     1     -10.584  15.971  67.333  1.00  0.00    -0.316 A  
HETATM   14  C   UNL     1     -10.113  16.930  68.227  1.00  0.00    -0.302 A  
HETATM   15  C   UNL     1     -11.381  15.904  69.986  1.00  0.00    -0.358 A  
HETATM   16 BR   UNL     1     -11.852  15.883  71.833  1.00  0.00    -0.638 Br 
HETATM   17  C   UNL     1     -11.920  14.950  69.094  1.00  0.00    -0.278 A  
HETATM   18  N   UNL     1     -12.646  13.851  69.603  1.00  0.00    -0.344 NA 
HETATM   19  H1  UNL     1     -12.939  13.822  70.580  1.00  0.00     0.000 HD 
HETATM   20  H2  UNL     1     -12.116  13.003  69.406  1.00  0.00     0.000 HD 
ENDBRANCH   9  10
ENDBRANCH   2   9
TORSDOF 3
ENDMDL
MODEL       40
REMARK 921   NORMALIZED FREE ENERGY PREDICTED BY IDOCK:   -4.81 KCAL/MOL
REMARK 922        TOTAL FREE ENERGY PREDICTED BY IDOCK:   -6.28 KCAL/MOL
REMARK 923 INTER-LIGAND FREE ENERGY PREDICTED BY IDOCK:   -5.86 KCAL/MOL
REMARK 924 INTRA-LIGAND FREE ENERGY PREDICTED BY IDOCK:   -0.42 KCAL/MOL
REMARK 927      BINDING AFFINITY PREDICTED BY RF-SCORE:    0.00 PKD
ROOT
HETATM    1  C   UNL     1     -12.016  13.913  69.069  1.00  0.00    -0.364 C  
HETATM    2  N   UNL     1     -10.951  14.412  68.178  1.00  0.00    -0.247 NA 
ENDROOT
BRANCH   2   3
HETATM    3  C   UNL     1     -10.722  13.451  67.052  1.00  0.00    -0.268 C  
HETATM    4  C   UNL     1     -11.902  14.753  64.622  1.00  0.00    -0.442 C  
HETATM    5  C   UNL     1      -9.861  14.029  65.901  1.00  0.00    -0.302 C  
HETATM    6  C   UNL     1     -12.035  12.954  66.394  1.00  0.00    -0.462 C  
HETATM    7  C   UNL     1     -12.782  14.071  65.667  1.00  0.00    -0.515 C  
HETATM    8  C   UNL     1     -10.558  15.192  65.196  1.00  0.00    -0.447 C  
ENDBRANCH   2   3
BRANCH   2   9
HETATM    9  C   UNL     1      -9.697  14.627  68.951  1.00  0.00    -0.196 C  
BRANCH   9  10
HETATM   10  C   UNL     1      -8.997  15.969  68.773  1.00  0.00    -0.226 A  
HETATM   11  C   UNL     1      -7.663  18.450  68.578  1.00  0.00    -0.321 A  
HETATM   12 BR   UNL     1      -5.158  17.459  69.497  1.00  0.00    -0.171 Br 
HETATM   13  C   UNL     1      -7.646  16.107  69.156  1.00  0.00    -0.230 A  
HETATM   14  C   UNL     1      -6.985  17.328  69.032  1.00  0.00    -0.235 A  
HETATM   15  C   UNL     1      -9.015  18.342  68.255  1.00  0.00    -0.312 A  
HETATM   16 BR   UNL     1      -9.912  19.926  67.689  1.00  0.00    -0.578 Br 
HETATM   17  C   UNL     1      -9.702  17.108  68.317  1.00  0.00    -0.280 A  
HETATM   18  N   UNL     1     -11.104  17.082  68.159  1.00  0.00    -0.266 NA 
HETATM   19  H1  UNL     1     -11.613  17.904  67.830  1.00  0.00     0.000 HD 
HETATM   20  H2  UNL     1     -11.517  16.789  69.044  1.00  0.00     0.000 HD 
ENDBRANCH   9  10
ENDBRANCH   2   9
TORSDOF 3
ENDMDL
MODEL       41
REMARK 921   NORMALIZED FREE ENERGY PREDICTED BY IDOCK:   -4.81 KCAL/MOL
REMARK 922        TOTAL FREE ENERGY PREDICTED BY IDOCK:   -6.28 KCAL/MOL
REMARK 923 INTER-LIGAND FREE ENERGY PREDICTED BY IDOCK:   -5.73 KCAL/MOL
REMARK 924 INTRA-LIGAND FREE ENERGY PREDICTED BY IDOCK:   -0.55 KCAL/MOL
REMARK 927      BINDING AFFINITY PREDICTED BY RF-SCORE:    0.00 PKD
ROOT
HETATM    1  C   UNL     1     -11.707  14.029  70.197  1.00  0.00    -0.261 C  
HETATM    2  N   UNL     1     -11.374  13.564  68.838  1.00  0.00    -0.271 NA 
ENDROOT
BRANCH   2   3
HETATM    3  C   UNL     1     -11.849  14.555  67.818  1.00  0.00    -0.357 C  
HETATM    4  C   UNL     1      -9.544  14.953  65.940  1.00  0.00    -0.343 C  
HETATM    5  C   UNL     1     -11.838  14.013  66.367  1.00  0.00    -0.437 C  
HETATM    6  C   UNL     1     -11.009  15.858  67.793  1.00  0.00    -0.315 C  
HETATM    7  C   UNL     1      -9.577  15.620  67.314  1.00  0.00    -0.220 C  
HETATM    8  C   UNL     1     -10.422  13.705  65.883  1.00  0.00    -0.297 C  
ENDBRANCH   2   3
BRANCH   2   9
HETATM    9  C   UNL     1     -11.977  12.226  68.593  1.00  0.00    -0.227 C  
BRANCH   9  10
HETATM   10  C   UNL     1     -11.578  11.103  69.544  1.00  0.00    -0.392 A  
HETATM   11  C   UNL     1     -10.884   9.104  71.412  1.00  0.00    -0.419 A  
HETATM   12 BR   UNL     1     -13.480   8.930  72.567  1.00  0.00    -0.402 Br 
HETATM   13  C   UNL     1     -12.518  10.612  70.475  1.00  0.00    -0.445 A  
HETATM   14  C   UNL     1     -12.177   9.606  71.377  1.00  0.00    -0.385 A  
HETATM   15  C   UNL     1      -9.929   9.624  70.540  1.00  0.00    -0.254 A  
HETATM   16 BR   UNL     1      -8.155   8.938  70.669  1.00  0.00    -0.185 Br 
HETATM   17  C   UNL     1     -10.254  10.606  69.577  1.00  0.00    -0.158 A  
HETATM   18  N   UNL     1      -9.223  11.232  68.844  1.00  0.00    -0.366 NA 
HETATM   19  H1  UNL     1      -8.268  10.873  68.867  1.00  0.00     0.000 HD 
HETATM   20  H2  UNL     1      -9.198  12.216  69.110  1.00  0.00     0.000 HD 
ENDBRANCH   9  10
ENDBRANCH   2   9
TORSDOF 3
ENDMDL
MODEL       42
REMARK 921   NORMALIZED FREE ENERGY PREDICTED BY IDOCK:   -4.81 KCAL/MOL
REMARK 922        TOTAL FREE ENERGY PREDICTED BY IDOCK:   -6.28 KCAL/MOL
REMARK 923 INTER-LIGAND FREE ENERGY PREDICTED BY IDOCK:   -6.14 KCAL/MOL
REMARK 924 INTRA-LIGAND FREE ENERGY PREDICTED BY IDOCK:   -0.14 KCAL/MOL
REMARK 927      BINDING AFFINITY PREDICTED BY RF-SCORE:    0.00 PKD
ROOT
HETATM    1  C   UNL     1     -11.286  16.425  68.135  1.00  0.00    -0.273 C  
HETATM    2  N   UNL     1     -10.251  17.196  67.421  1.00  0.00    -0.312 NA 
ENDROOT
BRANCH   2   3
HETATM    3  C   UNL     1     -10.607  18.652  67.401  1.00  0.00    -0.441 C  
HETATM    4  C   UNL     1      -7.999  20.127  67.534  1.00  0.00    -0.352 C  
HETATM    5  C   UNL     1     -10.012  19.425  66.199  1.00  0.00    -0.501 C  
HETATM    6  C   UNL     1     -10.143  19.413  68.670  1.00  0.00    -0.515 C  
HETATM    7  C   UNL     1      -8.621  19.494  68.778  1.00  0.00    -0.336 C  
HETATM    8  C   UNL     1      -8.485  19.467  66.247  1.00  0.00    -0.370 C  
ENDBRANCH   2   3
BRANCH   2   9
HETATM    9  C   UNL     1     -10.088  16.675  66.037  1.00  0.00    -0.340 C  
BRANCH   9  10
HETATM   10  C   UNL     1      -9.995  15.162  65.875  1.00  0.00    -0.355 A  
HETATM   11  C   UNL     1      -9.956  12.351  65.611  1.00  0.00    -0.261 A  
HETATM   12 BR   UNL     1     -12.104  12.247  63.745  1.00  0.00    -0.661 Br 
HETATM   13  C   UNL     1     -10.923  14.490  65.052  1.00  0.00    -0.408 A  
HETATM   14  C   UNL     1     -10.883  13.105  64.904  1.00  0.00    -0.332 A  
HETATM   15  C   UNL     1      -9.073  12.996  66.475  1.00  0.00    -0.127 A  
HETATM   16 BR   UNL     1      -7.858  11.908  67.462  1.00  0.00    -0.162 Br 
HETATM   17  C   UNL     1      -9.051  14.403  66.607  1.00  0.00    -0.240 A  
HETATM   18  N   UNL     1      -8.271  14.996  67.624  1.00  0.00    -0.156 NA 
HETATM   19  H1  UNL     1      -7.591  14.449  68.152  1.00  0.00     0.000 HD 
HETATM   20  H2  UNL     1      -8.904  15.442  68.289  1.00  0.00     0.000 HD 
ENDBRANCH   9  10
ENDBRANCH   2   9
TORSDOF 3
ENDMDL
MODEL       43
REMARK 921   NORMALIZED FREE ENERGY PREDICTED BY IDOCK:   -4.80 KCAL/MOL
REMARK 922        TOTAL FREE ENERGY PREDICTED BY IDOCK:   -6.27 KCAL/MOL
REMARK 923 INTER-LIGAND FREE ENERGY PREDICTED BY IDOCK:   -6.04 KCAL/MOL
REMARK 924 INTRA-LIGAND FREE ENERGY PREDICTED BY IDOCK:   -0.23 KCAL/MOL
REMARK 927      BINDING AFFINITY PREDICTED BY RF-SCORE:    0.00 PKD
ROOT
HETATM    1  C   UNL     1     -10.623   9.823  67.159  1.00  0.00    -0.229 C  
HETATM    2  N   UNL     1     -11.057  11.204  67.435  1.00  0.00    -0.292 NA 
ENDROOT
BRANCH   2   3
HETATM    3  C   UNL     1     -10.399  12.157  66.484  1.00  0.00    -0.213 C  
HETATM    4  C   UNL     1     -12.596  13.916  65.447  1.00  0.00    -0.538 C  
HETATM    5  C   UNL     1     -10.550  13.646  66.885  1.00  0.00    -0.271 C  
HETATM    6  C   UNL     1     -10.941  12.049  65.035  1.00  0.00    -0.355 C  
HETATM    7  C   UNL     1     -12.398  12.495  64.922  1.00  0.00    -0.539 C  
HETATM    8  C   UNL     1     -12.007  14.103  66.842  1.00  0.00    -0.479 C  
ENDBRANCH   2   3
BRANCH   2   9
HETATM    9  C   UNL     1     -10.744  11.567  68.844  1.00  0.00    -0.207 C  
BRANCH   9  10
HETATM   10  C   UNL     1     -10.957  10.487  69.899  1.00  0.00    -0.359 A  
HETATM   11  C   UNL     1     -11.419   8.581  71.931  1.00  0.00    -0.405 A  
HETATM   12 BR   UNL     1     -14.244   8.931  71.963  1.00  0.00    -0.412 Br 
HETATM   13  C   UNL     1     -12.257  10.240  70.390  1.00  0.00    -0.346 A  
HETATM   14  C   UNL     1     -12.482   9.279  71.374  1.00  0.00    -0.341 A  
HETATM   15  C   UNL     1     -10.124   8.860  71.498  1.00  0.00    -0.324 A  
HETATM   16 BR   UNL     1      -8.696   7.914  72.335  1.00  0.00    -0.227 Br 
HETATM   17  C   UNL     1      -9.865   9.789  70.465  1.00  0.00    -0.163 A  
HETATM   18  N   UNL     1      -8.534  10.172  70.189  1.00  0.00    -0.337 NA 
HETATM   19  H1  UNL     1      -7.746   9.669  70.597  1.00  0.00     0.000 HD 
HETATM   20  H2  UNL     1      -8.434  11.160  70.424  1.00  0.00     0.000 HD 
ENDBRANCH   9  10
ENDBRANCH   2   9
TORSDOF 3
ENDMDL
MODEL       44
REMARK 921   NORMALIZED FREE ENERGY PREDICTED BY IDOCK:   -4.77 KCAL/MOL
REMARK 922        TOTAL FREE ENERGY PREDICTED BY IDOCK:   -6.23 KCAL/MOL
REMARK 923 INTER-LIGAND FREE ENERGY PREDICTED BY IDOCK:   -5.57 KCAL/MOL
REMARK 924 INTRA-LIGAND FREE ENERGY PREDICTED BY IDOCK:   -0.66 KCAL/MOL
REMARK 927      BINDING AFFINITY PREDICTED BY RF-SCORE:    0.00 PKD
ROOT
HETATM    1  C   UNL     1     -11.115  14.775  65.385  1.00  0.00    -0.357 C  
HETATM    2  N   UNL     1     -10.988  14.138  66.709  1.00  0.00    -0.296 NA 
ENDROOT
BRANCH   2   3
HETATM    3  C   UNL     1     -11.901  12.954  66.808  1.00  0.00    -0.385 C  
HETATM    4  C   UNL     1     -10.126  10.605  67.379  1.00  0.00    -0.231 C  
HETATM    5  C   UNL     1     -11.858  12.243  68.183  1.00  0.00    -0.372 C  
HETATM    6  C   UNL     1     -11.601  11.859  65.751  1.00  0.00    -0.281 C  
HETATM    7  C   UNL     1     -10.244  11.192  65.973  1.00  0.00    -0.300 C  
HETATM    8  C   UNL     1     -10.490  11.619  68.459  1.00  0.00    -0.236 C  
ENDBRANCH   2   3
BRANCH   2   9
HETATM    9  C   UNL     1     -11.287  15.125  67.782  1.00  0.00    -0.328 C  
BRANCH   9  10
HETATM   10  C   UNL     1     -10.219  16.172  68.076  1.00  0.00    -0.252 A  
HETATM   11  C   UNL     1      -8.243  18.147  68.484  1.00  0.00    -0.320 A  
HETATM   12 BR   UNL     1      -9.799  20.280  67.419  1.00  0.00    -0.580 Br 
HETATM   13  C   UNL     1     -10.427  17.510  67.679  1.00  0.00    -0.370 A  
HETATM   14  C   UNL     1      -9.459  18.487  67.908  1.00  0.00    -0.296 A  
HETATM   15  C   UNL     1      -8.000  16.817  68.823  1.00  0.00    -0.250 A  
HETATM   16 BR   UNL     1      -6.293  16.397  69.559  1.00  0.00    -0.202 Br 
HETATM   17  C   UNL     1      -8.980  15.812  68.655  1.00  0.00    -0.204 A  
HETATM   18  N   UNL     1      -8.628  14.458  68.839  1.00  0.00    -0.313 NA 
HETATM   19  H1  UNL     1      -7.734  14.198  69.257  1.00  0.00     0.000 HD 
HETATM   20  H2  UNL     1      -8.704  13.986  67.938  1.00  0.00     0.000 HD 
ENDBRANCH   9  10
ENDBRANCH   2   9
TORSDOF 3
ENDMDL
MODEL       45
REMARK 921   NORMALIZED FREE ENERGY PREDICTED BY IDOCK:   -4.76 KCAL/MOL
REMARK 922        TOTAL FREE ENERGY PREDICTED BY IDOCK:   -6.22 KCAL/MOL
REMARK 923 INTER-LIGAND FREE ENERGY PREDICTED BY IDOCK:   -5.74 KCAL/MOL
REMARK 924 INTRA-LIGAND FREE ENERGY PREDICTED BY IDOCK:   -0.47 KCAL/MOL
REMARK 927      BINDING AFFINITY PREDICTED BY RF-SCORE:    0.00 PKD
ROOT
HETATM    1  C   UNL     1     -10.119  18.429  68.792  1.00  0.00    -0.363 C  
HETATM    2  N   UNL     1      -9.997  17.037  68.321  1.00  0.00    -0.271 NA 
ENDROOT
BRANCH   2   3
HETATM    3  C   UNL     1      -9.237  16.988  67.030  1.00  0.00    -0.236 C  
HETATM    4  C   UNL     1      -6.635  15.641  67.672  1.00  0.00    -0.198 C  
HETATM    5  C   UNL     1      -8.891  15.552  66.562  1.00  0.00    -0.348 C  
HETATM    6  C   UNL     1      -7.891  17.756  67.083  1.00  0.00    -0.229 C  
HETATM    7  C   UNL     1      -6.885  17.105  68.030  1.00  0.00    -0.174 C  
HETATM    8  C   UNL     1      -7.934  14.853  67.527  1.00  0.00    -0.198 C  
ENDBRANCH   2   3
BRANCH   2   9
HETATM    9  C   UNL     1     -11.347  16.431  68.161  1.00  0.00    -0.205 C  
BRANCH   9  10
HETATM   10  C   UNL     1     -11.768  15.396  69.197  1.00  0.00    -0.364 A  
HETATM   11  C   UNL     1     -12.444  13.525  71.201  1.00  0.00    -0.424 A  
HETATM   12 BR   UNL     1     -12.814  15.471  73.245  1.00  0.00    -0.702 Br 
HETATM   13  C   UNL     1     -12.039  15.804  70.520  1.00  0.00    -0.407 A  
HETATM   14  C   UNL     1     -12.398  14.879  71.499  1.00  0.00    -0.339 A  
HETATM   15  C   UNL     1     -12.119  13.101  69.913  1.00  0.00    -0.287 A  
HETATM   16 BR   UNL     1     -12.144  11.226  69.572  1.00  0.00    -0.364 Br 
HETATM   17  C   UNL     1     -11.802  14.017  68.883  1.00  0.00    -0.355 A  
HETATM   18  N   UNL     1     -11.303  13.537  67.653  1.00  0.00    -0.282 NA 
HETATM   19  H1  UNL     1     -11.328  12.542  67.427  1.00  0.00     0.000 HD 
HETATM   20  H2  UNL     1     -10.341  13.860  67.555  1.00  0.00     0.000 HD 
ENDBRANCH   9  10
ENDBRANCH   2   9
TORSDOF 3
ENDMDL
MODEL       46
REMARK 921   NORMALIZED FREE ENERGY PREDICTED BY IDOCK:   -4.72 KCAL/MOL
REMARK 922        TOTAL FREE ENERGY PREDICTED BY IDOCK:   -6.18 KCAL/MOL
REMARK 923 INTER-LIGAND FREE ENERGY PREDICTED BY IDOCK:   -5.97 KCAL/MOL
REMARK 924 INTRA-LIGAND FREE ENERGY PREDICTED BY IDOCK:   -0.21 KCAL/MOL
REMARK 927      BINDING AFFINITY PREDICTED BY RF-SCORE:    0.00 PKD
ROOT
HETATM    1  C   UNL     1     -12.894  11.755  71.877  1.00  0.00    -0.232 C  
HETATM    2  N   UNL     1     -12.398  12.641  70.808  1.00  0.00    -0.353 NA 
ENDROOT
BRANCH   2   3
HETATM    3  C   UNL     1     -13.245  13.874  70.718  1.00  0.00    -0.067 C  
HETATM    4  C   UNL     1     -12.165  15.754  72.790  1.00  0.00    -0.577 C  
HETATM    5  C   UNL     1     -12.450  15.155  70.364  1.00  0.00    -0.416 C  
HETATM    6  C   UNL     1     -14.005  14.193  72.031  1.00  0.00    -0.604 C  
HETATM    7  C   UNL     1     -13.062  14.577  73.171  1.00  0.00    -0.553 C  
HETATM    8  C   UNL     1     -11.453  15.529  71.459  1.00  0.00    -0.489 C  
ENDBRANCH   2   3
BRANCH   2   9
HETATM    9  C   UNL     1     -12.385  11.916  69.508  1.00  0.00    -0.022 C  
BRANCH   9  10
HETATM   10  C   UNL     1     -11.404  12.410  68.451  1.00  0.00    -0.330 A  
HETATM   11  C   UNL     1      -9.668  13.266  66.395  1.00  0.00    -0.279 A  
HETATM   12 BR   UNL     1     -11.681  14.647  64.929  1.00  0.00    -0.406 Br 
HETATM   13  C   UNL     1     -11.881  13.155  67.352  1.00  0.00    -0.412 A  
HETATM   14  C   UNL     1     -11.015  13.598  66.354  1.00  0.00    -0.297 A  
HETATM   15  C   UNL     1      -9.195  12.478  67.443  1.00  0.00    -0.186 A  
HETATM   16 BR   UNL     1      -7.348  12.006  67.422  1.00  0.00    -0.158 Br 
HETATM   17  C   UNL     1     -10.034  12.058  68.500  1.00  0.00    -0.184 A  
HETATM   18  N   UNL     1      -9.558  11.115  69.436  1.00  0.00    -0.408 NA 
HETATM   19  H1  UNL     1      -8.570  10.861  69.471  1.00  0.00     0.000 HD 
HETATM   20  H2  UNL     1     -10.101  10.258  69.327  1.00  0.00     0.000 HD 
ENDBRANCH   9  10
ENDBRANCH   2   9
TORSDOF 3
ENDMDL
MODEL       47
REMARK 921   NORMALIZED FREE ENERGY PREDICTED BY IDOCK:   -4.71 KCAL/MOL
REMARK 922        TOTAL FREE ENERGY PREDICTED BY IDOCK:   -6.17 KCAL/MOL
REMARK 923 INTER-LIGAND FREE ENERGY PREDICTED BY IDOCK:   -6.01 KCAL/MOL
REMARK 924 INTRA-LIGAND FREE ENERGY PREDICTED BY IDOCK:   -0.16 KCAL/MOL
REMARK 927      BINDING AFFINITY PREDICTED BY RF-SCORE:    0.00 PKD
ROOT
HETATM    1  C   UNL     1     -10.897  15.547  64.836  1.00  0.00    -0.427 C  
HETATM    2  N   UNL     1     -10.225  14.395  65.465  1.00  0.00    -0.343 NA 
ENDROOT
BRANCH   2   3
HETATM    3  C   UNL     1     -11.214  13.307  65.752  1.00  0.00    -0.294 C  
HETATM    4  C   UNL     1     -10.531  11.073  63.872  1.00  0.00    -0.422 C  
HETATM    5  C   UNL     1     -10.567  11.979  66.218  1.00  0.00    -0.287 C  
HETATM    6  C   UNL     1     -12.098  12.946  64.530  1.00  0.00    -0.473 C  
HETATM    7  C   UNL     1     -11.295  12.308  63.397  1.00  0.00    -0.508 C  
HETATM    8  C   UNL     1      -9.705  11.351  65.124  1.00  0.00    -0.280 C  
ENDBRANCH   2   3
BRANCH   2   9
HETATM    9  C   UNL     1      -9.537  14.824  66.714  1.00  0.00    -0.254 C  
BRANCH   9  10
HETATM   10  C   UNL     1      -9.050  16.268  66.773  1.00  0.00    -0.257 A  
HETATM   11  C   UNL     1      -8.030  18.895  66.943  1.00  0.00    -0.266 A  
HETATM   12 BR   UNL     1      -5.634  18.325  65.514  1.00  0.00    -0.220 Br 
HETATM   13  C   UNL     1      -7.788  16.600  66.237  1.00  0.00    -0.309 A  
HETATM   14  C   UNL     1      -7.302  17.904  66.299  1.00  0.00    -0.292 A  
HETATM   15  C   UNL     1      -9.250  18.566  67.532  1.00  0.00    -0.279 A  
HETATM   16 BR   UNL     1     -10.183  19.952  68.451  1.00  0.00    -0.480 Br 
HETATM   17  C   UNL     1      -9.798  17.267  67.440  1.00  0.00    -0.272 A  
HETATM   18  N   UNL     1     -10.939  16.935  68.203  1.00  0.00    -0.346 NA 
HETATM   19  H1  UNL     1     -11.478  17.656  68.684  1.00  0.00     0.000 HD 
HETATM   20  H2  UNL     1     -10.666  16.233  68.890  1.00  0.00     0.000 HD 
ENDBRANCH   9  10
ENDBRANCH   2   9
TORSDOF 3
ENDMDL
MODEL       48
REMARK 921   NORMALIZED FREE ENERGY PREDICTED BY IDOCK:   -4.70 KCAL/MOL
REMARK 922        TOTAL FREE ENERGY PREDICTED BY IDOCK:   -6.16 KCAL/MOL
REMARK 923 INTER-LIGAND FREE ENERGY PREDICTED BY IDOCK:   -5.52 KCAL/MOL
REMARK 924 INTRA-LIGAND FREE ENERGY PREDICTED BY IDOCK:   -0.64 KCAL/MOL
REMARK 927      BINDING AFFINITY PREDICTED BY RF-SCORE:    0.00 PKD
ROOT
HETATM    1  C   UNL     1      -9.453  11.440  68.167  1.00  0.00    -0.181 C  
HETATM    2  N   UNL     1     -10.555  11.362  69.144  1.00  0.00    -0.194 NA 
ENDROOT
BRANCH   2   3
HETATM    3  C   UNL     1     -11.123   9.976  69.178  1.00  0.00    -0.190 C  
HETATM    4  C   UNL     1     -10.591   8.949  71.945  1.00  0.00    -0.419 C  
HETATM    5  C   UNL     1     -12.237   9.782  70.236  1.00  0.00    -0.051 C  
HETATM    6  C   UNL     1     -10.061   8.886  69.473  1.00  0.00    -0.198 C  
HETATM    7  C   UNL     1      -9.490   8.994  70.886  1.00  0.00    -0.331 C  
HETATM    8  C   UNL     1     -11.708   9.949  71.659  1.00  0.00    -0.327 C  
ENDBRANCH   2   3
BRANCH   2   9
HETATM    9  C   UNL     1     -11.610  12.355  68.804  1.00  0.00    -0.326 C  
BRANCH   9  10
HETATM   10  C   UNL     1     -11.562  13.692  69.537  1.00  0.00    -0.361 A  
HETATM   11  C   UNL     1     -11.614  16.164  70.900  1.00  0.00    -0.406 A  
HETATM   12 BR   UNL     1     -13.096  15.190  73.127  1.00  0.00    -0.646 Br 
HETATM   13  C   UNL     1     -12.236  13.836  70.768  1.00  0.00    -0.437 A  
HETATM   14  C   UNL     1     -12.235  15.051  71.450  1.00  0.00    -0.328 A  
HETATM   15  C   UNL     1     -10.998  16.051  69.654  1.00  0.00    -0.326 A  
HETATM   16 BR   UNL     1     -10.208  17.623  68.920  1.00  0.00    -0.293 Br 
HETATM   17  C   UNL     1     -10.933  14.821  68.961  1.00  0.00    -0.248 A  
HETATM   18  N   UNL     1     -10.465  14.794  67.630  1.00  0.00    -0.252 NA 
HETATM   19  H1  UNL     1     -10.011  15.608  67.215  1.00  0.00     0.000 HD 
HETATM   20  H2  UNL     1     -11.241  14.523  67.027  1.00  0.00     0.000 HD 
ENDBRANCH   9  10
ENDBRANCH   2   9
TORSDOF 3
ENDMDL
MODEL       49
REMARK 921   NORMALIZED FREE ENERGY PREDICTED BY IDOCK:   -4.69 KCAL/MOL
REMARK 922        TOTAL FREE ENERGY PREDICTED BY IDOCK:   -6.14 KCAL/MOL
REMARK 923 INTER-LIGAND FREE ENERGY PREDICTED BY IDOCK:   -5.60 KCAL/MOL
REMARK 924 INTRA-LIGAND FREE ENERGY PREDICTED BY IDOCK:   -0.54 KCAL/MOL
REMARK 927      BINDING AFFINITY PREDICTED BY RF-SCORE:    0.00 PKD
ROOT
HETATM    1  C   UNL     1      -9.914   9.853  66.113  1.00  0.00    -0.263 C  
HETATM    2  N   UNL     1     -10.171  11.173  66.717  1.00  0.00    -0.224 NA 
ENDROOT
BRANCH   2   3
HETATM    3  C   UNL     1      -9.912  12.261  65.721  1.00  0.00    -0.254 C  
HETATM    4  C   UNL     1     -12.448  13.856  65.583  1.00  0.00    -0.538 C  
HETATM    5  C   UNL     1     -10.045  13.690  66.306  1.00  0.00    -0.301 C  
HETATM    6  C   UNL     1     -10.863  12.211  64.498  1.00  0.00    -0.356 C  
HETATM    7  C   UNL     1     -12.314  12.509  64.874  1.00  0.00    -0.539 C  
HETATM    8  C   UNL     1     -11.475  13.993  66.750  1.00  0.00    -0.379 C  
ENDBRANCH   2   3
BRANCH   2   9
HETATM    9  C   UNL     1      -9.324  11.354  67.928  1.00  0.00    -0.164 C  
BRANCH   9  10
HETATM   10  C   UNL     1      -9.692  10.532  69.158  1.00  0.00    -0.226 A  
HETATM   11  C   UNL     1     -10.413   9.129  71.499  1.00  0.00    -0.422 A  
HETATM   12 BR   UNL     1     -13.095  10.084  71.546  1.00  0.00    -0.547 Br 
HETATM   13  C   UNL     1     -10.981  10.656  69.719  1.00  0.00    -0.340 A  
HETATM   14  C   UNL     1     -11.340   9.940  70.860  1.00  0.00    -0.370 A  
HETATM   15  C   UNL     1      -9.118   9.045  70.991  1.00  0.00    -0.257 A  
HETATM   16 BR   UNL     1      -7.871   7.960  71.940  1.00  0.00    -0.135 Br 
HETATM   17  C   UNL     1      -8.736   9.715  69.806  1.00  0.00    -0.208 A  
HETATM   18  N   UNL     1      -7.375   9.750  69.433  1.00  0.00    -0.079 NA 
HETATM   19  H1  UNL     1      -6.686   9.161  69.901  1.00  0.00     0.000 HD 
HETATM   20  H2  UNL     1      -7.056  10.717  69.491  1.00  0.00     0.000 HD 
ENDBRANCH   9  10
ENDBRANCH   2   9
TORSDOF 3
ENDMDL
MODEL       50
REMARK 921   NORMALIZED FREE ENERGY PREDICTED BY IDOCK:   -4.68 KCAL/MOL
REMARK 922        TOTAL FREE ENERGY PREDICTED BY IDOCK:   -6.13 KCAL/MOL
REMARK 923 INTER-LIGAND FREE ENERGY PREDICTED BY IDOCK:   -5.55 KCAL/MOL
REMARK 924 INTRA-LIGAND FREE ENERGY PREDICTED BY IDOCK:   -0.58 KCAL/MOL
REMARK 927      BINDING AFFINITY PREDICTED BY RF-SCORE:    0.00 PKD
ROOT
HETATM    1  C   UNL     1     -11.137  15.489  64.798  1.00  0.00    -0.407 C  
HETATM    2  N   UNL     1     -10.891  14.947  66.147  1.00  0.00    -0.321 NA 
ENDROOT
BRANCH   2   3
HETATM    3  C   UNL     1     -12.000  14.023  66.548  1.00  0.00    -0.444 C  
HETATM    4  C   UNL     1     -10.725  11.329  66.888  1.00  0.00    -0.319 C  
HETATM    5  C   UNL     1     -11.790  13.356  67.930  1.00  0.00    -0.392 C  
HETATM    6  C   UNL     1     -12.221  12.862  65.544  1.00  0.00    -0.527 C  
HETATM    7  C   UNL     1     -11.042  11.892  65.503  1.00  0.00    -0.356 C  
HETATM    8  C   UNL     1     -10.577  12.427  67.937  1.00  0.00    -0.231 C  
ENDBRANCH   2   3
BRANCH   2   9
HETATM    9  C   UNL     1     -10.754  16.060  67.127  1.00  0.00    -0.283 C  
BRANCH   9  10
HETATM   10  C   UNL     1      -9.363  16.659  67.301  1.00  0.00    -0.234 A  
HETATM   11  C   UNL     1      -6.810  17.774  67.761  1.00  0.00    -0.187 A  
HETATM   12 BR   UNL     1      -5.980  15.751  69.584  1.00  0.00    -0.156 Br 
HETATM   13  C   UNL     1      -8.457  16.067  68.206  1.00  0.00    -0.177 A  
HETATM   14  C   UNL     1      -7.188  16.607  68.409  1.00  0.00    -0.173 A  
HETATM   15  C   UNL     1      -7.718  18.403  66.911  1.00  0.00    -0.224 A  
HETATM   16 BR   UNL     1      -7.167  20.033  66.090  1.00  0.00    -0.322 Br 
HETATM   17  C   UNL     1      -8.992  17.855  66.641  1.00  0.00    -0.268 A  
HETATM   18  N   UNL     1      -9.941  18.615  65.924  1.00  0.00    -0.526 NA 
HETATM   19  H1  UNL     1      -9.674  19.477  65.448  1.00  0.00     0.000 HD 
HETATM   20  H2  UNL     1     -10.716  18.828  66.552  1.00  0.00     0.000 HD 
ENDBRANCH   9  10
ENDBRANCH   2   9
TORSDOF 3
ENDMDL
MODEL       51
REMARK 921   NORMALIZED FREE ENERGY PREDICTED BY IDOCK:   -4.68 KCAL/MOL
REMARK 922        TOTAL FREE ENERGY PREDICTED BY IDOCK:   -6.13 KCAL/MOL
REMARK 923 INTER-LIGAND FREE ENERGY PREDICTED BY IDOCK:   -5.41 KCAL/MOL
REMARK 924 INTRA-LIGAND FREE ENERGY PREDICTED BY IDOCK:   -0.72 KCAL/MOL
REMARK 927      BINDING AFFINITY PREDICTED BY RF-SCORE:    0.00 PKD
ROOT
HETATM    1  C   UNL     1      -9.466   9.043  67.644  1.00  0.00    -0.140 C  
HETATM    2  N   UNL     1      -9.903  10.333  68.211  1.00  0.00    -0.144 NA 
ENDROOT
BRANCH   2   3
HETATM    3  C   UNL     1      -9.376  11.469  67.388  1.00  0.00    -0.166 C  
HETATM    4  C   UNL     1     -11.731  13.251  66.866  1.00  0.00    -0.437 C  
HETATM    5  C   UNL     1      -9.549  12.857  68.053  1.00  0.00    -0.221 C  
HETATM    6  C   UNL     1     -10.047  11.577  65.994  1.00  0.00    -0.270 C  
HETATM    7  C   UNL     1     -11.526  11.954  66.086  1.00  0.00    -0.352 C  
HETATM    8  C   UNL     1     -11.021  13.232  68.217  1.00  0.00    -0.280 C  
ENDBRANCH   2   3
BRANCH   2   9
HETATM    9  C   UNL     1      -9.447  10.451  69.623  1.00  0.00    -0.086 C  
BRANCH   9  10
HETATM   10  C   UNL     1     -10.196   9.623  70.662  1.00  0.00    -0.346 A  
HETATM   11  C   UNL     1     -11.517   7.977  72.537  1.00  0.00    -0.471 A  
HETATM   12 BR   UNL     1      -9.129   6.898  73.649  1.00  0.00    -0.200 Br 
HETATM   13  C   UNL     1      -9.475   8.771  71.525  1.00  0.00    -0.341 A  
HETATM   14  C   UNL     1     -10.131   7.981  72.467  1.00  0.00    -0.278 A  
HETATM   15  C   UNL     1     -12.244   8.767  71.648  1.00  0.00    -0.339 A  
HETATM   16 BR   UNL     1     -14.146   8.682  71.749  1.00  0.00    -0.488 Br 
HETATM   17  C   UNL     1     -11.610   9.621  70.717  1.00  0.00    -0.321 A  
HETATM   18  N   UNL     1     -12.378  10.259  69.720  1.00  0.00    -0.531 NA 
HETATM   19  H1  UNL     1     -13.398  10.258  69.759  1.00  0.00     0.000 HD 
HETATM   20  H2  UNL     1     -12.097   9.884  68.814  1.00  0.00     0.000 HD 
ENDBRANCH   9  10
ENDBRANCH   2   9
TORSDOF 3
ENDMDL
MODEL       52
REMARK 921   NORMALIZED FREE ENERGY PREDICTED BY IDOCK:   -4.64 KCAL/MOL
REMARK 922        TOTAL FREE ENERGY PREDICTED BY IDOCK:   -6.08 KCAL/MOL
REMARK 923 INTER-LIGAND FREE ENERGY PREDICTED BY IDOCK:   -5.54 KCAL/MOL
REMARK 924 INTRA-LIGAND FREE ENERGY PREDICTED BY IDOCK:   -0.54 KCAL/MOL
REMARK 927      BINDING AFFINITY PREDICTED BY RF-SCORE:    0.00 PKD
ROOT
HETATM    1  C   UNL     1     -12.071  13.365  70.222  1.00  0.00    -0.349 C  
HETATM    2  N   UNL     1     -11.541  12.805  68.965  1.00  0.00    -0.297 NA 
ENDROOT
BRANCH   2   3
HETATM    3  C   UNL     1     -12.115  13.532  67.788  1.00  0.00    -0.280 C  
HETATM    4  C   UNL     1      -9.775  14.230  66.046  1.00  0.00    -0.312 C  
HETATM    5  C   UNL     1     -11.837  12.842  66.429  1.00  0.00    -0.472 C  
HETATM    6  C   UNL     1     -11.584  14.982  67.645  1.00  0.00    -0.327 C  
HETATM    7  C   UNL     1     -10.094  15.028  67.310  1.00  0.00    -0.235 C  
HETATM    8  C   UNL     1     -10.346  12.816  66.097  1.00  0.00    -0.283 C  
ENDBRANCH   2   3
BRANCH   2   9
HETATM    9  C   UNL     1     -11.847  11.350  68.885  1.00  0.00    -0.347 C  
BRANCH   9  10
HETATM   10  C   UNL     1     -10.990  10.417  69.734  1.00  0.00    -0.345 A  
HETATM   11  C   UNL     1      -9.363   8.625  71.187  1.00  0.00    -0.274 A  
HETATM   12 BR   UNL     1      -6.971   9.264  69.781  1.00  0.00    -0.064 Br 
HETATM   13  C   UNL     1      -9.620  10.263  69.434  1.00  0.00    -0.237 A  
HETATM   14  C   UNL     1      -8.816   9.397  70.172  1.00  0.00    -0.223 A  
HETATM   15  C   UNL     1     -10.728   8.721  71.453  1.00  0.00    -0.286 A  
HETATM   16 BR   UNL     1     -11.438   7.598  72.819  1.00  0.00    -0.343 Br 
HETATM   17  C   UNL     1     -11.562   9.628  70.760  1.00  0.00    -0.321 A  
HETATM   18  N   UNL     1     -12.961   9.561  70.933  1.00  0.00    -0.543 NA 
HETATM   19  H1  UNL     1     -13.373   8.992  71.674  1.00  0.00     0.000 HD 
HETATM   20  H2  UNL     1     -13.376   9.275  70.046  1.00  0.00     0.000 HD 
ENDBRANCH   9  10
ENDBRANCH   2   9
TORSDOF 3
ENDMDL
MODEL       53
REMARK 921   NORMALIZED FREE ENERGY PREDICTED BY IDOCK:   -4.62 KCAL/MOL
REMARK 922        TOTAL FREE ENERGY PREDICTED BY IDOCK:   -6.06 KCAL/MOL
REMARK 923 INTER-LIGAND FREE ENERGY PREDICTED BY IDOCK:   -5.32 KCAL/MOL
REMARK 924 INTRA-LIGAND FREE ENERGY PREDICTED BY IDOCK:   -0.75 KCAL/MOL
REMARK 927      BINDING AFFINITY PREDICTED BY RF-SCORE:    0.00 PKD
ROOT
HETATM    1  C   UNL     1      -9.730  13.032  67.884  1.00  0.00    -0.218 C  
HETATM    2  N   UNL     1     -10.649  13.011  66.731  1.00  0.00    -0.261 NA 
ENDROOT
BRANCH   2   3
HETATM    3  C   UNL     1     -11.706  14.061  66.889  1.00  0.00    -0.410 C  
HETATM    4  C   UNL     1     -11.389  15.891  64.533  1.00  0.00    -0.316 C  
HETATM    5  C   UNL     1     -12.717  14.112  65.716  1.00  0.00    -0.443 C  
HETATM    6  C   UNL     1     -11.130  15.495  67.017  1.00  0.00    -0.238 C  
HETATM    7  C   UNL     1     -10.448  15.968  65.734  1.00  0.00    -0.391 C  
HETATM    8  C   UNL     1     -12.050  14.521  64.404  1.00  0.00    -0.492 C  
ENDBRANCH   2   3
BRANCH   2   9
HETATM    9  C   UNL     1     -11.263  11.663  66.591  1.00  0.00    -0.299 C  
BRANCH   9  10
HETATM   10  C   UNL     1     -10.375  10.553  66.040  1.00  0.00    -0.279 A  
HETATM   11  C   UNL     1      -8.659   8.498  65.142  1.00  0.00    -0.179 A  
HETATM   12 BR   UNL     1      -9.200   6.750  67.324  1.00  0.00    -0.151 Br 
HETATM   13  C   UNL     1     -10.195   9.369  66.787  1.00  0.00    -0.320 A  
HETATM   14  C   UNL     1      -9.368   8.347  66.326  1.00  0.00    -0.219 A  
HETATM   15  C   UNL     1      -8.779   9.688  64.426  1.00  0.00    -0.205 A  
HETATM   16 BR   UNL     1      -7.741   9.865  62.837  1.00  0.00    -0.138 Br 
HETATM   17  C   UNL     1      -9.650  10.722  64.837  1.00  0.00    -0.256 A  
HETATM   18  N   UNL     1      -9.602  11.974  64.186  1.00  0.00    -0.502 NA 
HETATM   19  H1  UNL     1      -9.080  12.096  63.318  1.00  0.00     0.000 HD 
HETATM   20  H2  UNL     1      -9.268  12.666  64.856  1.00  0.00     0.000 HD 
ENDBRANCH   9  10
ENDBRANCH   2   9
TORSDOF 3
ENDMDL
MODEL       54
REMARK 921   NORMALIZED FREE ENERGY PREDICTED BY IDOCK:   -4.62 KCAL/MOL
REMARK 922        TOTAL FREE ENERGY PREDICTED BY IDOCK:   -6.06 KCAL/MOL
REMARK 923 INTER-LIGAND FREE ENERGY PREDICTED BY IDOCK:   -5.36 KCAL/MOL
REMARK 924 INTRA-LIGAND FREE ENERGY PREDICTED BY IDOCK:   -0.70 KCAL/MOL
REMARK 927      BINDING AFFINITY PREDICTED BY RF-SCORE:    0.00 PKD
ROOT
HETATM    1  C   UNL     1      -8.303   8.049  69.417  1.00  0.00    -0.131 C  
HETATM    2  N   UNL     1      -9.772   7.957  69.498  1.00  0.00    -0.171 NA 
ENDROOT
BRANCH   2   3
HETATM    3  C   UNL     1     -10.175   6.823  70.391  1.00  0.00    -0.192 C  
HETATM    4  C   UNL     1     -11.876   8.044  72.537  1.00  0.00    -0.419 C  
HETATM    5  C   UNL     1     -11.706   6.609  70.479  1.00  0.00    -0.453 C  
HETATM    6  C   UNL     1      -9.683   6.989  71.852  1.00  0.00    -0.166 C  
HETATM    7  C   UNL     1     -10.353   8.163  72.564  1.00  0.00    -0.401 C  
HETATM    8  C   UNL     1     -12.412   7.797  71.130  1.00  0.00    -0.245 C  
ENDBRANCH   2   3
BRANCH   2   9
HETATM    9  C   UNL     1     -10.350   7.787  68.137  1.00  0.00    -0.200 C  
BRANCH   9  10
HETATM   10  C   UNL     1     -10.468   9.039  67.275  1.00  0.00    -0.343 A  
HETATM   11  C   UNL     1     -10.546  11.355  65.662  1.00  0.00    -0.314 A  
HETATM   12 BR   UNL     1      -9.220  10.159  63.444  1.00  0.00    -0.337 Br 
HETATM   13  C   UNL     1      -9.888   9.056  65.989  1.00  0.00    -0.312 A  
HETATM   14  C   UNL     1      -9.954  10.193  65.186  1.00  0.00    -0.309 A  
HETATM   15  C   UNL     1     -11.068  11.371  66.954  1.00  0.00    -0.295 A  
HETATM   16 BR   UNL     1     -11.821  13.007  67.578  1.00  0.00    -0.379 Br 
HETATM   17  C   UNL     1     -11.066  10.219  67.775  1.00  0.00    -0.269 A  
HETATM   18  N   UNL     1     -11.436  10.330  69.133  1.00  0.00    -0.426 NA 
HETATM   19  H1  UNL     1     -11.868  11.182  69.493  1.00  0.00     0.000 HD 
HETATM   20  H2  UNL     1     -10.613  10.128  69.701  1.00  0.00     0.000 HD 
ENDBRANCH   9  10
ENDBRANCH   2   9
TORSDOF 3
ENDMDL
MODEL       55
REMARK 921   NORMALIZED FREE ENERGY PREDICTED BY IDOCK:   -4.58 KCAL/MOL
REMARK 922        TOTAL FREE ENERGY PREDICTED BY IDOCK:   -6.02 KCAL/MOL
REMARK 923 INTER-LIGAND FREE ENERGY PREDICTED BY IDOCK:   -5.49 KCAL/MOL
REMARK 924 INTRA-LIGAND FREE ENERGY PREDICTED BY IDOCK:   -0.53 KCAL/MOL
REMARK 927      BINDING AFFINITY PREDICTED BY RF-SCORE:    0.00 PKD
ROOT
HETATM    1  C   UNL     1     -12.017  15.167  64.747  1.00  0.00    -0.250 C  
HETATM    2  N   UNL     1     -11.264  14.196  65.563  1.00  0.00    -0.310 NA 
ENDROOT
BRANCH   2   3
HETATM    3  C   UNL     1     -12.018  12.906  65.666  1.00  0.00    -0.440 C  
HETATM    4  C   UNL     1     -10.341  10.871  64.237  1.00  0.00    -0.436 C  
HETATM    5  C   UNL     1     -11.242  11.784  66.400  1.00  0.00    -0.382 C  
HETATM    6  C   UNL     1     -12.415  12.317  64.288  1.00  0.00    -0.508 C  
HETATM    7  C   UNL     1     -11.202  11.874  63.471  1.00  0.00    -0.501 C  
HETATM    8  C   UNL     1      -9.987  11.364  65.637  1.00  0.00    -0.282 C  
ENDBRANCH   2   3
BRANCH   2   9
HETATM    9  C   UNL     1     -11.000  14.761  66.915  1.00  0.00    -0.328 C  
BRANCH   9  10
HETATM   10  C   UNL     1      -9.566  15.177  67.222  1.00  0.00    -0.211 A  
HETATM   11  C   UNL     1      -6.882  15.938  67.654  1.00  0.00    -0.191 A  
HETATM   12 BR   UNL     1      -6.951  18.133  65.841  1.00  0.00    -0.286 Br 
HETATM   13  C   UNL     1      -8.988  16.256  66.520  1.00  0.00    -0.313 A  
HETATM   14  C   UNL     1      -7.671  16.644  66.756  1.00  0.00    -0.257 A  
HETATM   15  C   UNL     1      -7.421  14.832  68.308  1.00  0.00    -0.115 A  
HETATM   16 BR   UNL     1      -6.277  13.866  69.488  1.00  0.00    -0.120 Br 
HETATM   17  C   UNL     1      -8.769  14.444  68.132  1.00  0.00    -0.175 A  
HETATM   18  N   UNL     1      -9.217  13.218  68.670  1.00  0.00    -0.385 NA 
HETATM   19  H1  UNL     1      -8.642  12.690  69.326  1.00  0.00     0.000 HD 
HETATM   20  H2  UNL     1      -9.458  12.602  67.893  1.00  0.00     0.000 HD 
ENDBRANCH   9  10
ENDBRANCH   2   9
TORSDOF 3
ENDMDL
MODEL       56
REMARK 921   NORMALIZED FREE ENERGY PREDICTED BY IDOCK:   -4.58 KCAL/MOL
REMARK 922        TOTAL FREE ENERGY PREDICTED BY IDOCK:   -6.01 KCAL/MOL
REMARK 923 INTER-LIGAND FREE ENERGY PREDICTED BY IDOCK:   -5.63 KCAL/MOL
REMARK 924 INTRA-LIGAND FREE ENERGY PREDICTED BY IDOCK:   -0.38 KCAL/MOL
REMARK 927      BINDING AFFINITY PREDICTED BY RF-SCORE:    0.00 PKD
ROOT
HETATM    1  C   UNL     1     -11.415   6.242  69.958  1.00  0.00    -0.390 C  
HETATM    2  N   UNL     1     -11.221   7.243  71.023  1.00  0.00    -0.259 NA 
ENDROOT
BRANCH   2   3
HETATM    3  C   UNL     1     -10.963   6.565  72.334  1.00  0.00    -0.246 C  
HETATM    4  C   UNL     1      -8.044   6.968  72.895  1.00  0.00    -0.117 C  
HETATM    5  C   UNL     1     -10.438   7.516  73.438  1.00  0.00    -0.404 C  
HETATM    6  C   UNL     1      -9.927   5.415  72.235  1.00  0.00    -0.219 C  
HETATM    7  C   UNL     1      -8.526   5.919  71.894  1.00  0.00    -0.126 C  
HETATM    8  C   UNL     1      -9.063   8.086  73.094  1.00  0.00    -0.341 C  
ENDBRANCH   2   3
BRANCH   2   9
HETATM    9  C   UNL     1     -12.412   8.130  71.115  1.00  0.00    -0.182 C  
BRANCH   9  10
HETATM   10  C   UNL     1     -12.207   9.601  70.770  1.00  0.00    -0.309 A  
HETATM   11  C   UNL     1     -11.967  12.340  70.127  1.00  0.00    -0.377 A  
HETATM   12 BR   UNL     1     -13.538  13.249  72.321  1.00  0.00    -0.669 Br 
HETATM   13  C   UNL     1     -12.853  10.593  71.538  1.00  0.00    -0.567 A  
HETATM   14  C   UNL     1     -12.709  11.945  71.232  1.00  0.00    -0.298 A  
HETATM   15  C   UNL     1     -11.375  11.366  69.324  1.00  0.00    -0.289 A  
HETATM   16 BR   UNL     1     -10.415  11.960  67.788  1.00  0.00    -0.237 Br 
HETATM   17  C   UNL     1     -11.457   9.990  69.636  1.00  0.00    -0.155 A  
HETATM   18  N   UNL     1     -11.002   9.035  68.701  1.00  0.00    -0.448 NA 
HETATM   19  H1  UNL     1     -10.460   9.316  67.883  1.00  0.00     0.000 HD 
HETATM   20  H2  UNL     1     -11.808   8.500  68.378  1.00  0.00     0.000 HD 
ENDBRANCH   9  10
ENDBRANCH   2   9
TORSDOF 3
ENDMDL
MODEL       57
REMARK 921   NORMALIZED FREE ENERGY PREDICTED BY IDOCK:   -4.58 KCAL/MOL
REMARK 922        TOTAL FREE ENERGY PREDICTED BY IDOCK:   -6.01 KCAL/MOL
REMARK 923 INTER-LIGAND FREE ENERGY PREDICTED BY IDOCK:   -5.53 KCAL/MOL
REMARK 924 INTRA-LIGAND FREE ENERGY PREDICTED BY IDOCK:   -0.48 KCAL/MOL
REMARK 927      BINDING AFFINITY PREDICTED BY RF-SCORE:    0.00 PKD
ROOT
HETATM    1  C   UNL     1     -10.755  10.881  66.862  1.00  0.00    -0.264 C  
HETATM    2  N   UNL     1     -10.611  12.325  66.597  1.00  0.00    -0.225 NA 
ENDROOT
BRANCH   2   3
HETATM    3  C   UNL     1     -10.121  12.551  65.199  1.00  0.00    -0.246 C  
HETATM    4  C   UNL     1     -12.525  13.416  63.627  1.00  0.00    -0.316 C  
HETATM    5  C   UNL     1     -10.323  14.001  64.693  1.00  0.00    -0.337 C  
HETATM    6  C   UNL     1     -10.808  11.635  64.153  1.00  0.00    -0.433 C  
HETATM    7  C   UNL     1     -12.294  11.950  63.989  1.00  0.00    -0.432 C  
HETATM    8  C   UNL     1     -11.802  14.365  64.579  1.00  0.00    -0.463 C  
ENDBRANCH   2   3
BRANCH   2   9
HETATM    9  C   UNL     1      -9.682  12.936  67.586  1.00  0.00    -0.212 C  
BRANCH   9  10
HETATM   10  C   UNL     1     -10.210  14.120  68.390  1.00  0.00    -0.247 A  
HETATM   11  C   UNL     1     -11.315  16.284  69.827  1.00  0.00    -0.265 A  
HETATM   12 BR   UNL     1     -13.257  14.711  71.191  1.00  0.00    -0.437 Br 
HETATM   13  C   UNL     1     -11.305  13.938  69.260  1.00  0.00    -0.321 A  
HETATM   14  C   UNL     1     -11.830  15.005  69.988  1.00  0.00    -0.319 A  
HETATM   15  C   UNL     1     -10.274  16.488  68.924  1.00  0.00    -0.268 A  
HETATM   16 BR   UNL     1      -9.642  18.273  68.702  1.00  0.00    -0.341 Br 
HETATM   17  C   UNL     1      -9.683  15.420  68.211  1.00  0.00    -0.209 A  
HETATM   18  N   UNL     1      -8.762  15.697  67.178  1.00  0.00    -0.196 NA 
HETATM   19  H1  UNL     1      -8.381  16.635  67.049  1.00  0.00     0.000 HD 
HETATM   20  H2  UNL     1      -9.178  15.400  66.295  1.00  0.00     0.000 HD 
ENDBRANCH   9  10
ENDBRANCH   2   9
TORSDOF 3
ENDMDL
MODEL       58
REMARK 921   NORMALIZED FREE ENERGY PREDICTED BY IDOCK:   -4.57 KCAL/MOL
REMARK 922        TOTAL FREE ENERGY PREDICTED BY IDOCK:   -6.00 KCAL/MOL
REMARK 923 INTER-LIGAND FREE ENERGY PREDICTED BY IDOCK:   -5.47 KCAL/MOL
REMARK 924 INTRA-LIGAND FREE ENERGY PREDICTED BY IDOCK:   -0.53 KCAL/MOL
REMARK 927      BINDING AFFINITY PREDICTED BY RF-SCORE:    0.00 PKD
ROOT
HETATM    1  C   UNL     1     -13.287  12.689  72.155  1.00  0.00    -0.466 C  
HETATM    2  N   UNL     1     -12.432  12.728  70.955  1.00  0.00    -0.345 NA 
ENDROOT
BRANCH   2   3
HETATM    3  C   UNL     1     -12.856  13.843  70.049  1.00  0.00     0.098 C  
HETATM    4  C   UNL     1     -10.532  15.736  69.949  1.00  0.00    -0.324 C  
HETATM    5  C   UNL     1     -11.957  14.012  68.799  1.00  0.00    -0.382 C  
HETATM    6  C   UNL     1     -12.877  15.227  70.749  1.00  0.00    -0.494 C  
HETATM    7  C   UNL     1     -11.479  15.700  71.148  1.00  0.00    -0.463 C  
HETATM    8  C   UNL     1     -10.533  14.423  69.172  1.00  0.00    -0.199 C  
ENDBRANCH   2   3
BRANCH   2   9
HETATM    9  C   UNL     1     -12.489  11.421  70.244  1.00  0.00    -0.232 C  
BRANCH   9  10
HETATM   10  C   UNL     1     -11.398  10.408  70.573  1.00  0.00    -0.424 A  
HETATM   11  C   UNL     1      -9.388   8.484  71.050  1.00  0.00    -0.231 A  
HETATM   12 BR   UNL     1      -7.698   9.359  68.933  1.00  0.00    -0.077 Br 
HETATM   13  C   UNL     1     -10.251  10.328  69.755  1.00  0.00    -0.262 A  
HETATM   14  C   UNL     1      -9.249   9.394  70.012  1.00  0.00    -0.220 A  
HETATM   15  C   UNL     1     -10.545   8.511  71.826  1.00  0.00    -0.301 A  
HETATM   16 BR   UNL     1     -10.710   7.202  73.203  1.00  0.00    -0.403 Br 
HETATM   17  C   UNL     1     -11.556   9.479  71.628  1.00  0.00    -0.381 A  
HETATM   18  N   UNL     1     -12.784   9.355  72.312  1.00  0.00    -0.366 NA 
HETATM   19  H1  UNL     1     -12.898   8.685  73.073  1.00  0.00     0.000 HD 
HETATM   20  H2  UNL     1     -13.514   9.176  71.622  1.00  0.00     0.000 HD 
ENDBRANCH   9  10
ENDBRANCH   2   9
TORSDOF 3
ENDMDL
MODEL       59
REMARK 921   NORMALIZED FREE ENERGY PREDICTED BY IDOCK:   -4.54 KCAL/MOL
REMARK 922        TOTAL FREE ENERGY PREDICTED BY IDOCK:   -5.96 KCAL/MOL
REMARK 923 INTER-LIGAND FREE ENERGY PREDICTED BY IDOCK:   -5.46 KCAL/MOL
REMARK 924 INTRA-LIGAND FREE ENERGY PREDICTED BY IDOCK:   -0.50 KCAL/MOL
REMARK 927      BINDING AFFINITY PREDICTED BY RF-SCORE:    0.00 PKD
ROOT
HETATM    1  C   UNL     1      -9.519  10.973  68.817  1.00  0.00    -0.183 C  
HETATM    2  N   UNL     1     -10.735  10.722  69.612  1.00  0.00    -0.234 NA 
ENDROOT
BRANCH   2   3
HETATM    3  C   UNL     1     -11.056   9.259  69.626  1.00  0.00    -0.116 C  
HETATM    4  C   UNL     1     -10.204   8.268  72.326  1.00  0.00    -0.375 C  
HETATM    5  C   UNL     1     -12.061   8.849  70.731  1.00  0.00    -0.143 C  
HETATM    6  C   UNL     1      -9.809   8.361  69.829  1.00  0.00    -0.187 C  
HETATM    7  C   UNL     1      -9.188   8.529  71.215  1.00  0.00    -0.256 C  
HETATM    8  C   UNL     1     -11.489   9.067  72.131  1.00  0.00    -0.328 C  
ENDBRANCH   2   3
BRANCH   2   9
HETATM    9  C   UNL     1     -11.875  11.506  69.063  1.00  0.00    -0.343 C  
BRANCH   9  10
HETATM   10  C   UNL     1     -12.025  12.943  69.551  1.00  0.00    -0.346 A  
HETATM   11  C   UNL     1     -12.163  15.617  70.447  1.00  0.00    -0.429 A  
HETATM   12 BR   UNL     1     -10.799  16.704  68.197  1.00  0.00    -0.323 Br 
HETATM   13  C   UNL     1     -11.443  13.994  68.812  1.00  0.00    -0.327 A  
HETATM   14  C   UNL     1     -11.537  15.315  69.246  1.00  0.00    -0.332 A  
HETATM   15  C   UNL     1     -12.688  14.581  71.218  1.00  0.00    -0.342 A  
HETATM   16 BR   UNL     1     -13.488  15.044  72.885  1.00  0.00    -0.543 Br 
HETATM   17  C   UNL     1     -12.657  13.236  70.782  1.00  0.00    -0.280 A  
HETATM   18  N   UNL     1     -13.033  12.207  71.672  1.00  0.00    -0.378 NA 
HETATM   19  H1  UNL     1     -13.490  12.418  72.560  1.00  0.00     0.000 HD 
HETATM   20  H2  UNL     1     -12.207  11.641  71.868  1.00  0.00     0.000 HD 
ENDBRANCH   9  10
ENDBRANCH   2   9
TORSDOF 3
ENDMDL
MODEL       60
REMARK 921   NORMALIZED FREE ENERGY PREDICTED BY IDOCK:   -4.53 KCAL/MOL
REMARK 922        TOTAL FREE ENERGY PREDICTED BY IDOCK:   -5.95 KCAL/MOL
REMARK 923 INTER-LIGAND FREE ENERGY PREDICTED BY IDOCK:   -5.59 KCAL/MOL
REMARK 924 INTRA-LIGAND FREE ENERGY PREDICTED BY IDOCK:   -0.36 KCAL/MOL
REMARK 927      BINDING AFFINITY PREDICTED BY RF-SCORE:    0.00 PKD
ROOT
HETATM    1  C   UNL     1     -11.895  12.462  66.435  1.00  0.00    -0.354 C  
HETATM    2  N   UNL     1     -11.173  12.047  67.652  1.00  0.00    -0.262 NA 
ENDROOT
BRANCH   2   3
HETATM    3  C   UNL     1     -10.749  10.614  67.543  1.00  0.00    -0.272 C  
HETATM    4  C   UNL     1      -7.750  10.655  67.538  1.00  0.00    -0.101 C  
HETATM    5  C   UNL     1      -9.895  10.121  68.737  1.00  0.00    -0.180 C  
HETATM    6  C   UNL     1      -9.913  10.319  66.271  1.00  0.00    -0.295 C  
HETATM    7  C   UNL     1      -8.554  11.018  66.290  1.00  0.00    -0.167 C  
HETATM    8  C   UNL     1      -8.554  10.849  68.820  1.00  0.00    -0.159 C  
ENDBRANCH   2   3
BRANCH   2   9
HETATM    9  C   UNL     1     -12.033  12.251  68.851  1.00  0.00    -0.248 C  
BRANCH   9  10
HETATM   10  C   UNL     1     -11.919  13.595  69.561  1.00  0.00    -0.397 A  
HETATM   11  C   UNL     1     -11.569  16.080  70.856  1.00  0.00    -0.453 A  
HETATM   12 BR   UNL     1     -10.256  17.324  68.657  1.00  0.00    -0.367 Br 
HETATM   13  C   UNL     1     -11.249  14.664  68.928  1.00  0.00    -0.285 A  
HETATM   14  C   UNL     1     -11.104  15.897  69.561  1.00  0.00    -0.315 A  
HETATM   15  C   UNL     1     -12.177  15.014  71.516  1.00  0.00    -0.337 A  
HETATM   16 BR   UNL     1     -12.748  15.303  73.312  1.00  0.00    -0.699 Br 
HETATM   17  C   UNL     1     -12.389  13.767  70.884  1.00  0.00    -0.380 A  
HETATM   18  N   UNL     1     -12.839  12.667  71.646  1.00  0.00    -0.314 NA 
HETATM   19  H1  UNL     1     -13.178  12.791  72.600  1.00  0.00     0.000 HD 
HETATM   20  H2  UNL     1     -12.095  11.969  71.663  1.00  0.00     0.000 HD 
ENDBRANCH   9  10
ENDBRANCH   2   9
TORSDOF 3
ENDMDL
MODEL       61
REMARK 921   NORMALIZED FREE ENERGY PREDICTED BY IDOCK:   -4.50 KCAL/MOL
REMARK 922        TOTAL FREE ENERGY PREDICTED BY IDOCK:   -5.92 KCAL/MOL
REMARK 923 INTER-LIGAND FREE ENERGY PREDICTED BY IDOCK:   -5.45 KCAL/MOL
REMARK 924 INTRA-LIGAND FREE ENERGY PREDICTED BY IDOCK:   -0.47 KCAL/MOL
REMARK 927      BINDING AFFINITY PREDICTED BY RF-SCORE:    0.00 PKD
ROOT
HETATM    1  C   UNL     1      -7.774  15.421  67.629  1.00  0.00    -0.160 C  
HETATM    2  N   UNL     1      -9.070  16.114  67.506  1.00  0.00    -0.201 NA 
ENDROOT
BRANCH   2   3
HETATM    3  C   UNL     1      -9.057  17.387  68.295  1.00  0.00    -0.272 C  
HETATM    4  C   UNL     1      -9.350  19.591  66.283  1.00  0.00    -0.431 C  
HETATM    5  C   UNL     1     -10.348  18.229  68.147  1.00  0.00    -0.393 C  
HETATM    6  C   UNL     1      -7.887  18.331  67.915  1.00  0.00    -0.255 C  
HETATM    7  C   UNL     1      -8.016  18.878  66.494  1.00  0.00    -0.289 C  
HETATM    8  C   UNL     1     -10.537  18.737  66.718  1.00  0.00    -0.458 C  
ENDBRANCH   2   3
BRANCH   2   9
HETATM    9  C   UNL     1     -10.172  15.222  67.963  1.00  0.00    -0.230 C  
BRANCH   9  10
HETATM   10  C   UNL     1     -10.406  13.947  67.162  1.00  0.00    -0.265 A  
HETATM   11  C   UNL     1     -10.975  11.618  65.670  1.00  0.00    -0.322 A  
HETATM   12 BR   UNL     1     -12.142  13.007  63.476  1.00  0.00    -0.562 Br 
HETATM   13  C   UNL     1     -11.062  14.018  65.915  1.00  0.00    -0.301 A  
HETATM   14  C   UNL     1     -11.316  12.867  65.170  1.00  0.00    -0.298 A  
HETATM   15  C   UNL     1     -10.382  11.529  66.928  1.00  0.00    -0.223 A  
HETATM   16 BR   UNL     1      -9.984   9.786  67.590  1.00  0.00    -0.232 Br 
HETATM   17  C   UNL     1     -10.061  12.679  67.686  1.00  0.00    -0.218 A  
HETATM   18  N   UNL     1      -9.633  12.535  69.023  1.00  0.00    -0.338 NA 
HETATM   19  H1  UNL     1      -9.385  11.620  69.401  1.00  0.00     0.000 HD 
HETATM   20  H2  UNL     1     -10.345  12.944  69.629  1.00  0.00     0.000 HD 
ENDBRANCH   9  10
ENDBRANCH   2   9
TORSDOF 3
ENDMDL
MODEL       62
REMARK 921   NORMALIZED FREE ENERGY PREDICTED BY IDOCK:   -4.48 KCAL/MOL
REMARK 922        TOTAL FREE ENERGY PREDICTED BY IDOCK:   -5.90 KCAL/MOL
REMARK 923 INTER-LIGAND FREE ENERGY PREDICTED BY IDOCK:   -5.88 KCAL/MOL
REMARK 924 INTRA-LIGAND FREE ENERGY PREDICTED BY IDOCK:   -0.02 KCAL/MOL
REMARK 927      BINDING AFFINITY PREDICTED BY RF-SCORE:    0.00 PKD
ROOT
HETATM    1  C   UNL     1     -10.587  14.926  65.010  1.00  0.00    -0.422 C  
HETATM    2  N   UNL     1      -9.924  13.688  65.460  1.00  0.00    -0.261 NA 
ENDROOT
BRANCH   2   3
HETATM    3  C   UNL     1     -10.911  12.562  65.525  1.00  0.00    -0.287 C  
HETATM    4  C   UNL     1      -9.682  10.314  63.966  1.00  0.00    -0.343 C  
HETATM    5  C   UNL     1     -10.354  11.279  66.190  1.00  0.00    -0.300 C  
HETATM    6  C   UNL     1     -11.437  12.127  64.133  1.00  0.00    -0.460 C  
HETATM    7  C   UNL     1     -10.346  11.499  63.267  1.00  0.00    -0.435 C  
HETATM    8  C   UNL     1      -9.216  10.664  65.377  1.00  0.00    -0.226 C  
ENDBRANCH   2   3
BRANCH   2   9
HETATM    9  C   UNL     1      -9.284  13.905  66.786  1.00  0.00    -0.254 C  
BRANCH   9  10
HETATM   10  C   UNL     1      -9.978  14.872  67.739  1.00  0.00    -0.222 A  
HETATM   11  C   UNL     1     -11.137  16.716  69.535  1.00  0.00    -0.158 A  
HETATM   12 BR   UNL     1      -9.997  19.015  68.302  1.00  0.00    -0.494 Br 
HETATM   13  C   UNL     1      -9.720  16.255  67.637  1.00  0.00    -0.234 A  
HETATM   14  C   UNL     1     -10.317  17.164  68.509  1.00  0.00    -0.364 A  
HETATM   15  C   UNL     1     -11.351  15.347  69.685  1.00  0.00    -0.307 A  
HETATM   16 BR   UNL     1     -12.441  14.783  71.144  1.00  0.00    -0.431 Br 
HETATM   17  C   UNL     1     -10.805  14.403  68.786  1.00  0.00    -0.251 A  
HETATM   18  N   UNL     1     -10.895  13.025  69.082  1.00  0.00    -0.431 NA 
HETATM   19  H1  UNL     1     -11.492  12.686  69.837  1.00  0.00     0.000 HD 
HETATM   20  H2  UNL     1      -9.951  12.674  69.243  1.00  0.00     0.000 HD 
ENDBRANCH   9  10
ENDBRANCH   2   9
TORSDOF 3
ENDMDL
MODEL       63
REMARK 921   NORMALIZED FREE ENERGY PREDICTED BY IDOCK:   -4.46 KCAL/MOL
REMARK 922        TOTAL FREE ENERGY PREDICTED BY IDOCK:   -5.88 KCAL/MOL
REMARK 923 INTER-LIGAND FREE ENERGY PREDICTED BY IDOCK:   -5.28 KCAL/MOL
REMARK 924 INTRA-LIGAND FREE ENERGY PREDICTED BY IDOCK:   -0.60 KCAL/MOL
REMARK 927      BINDING AFFINITY PREDICTED BY RF-SCORE:    0.00 PKD
ROOT
HETATM    1  C   UNL     1     -10.235  13.129  68.524  1.00  0.00    -0.215 C  
HETATM    2  N   UNL     1     -10.901  13.024  67.213  1.00  0.00    -0.250 NA 
ENDROOT
BRANCH   2   3
HETATM    3  C   UNL     1     -11.942  14.092  67.070  1.00  0.00    -0.439 C  
HETATM    4  C   UNL     1     -11.062  15.774  64.747  1.00  0.00    -0.413 C  
HETATM    5  C   UNL     1     -12.663  14.084  65.699  1.00  0.00    -0.515 C  
HETATM    6  C   UNL     1     -11.375  15.525  67.244  1.00  0.00    -0.167 C  
HETATM    7  C   UNL     1     -10.413  15.913  66.123  1.00  0.00    -0.336 C  
HETATM    8  C   UNL     1     -11.709  14.406  64.550  1.00  0.00    -0.430 C  
ENDBRANCH   2   3
BRANCH   2   9
HETATM    9  C   UNL     1     -11.508  11.673  67.055  1.00  0.00    -0.262 C  
BRANCH   9  10
HETATM   10  C   UNL     1     -10.574  10.540  66.646  1.00  0.00    -0.263 A  
HETATM   11  C   UNL     1      -8.928   8.416  65.779  1.00  0.00    -0.207 A  
HETATM   12 BR   UNL     1      -8.489   9.487  63.178  1.00  0.00    -0.214 Br 
HETATM   13  C   UNL     1     -10.053  10.505  65.336  1.00  0.00    -0.358 A  
HETATM   14  C   UNL     1      -9.218   9.468  64.922  1.00  0.00    -0.223 A  
HETATM   15  C   UNL     1      -9.487   8.407  67.056  1.00  0.00    -0.174 A  
HETATM   16 BR   UNL     1      -9.100   6.912  68.174  1.00  0.00    -0.123 Br 
HETATM   17  C   UNL     1     -10.293   9.469  67.527  1.00  0.00    -0.248 A  
HETATM   18  N   UNL     1     -10.983   9.331  68.750  1.00  0.00    -0.443 NA 
HETATM   19  H1  UNL     1     -10.780   8.559  69.386  1.00  0.00     0.000 HD 
HETATM   20  H2  UNL     1     -11.983   9.321  68.550  1.00  0.00     0.000 HD 
ENDBRANCH   9  10
ENDBRANCH   2   9
TORSDOF 3
ENDMDL
MODEL       64
REMARK 921   NORMALIZED FREE ENERGY PREDICTED BY IDOCK:   -4.46 KCAL/MOL
REMARK 922        TOTAL FREE ENERGY PREDICTED BY IDOCK:   -5.87 KCAL/MOL
REMARK 923 INTER-LIGAND FREE ENERGY PREDICTED BY IDOCK:   -5.72 KCAL/MOL
REMARK 924 INTRA-LIGAND FREE ENERGY PREDICTED BY IDOCK:   -0.15 KCAL/MOL
REMARK 927      BINDING AFFINITY PREDICTED BY RF-SCORE:    0.00 PKD
ROOT
HETATM    1  C   UNL     1     -12.025  11.426  69.908  1.00  0.00    -0.359 C  
HETATM    2  N   UNL     1     -11.122  10.371  69.411  1.00  0.00    -0.239 NA 
ENDROOT
BRANCH   2   3
HETATM    3  C   UNL     1     -10.414   9.711  70.555  1.00  0.00    -0.303 C  
HETATM    4  C   UNL     1     -11.438   6.893  70.622  1.00  0.00    -0.383 C  
HETATM    5  C   UNL     1      -9.556   8.490  70.138  1.00  0.00    -0.174 C  
HETATM    6  C   UNL     1     -11.376   9.199  71.657  1.00  0.00    -0.446 C  
HETATM    7  C   UNL     1     -12.264   8.054  71.172  1.00  0.00    -0.262 C  
HETATM    8  C   UNL     1     -10.414   7.351  69.588  1.00  0.00    -0.237 C  
ENDBRANCH   2   3
BRANCH   2   9
HETATM    9  C   UNL     1     -10.143  10.948  68.449  1.00  0.00    -0.183 C  
BRANCH   9  10
HETATM   10  C   UNL     1     -10.648  12.055  67.530  1.00  0.00    -0.250 A  
HETATM   11  C   UNL     1     -11.507  14.049  65.725  1.00  0.00    -0.318 A  
HETATM   12 BR   UNL     1     -12.527  12.219  63.799  1.00  0.00    -0.590 Br 
HETATM   13  C   UNL     1     -11.238  11.719  66.293  1.00  0.00    -0.370 A  
HETATM   14  C   UNL     1     -11.685  12.708  65.418  1.00  0.00    -0.387 A  
HETATM   15  C   UNL     1     -10.869  14.395  66.916  1.00  0.00    -0.301 A  
HETATM   16 BR   UNL     1     -10.600  16.250  67.262  1.00  0.00    -0.266 Br 
HETATM   17  C   UNL     1     -10.452  13.419  67.850  1.00  0.00    -0.240 A  
HETATM   18  N   UNL     1      -9.651  13.802  68.948  1.00  0.00    -0.412 NA 
HETATM   19  H1  UNL     1      -9.510  14.786  69.179  1.00  0.00     0.000 HD 
HETATM   20  H2  UNL     1      -8.735  13.369  68.837  1.00  0.00     0.000 HD 
ENDBRANCH   9  10
ENDBRANCH   2   9
TORSDOF 3
ENDMDL
MODEL       65
REMARK 921   NORMALIZED FREE ENERGY PREDICTED BY IDOCK:   -4.44 KCAL/MOL
REMARK 922        TOTAL FREE ENERGY PREDICTED BY IDOCK:   -5.85 KCAL/MOL
REMARK 923 INTER-LIGAND FREE ENERGY PREDICTED BY IDOCK:   -5.27 KCAL/MOL
REMARK 924 INTRA-LIGAND FREE ENERGY PREDICTED BY IDOCK:   -0.59 KCAL/MOL
REMARK 927      BINDING AFFINITY PREDICTED BY RF-SCORE:    0.00 PKD
ROOT
HETATM    1  C   UNL     1      -9.959  10.935  63.932  1.00  0.00    -0.343 C  
HETATM    2  N   UNL     1     -10.120  11.261  65.361  1.00  0.00    -0.250 NA 
ENDROOT
BRANCH   2   3
HETATM    3  C   UNL     1      -9.917  12.728  65.588  1.00  0.00    -0.238 C  
HETATM    4  C   UNL     1     -12.656  13.868  66.023  1.00  0.00    -0.467 C  
HETATM    5  C   UNL     1     -10.417  13.223  66.968  1.00  0.00    -0.249 C  
HETATM    6  C   UNL     1     -10.628  13.614  64.533  1.00  0.00    -0.428 C  
HETATM    7  C   UNL     1     -12.151  13.521  64.623  1.00  0.00    -0.450 C  
HETATM    8  C   UNL     1     -11.931  13.082  67.111  1.00  0.00    -0.389 C  
ENDBRANCH   2   3
BRANCH   2   9
HETATM    9  C   UNL     1      -9.164  10.464  66.178  1.00  0.00    -0.168 C  
BRANCH   9  10
HETATM   10  C   UNL     1      -9.761   9.465  67.163  1.00  0.00    -0.225 A  
HETATM   11  C   UNL     1     -10.775   7.660  69.083  1.00  0.00    -0.153 A  
HETATM   12 BR   UNL     1     -11.342   9.659  71.029  1.00  0.00    -0.474 Br 
HETATM   13  C   UNL     1     -10.192   9.910  68.431  1.00  0.00    -0.203 A  
HETATM   14  C   UNL     1     -10.717   9.018  69.364  1.00  0.00    -0.191 A  
HETATM   15  C   UNL     1     -10.295   7.200  67.858  1.00  0.00    -0.198 A  
HETATM   16 BR   UNL     1     -10.347   5.320  67.544  1.00  0.00    -0.195 Br 
HETATM   17  C   UNL     1      -9.806   8.083  66.868  1.00  0.00    -0.248 A  
HETATM   18  N   UNL     1      -9.165   7.561  65.724  1.00  0.00    -0.395 NA 
HETATM   19  H1  UNL     1      -9.198   6.563  65.510  1.00  0.00     0.000 HD 
HETATM   20  H2  UNL     1      -8.186   7.846  65.753  1.00  0.00     0.000 HD 
ENDBRANCH   9  10
ENDBRANCH   2   9
TORSDOF 3
ENDMDL
MODEL       66
REMARK 921   NORMALIZED FREE ENERGY PREDICTED BY IDOCK:   -4.44 KCAL/MOL
REMARK 922        TOTAL FREE ENERGY PREDICTED BY IDOCK:   -5.84 KCAL/MOL
REMARK 923 INTER-LIGAND FREE ENERGY PREDICTED BY IDOCK:   -5.36 KCAL/MOL
REMARK 924 INTRA-LIGAND FREE ENERGY PREDICTED BY IDOCK:   -0.48 KCAL/MOL
REMARK 927      BINDING AFFINITY PREDICTED BY RF-SCORE:    0.00 PKD
ROOT
HETATM    1  C   UNL     1      -8.476   8.764  69.420  1.00  0.00    -0.125 C  
HETATM    2  N   UNL     1      -9.902   8.388  69.469  1.00  0.00    -0.178 NA 
ENDROOT
BRANCH   2   3
HETATM    3  C   UNL     1     -10.082   7.134  70.269  1.00  0.00    -0.188 C  
HETATM    4  C   UNL     1     -11.923   7.868  72.520  1.00  0.00    -0.349 C  
HETATM    5  C   UNL     1     -11.552   6.651  70.350  1.00  0.00    -0.457 C  
HETATM    6  C   UNL     1      -9.595   7.268  71.735  1.00  0.00    -0.163 C  
HETATM    7  C   UNL     1     -10.443   8.247  72.545  1.00  0.00    -0.406 C  
HETATM    8  C   UNL     1     -12.438   7.643  71.101  1.00  0.00    -0.273 C  
ENDBRANCH   2   3
BRANCH   2   9
HETATM    9  C   UNL     1     -10.432   8.214  68.089  1.00  0.00    -0.170 C  
BRANCH   9  10
HETATM   10  C   UNL     1     -10.403   9.436  67.178  1.00  0.00    -0.326 A  
HETATM   11  C   UNL     1     -10.488  11.706  65.501  1.00  0.00    -0.321 A  
HETATM   12 BR   UNL     1     -11.879  13.343  67.369  1.00  0.00    -0.407 Br 
HETATM   13  C   UNL     1     -11.046  10.624  67.585  1.00  0.00    -0.385 A  
HETATM   14  C   UNL     1     -11.062  11.750  66.764  1.00  0.00    -0.306 A  
HETATM   15  C   UNL     1      -9.904  10.519  65.061  1.00  0.00    -0.306 A  
HETATM   16 BR   UNL     1      -9.181  10.496  63.298  1.00  0.00    -0.336 Br 
HETATM   17  C   UNL     1      -9.823   9.375  65.889  1.00  0.00    -0.291 A  
HETATM   18  N   UNL     1      -9.391   8.148  65.341  1.00  0.00    -0.376 NA 
HETATM   19  H1  UNL     1      -8.972   8.104  64.411  1.00  0.00     0.000 HD 
HETATM   20  H2  UNL     1     -10.176   7.497  65.366  1.00  0.00     0.000 HD 
ENDBRANCH   9  10
ENDBRANCH   2   9
TORSDOF 3
ENDMDL
MODEL       67
REMARK 921   NORMALIZED FREE ENERGY PREDICTED BY IDOCK:   -4.39 KCAL/MOL
REMARK 922        TOTAL FREE ENERGY PREDICTED BY IDOCK:   -5.79 KCAL/MOL
REMARK 923 INTER-LIGAND FREE ENERGY PREDICTED BY IDOCK:   -5.63 KCAL/MOL
REMARK 924 INTRA-LIGAND FREE ENERGY PREDICTED BY IDOCK:   -0.16 KCAL/MOL
REMARK 927      BINDING AFFINITY PREDICTED BY RF-SCORE:    0.00 PKD
ROOT
HETATM    1  C   UNL     1      -7.402  18.330  68.881  1.00  0.00    -0.253 C  
HETATM    2  N   UNL     1      -8.205  18.721  67.708  1.00  0.00    -0.260 NA 
ENDROOT
BRANCH   2   3
HETATM    3  C   UNL     1      -7.837  20.104  67.263  1.00  0.00    -0.313 C  
HETATM    4  C   UNL     1      -5.177  19.840  65.904  1.00  0.00    -0.168 C  
HETATM    5  C   UNL     1      -7.654  20.241  65.731  1.00  0.00    -0.173 C  
HETATM    6  C   UNL     1      -6.521  20.622  67.898  1.00  0.00    -0.355 C  
HETATM    7  C   UNL     1      -5.298  19.838  67.427  1.00  0.00    -0.166 C  
HETATM    8  C   UNL     1      -6.474  19.415  65.222  1.00  0.00    -0.308 C  
ENDBRANCH   2   3
BRANCH   2   9
HETATM    9  C   UNL     1      -9.655  18.640  68.030  1.00  0.00    -0.316 C  
BRANCH   9  10
HETATM   10  C   UNL     1     -10.320  17.275  67.885  1.00  0.00    -0.360 A  
HETATM   11  C   UNL     1     -11.475  14.704  67.727  1.00  0.00    -0.359 A  
HETATM   12 BR   UNL     1     -12.434  14.696  70.408  1.00  0.00    -0.411 Br 
HETATM   13  C   UNL     1     -10.951  16.685  69.001  1.00  0.00    -0.279 A  
HETATM   14  C   UNL     1     -11.543  15.427  68.909  1.00  0.00    -0.354 A  
HETATM   15  C   UNL     1     -10.801  15.249  66.636  1.00  0.00    -0.310 A  
HETATM   16 BR   UNL     1     -10.689  14.190  65.054  1.00  0.00    -0.455 Br 
HETATM   17  C   UNL     1     -10.236  16.544  66.677  1.00  0.00    -0.300 A  
HETATM   18  N   UNL     1      -9.409  16.978  65.619  1.00  0.00    -0.487 NA 
HETATM   19  H1  UNL     1      -9.348  16.450  64.747  1.00  0.00     0.000 HD 
HETATM   20  H2  UNL     1      -8.463  17.095  65.984  1.00  0.00     0.000 HD 
ENDBRANCH   9  10
ENDBRANCH   2   9
TORSDOF 3
ENDMDL
MODEL       68
REMARK 921   NORMALIZED FREE ENERGY PREDICTED BY IDOCK:   -4.35 KCAL/MOL
REMARK 922        TOTAL FREE ENERGY PREDICTED BY IDOCK:   -5.74 KCAL/MOL
REMARK 923 INTER-LIGAND FREE ENERGY PREDICTED BY IDOCK:   -5.54 KCAL/MOL
REMARK 924 INTRA-LIGAND FREE ENERGY PREDICTED BY IDOCK:   -0.20 KCAL/MOL
REMARK 927      BINDING AFFINITY PREDICTED BY RF-SCORE:    0.00 PKD
ROOT
HETATM    1  C   UNL     1     -13.213  12.271  72.199  1.00  0.00    -0.361 C  
HETATM    2  N   UNL     1     -12.562  12.964  71.072  1.00  0.00    -0.345 NA 
ENDROOT
BRANCH   2   3
HETATM    3  C   UNL     1     -13.280  14.243  70.763  1.00  0.00    -0.197 C  
HETATM    4  C   UNL     1     -12.033  16.321  72.529  1.00  0.00    -0.648 C  
HETATM    5  C   UNL     1     -12.357  15.365  70.225  1.00  0.00    -0.425 C  
HETATM    6  C   UNL     1     -14.014  14.845  71.989  1.00  0.00    -0.591 C  
HETATM    7  C   UNL     1     -13.047  15.317  73.074  1.00  0.00    -0.612 C  
HETATM    8  C   UNL     1     -11.336  15.813  71.270  1.00  0.00    -0.437 C  
ENDBRANCH   2   3
BRANCH   2   9
HETATM    9  C   UNL     1     -12.527  12.077  69.877  1.00  0.00     0.048 C  
BRANCH   9  10
HETATM   10  C   UNL     1     -11.376  11.081  69.790  1.00  0.00    -0.366 A  
HETATM   11  C   UNL     1      -9.255   9.218  69.767  1.00  0.00    -0.191 A  
HETATM   12 BR   UNL     1     -10.747   7.127  70.996  1.00  0.00    -0.258 Br 
HETATM   13  C   UNL     1     -11.528   9.791  70.341  1.00  0.00    -0.347 A  
HETATM   14  C   UNL     1     -10.486   8.866  70.303  1.00  0.00    -0.210 A  
HETATM   15  C   UNL     1      -9.072  10.509  69.275  1.00  0.00    -0.145 A  
HETATM   16 BR   UNL     1      -7.346  10.956  68.601  1.00  0.00    -0.109 Br 
HETATM   17  C   UNL     1     -10.123  11.454  69.250  1.00  0.00     0.070 A  
HETATM   18  N   UNL     1      -9.845  12.797  68.915  1.00  0.00    -0.417 NA 
HETATM   19  H1  UNL     1      -8.941  13.066  68.525  1.00  0.00     0.000 HD 
HETATM   20  H2  UNL     1     -10.016  13.371  69.741  1.00  0.00     0.000 HD 
ENDBRANCH   9  10
ENDBRANCH   2   9
TORSDOF 3
ENDMDL
MODEL       69
REMARK 921   NORMALIZED FREE ENERGY PREDICTED BY IDOCK:   -4.34 KCAL/MOL
REMARK 922        TOTAL FREE ENERGY PREDICTED BY IDOCK:   -5.73 KCAL/MOL
REMARK 923 INTER-LIGAND FREE ENERGY PREDICTED BY IDOCK:   -5.34 KCAL/MOL
REMARK 924 INTRA-LIGAND FREE ENERGY PREDICTED BY IDOCK:   -0.39 KCAL/MOL
REMARK 927      BINDING AFFINITY PREDICTED BY RF-SCORE:    0.00 PKD
ROOT
HETATM    1  C   UNL     1     -12.611  13.860  65.691  1.00  0.00    -0.517 C  
HETATM    2  N   UNL     1     -11.495  12.952  66.013  1.00  0.00    -0.324 NA 
ENDROOT
BRANCH   2   3
HETATM    3  C   UNL     1     -11.642  11.661  65.267  1.00  0.00    -0.035 C  
HETATM    4  C   UNL     1      -9.086  11.312  63.737  1.00  0.00    -0.018 C  
HETATM    5  C   UNL     1     -10.574  10.600  65.636  1.00  0.00    -0.175 C  
HETATM    6  C   UNL     1     -11.561  11.829  63.728  1.00  0.00    -0.508 C  
HETATM    7  C   UNL     1     -10.175  12.272  63.261  1.00  0.00    -0.245 C  
HETATM    8  C   UNL     1      -9.167  11.045  65.237  1.00  0.00    -0.229 C  
ENDBRANCH   2   3
BRANCH   2   9
HETATM    9  C   UNL     1     -11.440  12.710  67.480  1.00  0.00    -0.340 C  
BRANCH   9  10
HETATM   10  C   UNL     1     -11.332  13.936  68.380  1.00  0.00    -0.316 A  
HETATM   11  C   UNL     1     -11.267  16.231  70.023  1.00  0.00    -0.324 A  
HETATM   12 BR   UNL     1     -13.346  15.353  71.759  1.00  0.00    -0.609 Br 
HETATM   13  C   UNL     1     -12.226  14.090  69.460  1.00  0.00    -0.355 A  
HETATM   14  C   UNL     1     -12.172  15.212  70.284  1.00  0.00    -0.350 A  
HETATM   15  C   UNL     1     -10.419  16.121  68.922  1.00  0.00    -0.258 A  
HETATM   16 BR   UNL     1      -9.234  17.574  68.577  1.00  0.00    -0.268 Br 
HETATM   17  C   UNL     1     -10.411  14.972  68.098  1.00  0.00    -0.239 A  
HETATM   18  N   UNL     1      -9.671  14.983  66.895  1.00  0.00    -0.231 NA 
HETATM   19  H1  UNL     1      -9.007  15.730  66.692  1.00  0.00     0.000 HD 
HETATM   20  H2  UNL     1     -10.330  14.925  66.119  1.00  0.00     0.000 HD 
ENDBRANCH   9  10
ENDBRANCH   2   9
TORSDOF 3
ENDMDL
MODEL       70
REMARK 921   NORMALIZED FREE ENERGY PREDICTED BY IDOCK:   -4.33 KCAL/MOL
REMARK 922        TOTAL FREE ENERGY PREDICTED BY IDOCK:   -5.72 KCAL/MOL
REMARK 923 INTER-LIGAND FREE ENERGY PREDICTED BY IDOCK:   -4.99 KCAL/MOL
REMARK 924 INTRA-LIGAND FREE ENERGY PREDICTED BY IDOCK:   -0.73 KCAL/MOL
REMARK 927      BINDING AFFINITY PREDICTED BY RF-SCORE:    0.00 PKD
ROOT
HETATM    1  C   UNL     1      -8.615   8.238  68.021  1.00  0.00    -0.132 C  
HETATM    2  N   UNL     1      -9.072   9.611  68.304  1.00  0.00    -0.123 NA 
ENDROOT
BRANCH   2   3
HETATM    3  C   UNL     1      -8.406  10.583  67.378  1.00  0.00    -0.121 C  
HETATM    4  C   UNL     1     -10.598  11.705  65.667  1.00  0.00    -0.324 C  
HETATM    5  C   UNL     1      -8.926  12.035  67.516  1.00  0.00    -0.174 C  
HETATM    6  C   UNL     1      -8.568  10.212  65.881  1.00  0.00    -0.156 C  
HETATM    7  C   UNL     1     -10.017  10.316  65.408  1.00  0.00    -0.371 C  
HETATM    8  C   UNL     1     -10.394  12.157  67.110  1.00  0.00    -0.233 C  
ENDBRANCH   2   3
BRANCH   2   9
HETATM    9  C   UNL     1      -8.793   9.960  69.724  1.00  0.00    -0.211 C  
BRANCH   9  10
HETATM   10  C   UNL     1      -9.684   9.317  70.781  1.00  0.00    -0.348 A  
HETATM   11  C   UNL     1     -11.275   8.003  72.708  1.00  0.00    -0.448 A  
HETATM   12 BR   UNL     1      -9.075   6.875  74.120  1.00  0.00    -0.257 Br 
HETATM   13  C   UNL     1      -9.104   8.515  71.787  1.00  0.00    -0.304 A  
HETATM   14  C   UNL     1      -9.892   7.891  72.752  1.00  0.00    -0.270 A  
HETATM   15  C   UNL     1     -11.864   8.741  71.683  1.00  0.00    -0.330 A  
HETATM   16 BR   UNL     1     -13.769   8.817  71.638  1.00  0.00    -0.432 Br 
HETATM   17  C   UNL     1     -11.093   9.431  70.721  1.00  0.00    -0.300 A  
HETATM   18  N   UNL     1     -11.729  10.010  69.601  1.00  0.00    -0.453 NA 
HETATM   19  H1  UNL     1     -12.745  10.093  69.558  1.00  0.00     0.000 HD 
HETATM   20  H2  UNL     1     -11.416   9.513  68.768  1.00  0.00     0.000 HD 
ENDBRANCH   9  10
ENDBRANCH   2   9
TORSDOF 3
ENDMDL
MODEL       71
REMARK 921   NORMALIZED FREE ENERGY PREDICTED BY IDOCK:   -4.33 KCAL/MOL
REMARK 922        TOTAL FREE ENERGY PREDICTED BY IDOCK:   -5.71 KCAL/MOL
REMARK 923 INTER-LIGAND FREE ENERGY PREDICTED BY IDOCK:   -5.04 KCAL/MOL
REMARK 924 INTRA-LIGAND FREE ENERGY PREDICTED BY IDOCK:   -0.68 KCAL/MOL
REMARK 927      BINDING AFFINITY PREDICTED BY RF-SCORE:    0.00 PKD
ROOT
HETATM    1  C   UNL     1      -7.825  11.124  68.903  1.00  0.00    -0.131 C  
HETATM    2  N   UNL     1      -9.014  10.278  68.690  1.00  0.00    -0.137 NA 
ENDROOT
BRANCH   2   3
HETATM    3  C   UNL     1      -9.350  10.210  67.231  1.00  0.00    -0.152 C  
HETATM    4  C   UNL     1      -9.378   7.291  66.541  1.00  0.00    -0.216 C  
HETATM    5  C   UNL     1     -10.651   9.426  66.925  1.00  0.00    -0.238 C  
HETATM    6  C   UNL     1      -8.240   9.544  66.377  1.00  0.00    -0.115 C  
HETATM    7  C   UNL     1      -8.067   8.060  66.699  1.00  0.00    -0.103 C  
HETATM    8  C   UNL     1     -10.529   7.949  67.297  1.00  0.00    -0.390 C  
ENDBRANCH   2   3
BRANCH   2   9
HETATM    9  C   UNL     1     -10.165  10.807  69.471  1.00  0.00    -0.113 C  
BRANCH   9  10
HETATM   10  C   UNL     1     -10.712   9.919  70.583  1.00  0.00    -0.372 A  
HETATM   11  C   UNL     1     -11.653   8.167  72.587  1.00  0.00    -0.441 A  
HETATM   12 BR   UNL     1      -9.063   7.384  73.470  1.00  0.00    -0.287 Br 
HETATM   13  C   UNL     1      -9.820   9.168  71.378  1.00  0.00    -0.354 A  
HETATM   14  C   UNL     1     -10.290   8.325  72.384  1.00  0.00    -0.332 A  
HETATM   15  C   UNL     1     -12.547   8.855  71.767  1.00  0.00    -0.361 A  
HETATM   16 BR   UNL     1     -14.408   8.558  72.052  1.00  0.00    -0.511 Br 
HETATM   17  C   UNL     1     -12.105   9.758  70.774  1.00  0.00    -0.279 A  
HETATM   18  N   UNL     1     -13.032  10.289  69.851  1.00  0.00    -0.503 NA 
HETATM   19  H1  UNL     1     -14.037  10.173  69.989  1.00  0.00     0.000 HD 
HETATM   20  H2  UNL     1     -12.797   9.932  68.925  1.00  0.00     0.000 HD 
ENDBRANCH   9  10
ENDBRANCH   2   9
TORSDOF 3
ENDMDL
MODEL       72
REMARK 921   NORMALIZED FREE ENERGY PREDICTED BY IDOCK:   -4.30 KCAL/MOL
REMARK 922        TOTAL FREE ENERGY PREDICTED BY IDOCK:   -5.69 KCAL/MOL
REMARK 923 INTER-LIGAND FREE ENERGY PREDICTED BY IDOCK:   -5.03 KCAL/MOL
REMARK 924 INTRA-LIGAND FREE ENERGY PREDICTED BY IDOCK:   -0.66 KCAL/MOL
REMARK 927      BINDING AFFINITY PREDICTED BY RF-SCORE:    0.00 PKD
ROOT
HETATM    1  C   UNL     1     -10.635  17.534  65.844  1.00  0.00    -0.203 C  
HETATM    2  N   UNL     1      -9.876  17.404  67.102  1.00  0.00    -0.269 NA 
ENDROOT
BRANCH   2   3
HETATM    3  C   UNL     1     -10.564  16.449  68.029  1.00  0.00    -0.314 C  
HETATM    4  C   UNL     1      -8.912  13.945  67.986  1.00  0.00    -0.184 C  
HETATM    5  C   UNL     1      -9.688  15.994  69.222  1.00  0.00    -0.257 C  
HETATM    6  C   UNL     1     -11.037  15.149  67.328  1.00  0.00    -0.332 C  
HETATM    7  C   UNL     1      -9.870  14.288  66.846  1.00  0.00    -0.264 C  
HETATM    8  C   UNL     1      -8.476  15.183  68.765  1.00  0.00    -0.180 C  
ENDBRANCH   2   3
BRANCH   2   9
HETATM    9  C   UNL     1      -9.717  18.737  67.744  1.00  0.00    -0.318 C  
BRANCH   9  10
HETATM   10  C   UNL     1      -8.294  19.263  67.902  1.00  0.00    -0.338 A  
HETATM   11  C   UNL     1      -5.707  20.323  68.294  1.00  0.00    -0.279 A  
HETATM   12 BR   UNL     1      -5.623  19.749  71.082  1.00  0.00    -0.321 Br 
HETATM   13  C   UNL     1      -7.699  19.289  69.181  1.00  0.00    -0.272 A  
HETATM   14  C   UNL     1      -6.411  19.788  69.364  1.00  0.00    -0.346 A  
HETATM   15  C   UNL     1      -6.307  20.360  67.037  1.00  0.00    -0.211 A  
HETATM   16 BR   UNL     1      -5.318  21.155  65.615  1.00  0.00    -0.229 Br 
HETATM   17  C   UNL     1      -7.590  19.813  66.805  1.00  0.00    -0.254 A  
HETATM   18  N   UNL     1      -8.230  20.037  65.567  1.00  0.00    -0.456 NA 
HETATM   19  H1  UNL     1      -7.722  20.433  64.776  1.00  0.00     0.000 HD 
HETATM   20  H2  UNL     1      -9.053  20.615  65.736  1.00  0.00     0.000 HD 
ENDBRANCH   9  10
ENDBRANCH   2   9
TORSDOF 3
ENDMDL
MODEL       73
REMARK 921   NORMALIZED FREE ENERGY PREDICTED BY IDOCK:   -4.30 KCAL/MOL
REMARK 922        TOTAL FREE ENERGY PREDICTED BY IDOCK:   -5.68 KCAL/MOL
REMARK 923 INTER-LIGAND FREE ENERGY PREDICTED BY IDOCK:   -5.39 KCAL/MOL
REMARK 924 INTRA-LIGAND FREE ENERGY PREDICTED BY IDOCK:   -0.29 KCAL/MOL
REMARK 927      BINDING AFFINITY PREDICTED BY RF-SCORE:    0.00 PKD
ROOT
HETATM    1  C   UNL     1      -8.521   9.689  70.299  1.00  0.00    -0.188 C  
HETATM    2  N   UNL     1      -9.406  10.533  69.475  1.00  0.00    -0.127 NA 
ENDROOT
BRANCH   2   3
HETATM    3  C   UNL     1     -10.672   9.800  69.151  1.00  0.00    -0.221 C  
HETATM    4  C   UNL     1     -12.561  10.411  71.400  1.00  0.00    -0.539 C  
HETATM    5  C   UNL     1     -11.906  10.722  68.991  1.00  0.00    -0.325 C  
HETATM    6  C   UNL     1     -11.062   8.749  70.222  1.00  0.00    -0.240 C  
HETATM    7  C   UNL     1     -11.437   9.388  71.559  1.00  0.00    -0.467 C  
HETATM    8  C   UNL     1     -12.266  11.426  70.299  1.00  0.00    -0.433 C  
ENDBRANCH   2   3
BRANCH   2   9
HETATM    9  C   UNL     1      -8.704  10.947  68.230  1.00  0.00    -0.140 C  
BRANCH   9  10
HETATM   10  C   UNL     1      -9.417  11.956  67.337  1.00  0.00    -0.175 A  
HETATM   11  C   UNL     1     -10.642  13.800  65.584  1.00  0.00    -0.302 A  
HETATM   12 BR   UNL     1     -10.984  11.935  63.460  1.00  0.00    -0.505 Br 
HETATM   13  C   UNL     1      -9.800  11.583  66.031  1.00  0.00    -0.255 A  
HETATM   14  C   UNL     1     -10.429  12.490  65.180  1.00  0.00    -0.293 A  
HETATM   15  C   UNL     1     -10.212  14.199  66.849  1.00  0.00    -0.267 A  
HETATM   16 BR   UNL     1     -10.480  16.023  67.333  1.00  0.00    -0.311 Br 
HETATM   17  C   UNL     1      -9.621  13.292  67.757  1.00  0.00    -0.214 A  
HETATM   18  N   UNL     1      -9.038  13.777  68.948  1.00  0.00    -0.388 NA 
HETATM   19  H1  UNL     1      -9.185  14.741  69.251  1.00  0.00     0.000 HD 
HETATM   20  H2  UNL     1      -8.033  13.611  68.898  1.00  0.00     0.000 HD 
ENDBRANCH   9  10
ENDBRANCH   2   9
TORSDOF 3
ENDMDL
MODEL       74
REMARK 921   NORMALIZED FREE ENERGY PREDICTED BY IDOCK:   -4.29 KCAL/MOL
REMARK 922        TOTAL FREE ENERGY PREDICTED BY IDOCK:   -5.68 KCAL/MOL
REMARK 923 INTER-LIGAND FREE ENERGY PREDICTED BY IDOCK:   -5.43 KCAL/MOL
REMARK 924 INTRA-LIGAND FREE ENERGY PREDICTED BY IDOCK:   -0.24 KCAL/MOL
REMARK 927      BINDING AFFINITY PREDICTED BY RF-SCORE:    0.00 PKD
ROOT
HETATM    1  C   UNL     1      -8.316   9.915  69.696  1.00  0.00    -0.172 C  
HETATM    2  N   UNL     1      -9.349  10.720  69.019  1.00  0.00    -0.181 NA 
ENDROOT
BRANCH   2   3
HETATM    3  C   UNL     1     -10.597   9.912  68.828  1.00  0.00    -0.222 C  
HETATM    4  C   UNL     1     -12.209  10.307  71.326  1.00  0.00    -0.496 C  
HETATM    5  C   UNL     1     -11.898  10.750  68.870  1.00  0.00    -0.287 C  
HETATM    6  C   UNL     1     -10.773   8.798  69.892  1.00  0.00    -0.228 C  
HETATM    7  C   UNL     1     -11.010   9.360  71.293  1.00  0.00    -0.440 C  
HETATM    8  C   UNL     1     -12.128  11.379  70.244  1.00  0.00    -0.459 C  
ENDBRANCH   2   3
BRANCH   2   9
HETATM    9  C   UNL     1      -8.837  11.215  67.712  1.00  0.00    -0.135 C  
BRANCH   9  10
HETATM   10  C   UNL     1      -9.636  12.320  67.031  1.00  0.00    -0.208 A  
HETATM   11  C   UNL     1     -11.195  14.377  65.885  1.00  0.00    -0.324 A  
HETATM   12 BR   UNL     1     -10.734  16.240  67.988  1.00  0.00    -0.337 Br 
HETATM   13  C   UNL     1      -9.818  13.555  67.688  1.00  0.00    -0.228 A  
HETATM   14  C   UNL     1     -10.565  14.577  67.105  1.00  0.00    -0.274 A  
HETATM   15  C   UNL     1     -11.075  13.140  65.254  1.00  0.00    -0.283 A  
HETATM   16 BR   UNL     1     -12.004  12.900  63.607  1.00  0.00    -0.629 Br 
HETATM   17  C   UNL     1     -10.280  12.101  65.790  1.00  0.00    -0.254 A  
HETATM   18  N   UNL     1     -10.336  10.813  65.216  1.00  0.00    -0.277 NA 
HETATM   19  H1  UNL     1     -10.800  10.655  64.321  1.00  0.00     0.000 HD 
HETATM   20  H2  UNL     1     -10.746  10.178  65.901  1.00  0.00     0.000 HD 
ENDBRANCH   9  10
ENDBRANCH   2   9
TORSDOF 3
ENDMDL
MODEL       75
REMARK 921   NORMALIZED FREE ENERGY PREDICTED BY IDOCK:   -4.29 KCAL/MOL
REMARK 922        TOTAL FREE ENERGY PREDICTED BY IDOCK:   -5.67 KCAL/MOL
REMARK 923 INTER-LIGAND FREE ENERGY PREDICTED BY IDOCK:   -5.36 KCAL/MOL
REMARK 924 INTRA-LIGAND FREE ENERGY PREDICTED BY IDOCK:   -0.31 KCAL/MOL
REMARK 927      BINDING AFFINITY PREDICTED BY RF-SCORE:    0.00 PKD
ROOT
HETATM    1  C   UNL     1     -12.271  10.445  69.900  1.00  0.00    -0.146 C  
HETATM    2  N   UNL     1     -11.458  11.018  68.811  1.00  0.00    -0.279 NA 
ENDROOT
BRANCH   2   3
HETATM    3  C   UNL     1     -10.045  10.529  68.903  1.00  0.00    -0.202 C  
HETATM    4  C   UNL     1      -9.842   8.267  66.943  1.00  0.00    -0.316 C  
HETATM    5  C   UNL     1      -9.260  10.632  67.571  1.00  0.00    -0.151 C  
HETATM    6  C   UNL     1      -9.937   9.047  69.347  1.00  0.00    -0.191 C  
HETATM    7  C   UNL     1     -10.506   8.083  68.306  1.00  0.00    -0.210 C  
HETATM    8  C   UNL     1      -9.846   9.725  66.491  1.00  0.00    -0.286 C  
ENDBRANCH   2   3
BRANCH   2   9
HETATM    9  C   UNL     1     -11.505  12.505  68.867  1.00  0.00    -0.307 C  
BRANCH   9  10
HETATM   10  C   UNL     1     -11.524  13.246  67.535  1.00  0.00    -0.361 A  
HETATM   11  C   UNL     1     -11.479  14.517  65.014  1.00  0.00    -0.382 A  
HETATM   12 BR   UNL     1     -12.503  12.276  63.588  1.00  0.00    -0.604 Br 
HETATM   13  C   UNL     1     -11.914  12.563  66.364  1.00  0.00    -0.386 A  
HETATM   14  C   UNL     1     -11.915  13.204  65.126  1.00  0.00    -0.394 A  
HETATM   15  C   UNL     1     -11.032  15.183  66.154  1.00  0.00    -0.331 A  
HETATM   16 BR   UNL     1     -10.392  16.965  65.936  1.00  0.00    -0.265 Br 
HETATM   17  C   UNL     1     -11.068  14.581  67.433  1.00  0.00    -0.314 A  
HETATM   18  N   UNL     1     -10.439  15.222  68.522  1.00  0.00    -0.230 NA 
HETATM   19  H1  UNL     1     -10.110  16.185  68.449  1.00  0.00     0.000 HD 
HETATM   20  H2  UNL     1      -9.654  14.642  68.820  1.00  0.00     0.000 HD 
ENDBRANCH   9  10
ENDBRANCH   2   9
TORSDOF 3
ENDMDL
MODEL       76
REMARK 921   NORMALIZED FREE ENERGY PREDICTED BY IDOCK:   -4.27 KCAL/MOL
REMARK 922        TOTAL FREE ENERGY PREDICTED BY IDOCK:   -5.64 KCAL/MOL
REMARK 923 INTER-LIGAND FREE ENERGY PREDICTED BY IDOCK:   -5.45 KCAL/MOL
REMARK 924 INTRA-LIGAND FREE ENERGY PREDICTED BY IDOCK:   -0.19 KCAL/MOL
REMARK 927      BINDING AFFINITY PREDICTED BY RF-SCORE:    0.00 PKD
ROOT
HETATM    1  C   UNL     1      -9.098  12.565  66.783  1.00  0.00    -0.214 C  
HETATM    2  N   UNL     1     -10.297  12.592  65.925  1.00  0.00    -0.257 NA 
ENDROOT
BRANCH   2   3
HETATM    3  C   UNL     1     -11.299  13.570  66.460  1.00  0.00    -0.319 C  
HETATM    4  C   UNL     1     -11.563  15.691  64.356  1.00  0.00    -0.250 C  
HETATM    5  C   UNL     1     -12.557  13.725  65.570  1.00  0.00    -0.551 C  
HETATM    6  C   UNL     1     -10.724  14.998  66.639  1.00  0.00    -0.312 C  
HETATM    7  C   UNL     1     -10.368  15.656  65.307  1.00  0.00    -0.405 C  
HETATM    8  C   UNL     1     -12.221  14.323  64.205  1.00  0.00    -0.410 C  
ENDBRANCH   2   3
BRANCH   2   9
HETATM    9  C   UNL     1     -10.889  11.229  65.832  1.00  0.00    -0.202 C  
BRANCH   9  10
HETATM   10  C   UNL     1     -10.416  10.199  66.851  1.00  0.00    -0.286 A  
HETATM   11  C   UNL     1      -9.571   8.190  68.646  1.00  0.00    -0.151 A  
HETATM   12 BR   UNL     1      -7.703   7.017  66.846  1.00  0.00    -0.104 Br 
HETATM   13  C   UNL     1      -9.461   9.231  66.471  1.00  0.00    -0.259 A  
HETATM   14  C   UNL     1      -9.028   8.258  67.370  1.00  0.00    -0.134 A  
HETATM   15  C   UNL     1     -10.559   9.101  69.013  1.00  0.00    -0.199 A  
HETATM   16 BR   UNL     1     -11.310   8.928  70.756  1.00  0.00    -0.331 Br 
HETATM   17  C   UNL     1     -10.983  10.134  68.145  1.00  0.00    -0.259 A  
HETATM   18  N   UNL     1     -12.108  10.914  68.487  1.00  0.00    -0.812 NA 
HETATM   19  H1  UNL     1     -12.517  10.868  69.421  1.00  0.00     0.000 HD 
HETATM   20  H2  UNL     1     -12.845  10.721  67.809  1.00  0.00     0.000 HD 
ENDBRANCH   9  10
ENDBRANCH   2   9
TORSDOF 3
ENDMDL
MODEL       77
REMARK 921   NORMALIZED FREE ENERGY PREDICTED BY IDOCK:   -4.26 KCAL/MOL
REMARK 922        TOTAL FREE ENERGY PREDICTED BY IDOCK:   -5.63 KCAL/MOL
REMARK 923 INTER-LIGAND FREE ENERGY PREDICTED BY IDOCK:   -5.00 KCAL/MOL
REMARK 924 INTRA-LIGAND FREE ENERGY PREDICTED BY IDOCK:   -0.63 KCAL/MOL
REMARK 927      BINDING AFFINITY PREDICTED BY RF-SCORE:    0.00 PKD
ROOT
HETATM    1  C   UNL     1      -7.340  10.499  69.446  1.00  0.00    -0.133 C  
HETATM    2  N   UNL     1      -8.699  10.613  68.887  1.00  0.00    -0.157 NA 
ENDROOT
BRANCH   2   3
HETATM    3  C   UNL     1      -9.365   9.271  68.857  1.00  0.00    -0.150 C  
HETATM    4  C   UNL     1     -11.142   9.193  71.272  1.00  0.00    -0.405 C  
HETATM    5  C   UNL     1     -10.910   9.340  68.771  1.00  0.00    -0.123 C  
HETATM    6  C   UNL     1      -9.045   8.401  70.100  1.00  0.00    -0.150 C  
HETATM    7  C   UNL     1      -9.633   8.982  71.385  1.00  0.00    -0.356 C  
HETATM    8  C   UNL     1     -11.522   9.976  70.019  1.00  0.00    -0.310 C  
ENDBRANCH   2   3
BRANCH   2   9
HETATM    9  C   UNL     1      -8.642  11.204  67.522  1.00  0.00    -0.129 C  
BRANCH   9  10
HETATM   10  C   UNL     1      -9.776  12.143  67.127  1.00  0.00    -0.203 A  
HETATM   11  C   UNL     1     -11.814  13.899  66.271  1.00  0.00    -0.431 A  
HETATM   12 BR   UNL     1     -12.484  12.392  63.950  1.00  0.00    -0.552 Br 
HETATM   13  C   UNL     1     -10.487  11.913  65.931  1.00  0.00    -0.296 A  
HETATM   14  C   UNL     1     -11.511  12.768  65.527  1.00  0.00    -0.337 A  
HETATM   15  C   UNL     1     -11.077  14.173  67.422  1.00  0.00    -0.306 A  
HETATM   16 BR   UNL     1     -11.498  15.768  68.377  1.00  0.00    -0.338 Br 
HETATM   17  C   UNL     1     -10.070  13.298  67.889  1.00  0.00    -0.235 A  
HETATM   18  N   UNL     1      -9.230  13.704  68.949  1.00  0.00    -0.392 NA 
HETATM   19  H1  UNL     1      -9.442  14.537  69.499  1.00  0.00     0.000 HD 
HETATM   20  H2  UNL     1      -8.283  13.799  68.583  1.00  0.00     0.000 HD 
ENDBRANCH   9  10
ENDBRANCH   2   9
TORSDOF 3
ENDMDL
MODEL       78
REMARK 921   NORMALIZED FREE ENERGY PREDICTED BY IDOCK:   -4.21 KCAL/MOL
REMARK 922        TOTAL FREE ENERGY PREDICTED BY IDOCK:   -5.58 KCAL/MOL
REMARK 923 INTER-LIGAND FREE ENERGY PREDICTED BY IDOCK:   -5.41 KCAL/MOL
REMARK 924 INTRA-LIGAND FREE ENERGY PREDICTED BY IDOCK:   -0.17 KCAL/MOL
REMARK 927      BINDING AFFINITY PREDICTED BY RF-SCORE:    0.00 PKD
ROOT
HETATM    1  C   UNL     1      -8.312   9.926  69.098  1.00  0.00    -0.145 C  
HETATM    2  N   UNL     1      -9.451  10.863  69.072  1.00  0.00    -0.181 NA 
ENDROOT
BRANCH   2   3
HETATM    3  C   UNL     1     -10.731  10.121  68.837  1.00  0.00    -0.223 C  
HETATM    4  C   UNL     1     -12.207  10.201  71.446  1.00  0.00    -0.492 C  
HETATM    5  C   UNL     1     -12.001  10.978  69.063  1.00  0.00    -0.364 C  
HETATM    6  C   UNL     1     -10.891   8.873  69.743  1.00  0.00    -0.207 C  
HETATM    7  C   UNL     1     -11.041   9.239  71.219  1.00  0.00    -0.427 C  
HETATM    8  C   UNL     1     -12.144  11.413  70.521  1.00  0.00    -0.487 C  
ENDBRANCH   2   3
BRANCH   2   9
HETATM    9  C   UNL     1      -9.239  11.896  68.021  1.00  0.00    -0.190 C  
BRANCH   9  10
HETATM   10  C   UNL     1      -9.573  11.500  66.587  1.00  0.00    -0.215 A  
HETATM   11  C   UNL     1     -10.057  10.795  63.896  1.00  0.00    -0.397 A  
HETATM   12 BR   UNL     1      -7.994   8.837  63.777  1.00  0.00    -0.164 Br 
HETATM   13  C   UNL     1      -8.779  10.538  65.927  1.00  0.00    -0.178 A  
HETATM   14  C   UNL     1      -9.040  10.175  64.607  1.00  0.00    -0.227 A  
HETATM   15  C   UNL     1     -10.809  11.792  64.517  1.00  0.00    -0.321 A  
HETATM   16 BR   UNL     1     -12.157  12.650  63.478  1.00  0.00    -0.638 Br 
HETATM   17  C   UNL     1     -10.607  12.147  65.870  1.00  0.00    -0.258 A  
HETATM   18  N   UNL     1     -11.262  13.280  66.399  1.00  0.00    -0.296 NA 
HETATM   19  H1  UNL     1     -12.008  13.746  65.882  1.00  0.00     0.000 HD 
HETATM   20  H2  UNL     1     -10.553  13.977  66.628  1.00  0.00     0.000 HD 
ENDBRANCH   9  10
ENDBRANCH   2   9
TORSDOF 3
ENDMDL
MODEL       79
REMARK 921   NORMALIZED FREE ENERGY PREDICTED BY IDOCK:   -4.21 KCAL/MOL
REMARK 922        TOTAL FREE ENERGY PREDICTED BY IDOCK:   -5.58 KCAL/MOL
REMARK 923 INTER-LIGAND FREE ENERGY PREDICTED BY IDOCK:   -4.89 KCAL/MOL
REMARK 924 INTRA-LIGAND FREE ENERGY PREDICTED BY IDOCK:   -0.68 KCAL/MOL
REMARK 927      BINDING AFFINITY PREDICTED BY RF-SCORE:    0.00 PKD
ROOT
HETATM    1  C   UNL     1     -10.089  13.453  68.722  1.00  0.00    -0.085 C  
HETATM    2  N   UNL     1     -11.023  12.889  67.730  1.00  0.00    -0.236 NA 
ENDROOT
BRANCH   2   3
HETATM    3  C   UNL     1     -11.900  13.966  67.169  1.00  0.00    -0.412 C  
HETATM    4  C   UNL     1     -10.979  14.371  64.343  1.00  0.00    -0.169 C  
HETATM    5  C   UNL     1     -12.729  13.521  65.938  1.00  0.00    -0.382 C  
HETATM    6  C   UNL     1     -11.113  15.224  66.720  1.00  0.00    -0.278 C  
HETATM    7  C   UNL     1     -10.201  14.947  65.525  1.00  0.00    -0.401 C  
HETATM    8  C   UNL     1     -11.838  13.175  64.745  1.00  0.00    -0.413 C  
ENDBRANCH   2   3
BRANCH   2   9
HETATM    9  C   UNL     1     -11.843  11.814  68.354  1.00  0.00    -0.282 C  
BRANCH   9  10
HETATM   10  C   UNL     1     -11.127  10.514  68.704  1.00  0.00    -0.319 A  
HETATM   11  C   UNL     1      -9.722   8.179  69.442  1.00  0.00    -0.170 A  
HETATM   12 BR   UNL     1     -10.268   8.430  72.225  1.00  0.00    -0.395 Br 
HETATM   13  C   UNL     1     -11.015  10.123  70.055  1.00  0.00    -0.364 A  
HETATM   14  C   UNL     1     -10.344   8.954  70.411  1.00  0.00    -0.204 A  
HETATM   15  C   UNL     1      -9.772   8.588  68.110  1.00  0.00    -0.155 A  
HETATM   16 BR   UNL     1      -8.855   7.516  66.828  1.00  0.00    -0.166 Br 
HETATM   17  C   UNL     1     -10.490   9.737  67.708  1.00  0.00    -0.246 A  
HETATM   18  N   UNL     1     -10.361  10.212  66.385  1.00  0.00    -0.215 NA 
HETATM   19  H1  UNL     1      -9.902   9.651  65.667  1.00  0.00     0.000 HD 
HETATM   20  H2  UNL     1      -9.901  11.122  66.419  1.00  0.00     0.000 HD 
ENDBRANCH   9  10
ENDBRANCH   2   9
TORSDOF 3
ENDMDL
MODEL       80
REMARK 921   NORMALIZED FREE ENERGY PREDICTED BY IDOCK:   -4.18 KCAL/MOL
REMARK 922        TOTAL FREE ENERGY PREDICTED BY IDOCK:   -5.54 KCAL/MOL
REMARK 923 INTER-LIGAND FREE ENERGY PREDICTED BY IDOCK:   -5.61 KCAL/MOL
REMARK 924 INTRA-LIGAND FREE ENERGY PREDICTED BY IDOCK:    0.07 KCAL/MOL
REMARK 927      BINDING AFFINITY PREDICTED BY RF-SCORE:    0.00 PKD
ROOT
HETATM    1  C   UNL     1      -8.839  13.454  66.762  1.00  0.00    -0.132 C  
HETATM    2  N   UNL     1     -10.062  12.899  66.153  1.00  0.00    -0.271 NA 
ENDROOT
BRANCH   2   3
HETATM    3  C   UNL     1     -10.296  13.511  64.805  1.00  0.00    -0.385 C  
HETATM    4  C   UNL     1     -12.529  11.931  63.574  1.00  0.00    -0.609 C  
HETATM    5  C   UNL     1     -11.726  14.076  64.614  1.00  0.00    -0.417 C  
HETATM    6  C   UNL     1     -10.070  12.519  63.635  1.00  0.00    -0.207 C  
HETATM    7  C   UNL     1     -11.101  11.391  63.618  1.00  0.00    -0.411 C  
HETATM    8  C   UNL     1     -12.785  12.976  64.657  1.00  0.00    -0.367 C  
ENDBRANCH   2   3
BRANCH   2   9
HETATM    9  C   UNL     1     -11.229  13.133  67.047  1.00  0.00    -0.294 C  
BRANCH   9  10
HETATM   10  C   UNL     1     -11.400  12.178  68.223  1.00  0.00    -0.343 A  
HETATM   11  C   UNL     1     -11.785  10.324  70.317  1.00  0.00    -0.388 A  
HETATM   12 BR   UNL     1     -10.584   8.141  68.941  1.00  0.00    -0.108 Br 
HETATM   13  C   UNL     1     -11.009  10.829  68.089  1.00  0.00    -0.308 A  
HETATM   14  C   UNL     1     -11.176   9.925  69.136  1.00  0.00    -0.107 A  
HETATM   15  C   UNL     1     -12.232  11.638  70.440  1.00  0.00    -0.347 A  
HETATM   16 BR   UNL     1     -13.110  12.119  72.063  1.00  0.00    -0.315 Br 
HETATM   17  C   UNL     1     -12.030  12.595  69.420  1.00  0.00    -0.260 A  
HETATM   18  N   UNL     1     -12.658  13.856  69.511  1.00  0.00    -0.344 NA 
HETATM   19  H1  UNL     1     -13.112  14.157  70.374  1.00  0.00     0.000 HD 
HETATM   20  H2  UNL     1     -13.338  13.926  68.755  1.00  0.00     0.000 HD 
ENDBRANCH   9  10
ENDBRANCH   2   9
TORSDOF 3
ENDMDL
MODEL       81
REMARK 921   NORMALIZED FREE ENERGY PREDICTED BY IDOCK:   -4.16 KCAL/MOL
REMARK 922        TOTAL FREE ENERGY PREDICTED BY IDOCK:   -5.51 KCAL/MOL
REMARK 923 INTER-LIGAND FREE ENERGY PREDICTED BY IDOCK:   -5.12 KCAL/MOL
REMARK 924 INTRA-LIGAND FREE ENERGY PREDICTED BY IDOCK:   -0.40 KCAL/MOL
REMARK 927      BINDING AFFINITY PREDICTED BY RF-SCORE:    0.00 PKD
ROOT
HETATM    1  C   UNL     1     -10.674  10.999  64.607  1.00  0.00    -0.248 C  
HETATM    2  N   UNL     1     -10.327  11.561  65.925  1.00  0.00    -0.239 NA 
ENDROOT
BRANCH   2   3
HETATM    3  C   UNL     1      -9.919  12.996  65.789  1.00  0.00    -0.254 C  
HETATM    4  C   UNL     1     -12.010  14.574  67.251  1.00  0.00    -0.375 C  
HETATM    5  C   UNL     1      -9.653  13.702  67.142  1.00  0.00    -0.241 C  
HETATM    6  C   UNL     1     -10.973  13.865  65.055  1.00  0.00    -0.371 C  
HETATM    7  C   UNL     1     -12.268  14.011  65.854  1.00  0.00    -0.481 C  
HETATM    8  C   UNL     1     -10.919  13.805  67.991  1.00  0.00    -0.268 C  
ENDBRANCH   2   3
BRANCH   2   9
HETATM    9  C   UNL     1      -9.237  10.761  66.550  1.00  0.00    -0.168 C  
BRANCH   9  10
HETATM   10  C   UNL     1      -9.657   9.557  67.385  1.00  0.00    -0.178 A  
HETATM   11  C   UNL     1     -10.543   7.310  68.847  1.00  0.00    -0.207 A  
HETATM   12 BR   UNL     1     -10.595   5.558  66.604  1.00  0.00    -0.321 Br 
HETATM   13  C   UNL     1      -9.912   8.323  66.750  1.00  0.00    -0.355 A  
HETATM   14  C   UNL     1     -10.323   7.210  67.481  1.00  0.00    -0.236 A  
HETATM   15  C   UNL     1     -10.355   8.539  69.477  1.00  0.00    -0.218 A  
HETATM   16 BR   UNL     1     -10.725   8.634  71.345  1.00  0.00    -0.365 Br 
HETATM   17  C   UNL     1      -9.887   9.674  68.776  1.00  0.00    -0.165 A  
HETATM   18  N   UNL     1      -9.887  10.934  69.411  1.00  0.00    -0.428 NA 
HETATM   19  H1  UNL     1     -10.052  11.019  70.415  1.00  0.00     0.000 HD 
HETATM   20  H2  UNL     1     -10.558  11.531  68.929  1.00  0.00     0.000 HD 
ENDBRANCH   9  10
ENDBRANCH   2   9
TORSDOF 3
ENDMDL
MODEL       82
REMARK 921   NORMALIZED FREE ENERGY PREDICTED BY IDOCK:   -4.15 KCAL/MOL
REMARK 922        TOTAL FREE ENERGY PREDICTED BY IDOCK:   -5.51 KCAL/MOL
REMARK 923 INTER-LIGAND FREE ENERGY PREDICTED BY IDOCK:   -4.95 KCAL/MOL
REMARK 924 INTRA-LIGAND FREE ENERGY PREDICTED BY IDOCK:   -0.56 KCAL/MOL
REMARK 927      BINDING AFFINITY PREDICTED BY RF-SCORE:    0.00 PKD
ROOT
HETATM    1  C   UNL     1      -7.307   6.994  67.321  1.00  0.00    -0.091 C  
HETATM    2  N   UNL     1      -8.758   7.237  67.223  1.00  0.00    -0.120 NA 
ENDROOT
BRANCH   2   3
HETATM    3  C   UNL     1      -9.511   5.947  67.348  1.00  0.00    -0.111 C  
HETATM    4  C   UNL     1     -10.669   5.950  70.114  1.00  0.00    -0.389 C  
HETATM    5  C   UNL     1     -11.023   6.131  67.631  1.00  0.00    -0.400 C  
HETATM    6  C   UNL     1      -8.974   5.031  68.478  1.00  0.00    -0.125 C  
HETATM    7  C   UNL     1      -9.196   5.627  69.867  1.00  0.00    -0.173 C  
HETATM    8  C   UNL     1     -11.274   6.784  68.989  1.00  0.00    -0.214 C  
ENDBRANCH   2   3
BRANCH   2   9
HETATM    9  C   UNL     1      -9.078   7.911  65.935  1.00  0.00    -0.087 C  
BRANCH   9  10
HETATM   10  C   UNL     1      -9.732   9.285  66.018  1.00  0.00    -0.359 A  
HETATM   11  C   UNL     1     -11.058  11.769  66.225  1.00  0.00    -0.364 A  
HETATM   12 BR   UNL     1     -11.597  11.532  69.010  1.00  0.00    -0.420 Br 
HETATM   13  C   UNL     1     -10.289   9.719  67.240  1.00  0.00    -0.308 A  
HETATM   14  C   UNL     1     -10.918  10.958  67.342  1.00  0.00    -0.293 A  
HETATM   15  C   UNL     1     -10.567  11.325  64.998  1.00  0.00    -0.289 A  
HETATM   16 BR   UNL     1     -10.834  12.454  63.485  1.00  0.00    -0.428 Br 
HETATM   17  C   UNL     1      -9.876  10.099  64.870  1.00  0.00    -0.319 A  
HETATM   18  N   UNL     1      -9.561   9.608  63.584  1.00  0.00    -0.458 NA 
HETATM   19  H1  UNL     1      -9.664  10.195  62.756  1.00  0.00     0.000 HD 
HETATM   20  H2  UNL     1     -10.094   8.751  63.434  1.00  0.00     0.000 HD 
ENDBRANCH   9  10
ENDBRANCH   2   9
TORSDOF 3
ENDMDL
MODEL       83
REMARK 921   NORMALIZED FREE ENERGY PREDICTED BY IDOCK:   -4.14 KCAL/MOL
REMARK 922        TOTAL FREE ENERGY PREDICTED BY IDOCK:   -5.49 KCAL/MOL
REMARK 923 INTER-LIGAND FREE ENERGY PREDICTED BY IDOCK:   -5.05 KCAL/MOL
REMARK 924 INTRA-LIGAND FREE ENERGY PREDICTED BY IDOCK:   -0.44 KCAL/MOL
REMARK 927      BINDING AFFINITY PREDICTED BY RF-SCORE:    0.00 PKD
ROOT
HETATM    1  C   UNL     1     -11.894   6.556  70.253  1.00  0.00    -0.295 C  
HETATM    2  N   UNL     1     -11.403   7.481  71.290  1.00  0.00    -0.255 NA 
ENDROOT
BRANCH   2   3
HETATM    3  C   UNL     1     -11.228   6.760  72.592  1.00  0.00    -0.255 C  
HETATM    4  C   UNL     1      -8.267   6.599  73.038  1.00  0.00    -0.116 C  
HETATM    5  C   UNL     1     -10.490   7.589  73.672  1.00  0.00    -0.285 C  
HETATM    6  C   UNL     1     -10.435   5.435  72.456  1.00  0.00    -0.262 C  
HETATM    7  C   UNL     1      -8.977   5.665  72.060  1.00  0.00    -0.142 C  
HETATM    8  C   UNL     1      -9.046   7.889  73.274  1.00  0.00    -0.341 C  
ENDBRANCH   2   3
BRANCH   2   9
HETATM    9  C   UNL     1     -12.345   8.624  71.443  1.00  0.00    -0.304 C  
BRANCH   9  10
HETATM   10  C   UNL     1     -11.988   9.916  70.717  1.00  0.00    -0.410 A  
HETATM   11  C   UNL     1     -11.194  12.290  69.412  1.00  0.00    -0.243 A  
HETATM   12 BR   UNL     1      -9.204  11.038  67.806  1.00  0.00    -0.161 Br 
HETATM   13  C   UNL     1     -10.940   9.918  69.772  1.00  0.00    -0.304 A  
HETATM   14  C   UNL     1     -10.570  11.087  69.111  1.00  0.00    -0.219 A  
HETATM   15  C   UNL     1     -12.188  12.314  70.389  1.00  0.00    -0.288 A  
HETATM   16 BR   UNL     1     -12.973  14.002  70.802  1.00  0.00    -0.238 Br 
HETATM   17  C   UNL     1     -12.625  11.138  71.039  1.00  0.00    -0.403 A  
HETATM   18  N   UNL     1     -13.498  11.235  72.144  1.00  0.00    -0.528 NA 
HETATM   19  H1  UNL     1     -13.957  12.116  72.376  1.00  0.00     0.000 HD 
HETATM   20  H2  UNL     1     -12.998  10.911  72.972  1.00  0.00     0.000 HD 
ENDBRANCH   9  10
ENDBRANCH   2   9
TORSDOF 3
ENDMDL
MODEL       84
REMARK 921   NORMALIZED FREE ENERGY PREDICTED BY IDOCK:   -4.13 KCAL/MOL
REMARK 922        TOTAL FREE ENERGY PREDICTED BY IDOCK:   -5.48 KCAL/MOL
REMARK 923 INTER-LIGAND FREE ENERGY PREDICTED BY IDOCK:   -6.56 KCAL/MOL
REMARK 924 INTRA-LIGAND FREE ENERGY PREDICTED BY IDOCK:    1.08 KCAL/MOL
REMARK 927      BINDING AFFINITY PREDICTED BY RF-SCORE:    0.00 PKD
ROOT
HETATM    1  C   UNL     1     -10.934   8.732  69.957  1.00  0.00    -0.209 C  
HETATM    2  N   UNL     1     -11.380   9.767  70.908  1.00  0.00    -0.336 NA 
ENDROOT
BRANCH   2   3
HETATM    3  C   UNL     1     -11.804   9.140  72.200  1.00  0.00    -0.263 C  
HETATM    4  C   UNL     1     -13.806   7.032  71.460  1.00  0.00    -0.359 C  
HETATM    5  C   UNL     1     -11.505   7.622  72.287  1.00  0.00    -0.366 C  
HETATM    6  C   UNL     1     -13.320   9.292  72.487  1.00  0.00    -0.463 C  
HETATM    7  C   UNL     1     -14.183   8.513  71.495  1.00  0.00    -0.448 C  
HETATM    8  C   UNL     1     -12.308   6.823  71.262  1.00  0.00    -0.395 C  
ENDBRANCH   2   3
BRANCH   2   9
HETATM    9  C   UNL     1     -12.493  10.559  70.316  1.00  0.00    -0.271 C  
BRANCH   9  10
HETATM   10  C   UNL     1     -12.229  12.038  70.060  1.00  0.00    -0.280 A  
HETATM   11  C   UNL     1     -11.871  14.805  69.624  1.00  0.00    -0.362 A  
HETATM   12 BR   UNL     1     -12.624  15.571  72.261  1.00  0.00    -0.534 Br 
HETATM   13  C   UNL     1     -12.506  12.981  71.072  1.00  0.00    -0.385 A  
HETATM   14  C   UNL     1     -12.301  14.343  70.860  1.00  0.00    -0.349 A  
HETATM   15  C   UNL     1     -11.654  13.889  68.596  1.00  0.00    -0.328 A  
HETATM   16 BR   UNL     1     -11.118  14.581  66.902  1.00  0.00    -0.338 Br 
HETATM   17  C   UNL     1     -11.799  12.497  68.792  1.00  0.00    -0.303 A  
HETATM   18  N   UNL     1     -11.748  11.627  67.682  1.00  0.00    -0.574 NA 
HETATM   19  H1  UNL     1     -11.438  11.958  66.767  1.00  0.00     0.000 HD 
HETATM   20  H2  UNL     1     -12.669  11.203  67.569  1.00  0.00     0.000 HD 
ENDBRANCH   9  10
ENDBRANCH   2   9
TORSDOF 3
ENDMDL
MODEL       85
REMARK 921   NORMALIZED FREE ENERGY PREDICTED BY IDOCK:   -4.13 KCAL/MOL
REMARK 922        TOTAL FREE ENERGY PREDICTED BY IDOCK:   -5.48 KCAL/MOL
REMARK 923 INTER-LIGAND FREE ENERGY PREDICTED BY IDOCK:   -4.78 KCAL/MOL
REMARK 924 INTRA-LIGAND FREE ENERGY PREDICTED BY IDOCK:   -0.70 KCAL/MOL
REMARK 927      BINDING AFFINITY PREDICTED BY RF-SCORE:    0.00 PKD
ROOT
HETATM    1  C   UNL     1     -10.866   9.399  69.681  1.00  0.00    -0.228 C  
HETATM    2  N   UNL     1     -10.197   9.047  68.415  1.00  0.00    -0.195 NA 
ENDROOT
BRANCH   2   3
HETATM    3  C   UNL     1      -9.241   7.913  68.629  1.00  0.00    -0.142 C  
HETATM    4  C   UNL     1     -10.360   5.607  67.072  1.00  0.00    -0.306 C  
HETATM    5  C   UNL     1      -8.597   7.383  67.324  1.00  0.00    -0.118 C  
HETATM    6  C   UNL     1      -9.894   6.684  69.312  1.00  0.00    -0.157 C  
HETATM    7  C   UNL     1     -10.941   6.011  68.426  1.00  0.00    -0.340 C  
HETATM    8  C   UNL     1      -9.632   6.761  66.388  1.00  0.00    -0.149 C  
ENDBRANCH   2   3
BRANCH   2   9
HETATM    9  C   UNL     1      -9.489  10.235  67.864  1.00  0.00    -0.141 C  
BRANCH   9  10
HETATM   10  C   UNL     1      -9.993  10.784  66.534  1.00  0.00    -0.260 A  
HETATM   11  C   UNL     1     -10.794  11.834  64.038  1.00  0.00    -0.446 A  
HETATM   12 BR   UNL     1      -9.061  10.176  62.503  1.00  0.00    -0.335 Br 
HETATM   13  C   UNL     1      -9.407  10.339  65.330  1.00  0.00    -0.267 A  
HETATM   14  C   UNL     1      -9.825  10.841  64.099  1.00  0.00    -0.326 A  
HETATM   15  C   UNL     1     -11.336  12.326  65.224  1.00  0.00    -0.338 A  
HETATM   16 BR   UNL     1     -12.622  13.727  65.086  1.00  0.00    -0.450 Br 
HETATM   17  C   UNL     1     -10.974  11.802  66.486  1.00  0.00    -0.295 A  
HETATM   18  N   UNL     1     -11.408  12.452  67.661  1.00  0.00    -0.291 NA 
HETATM   19  H1  UNL     1     -12.116  13.186  67.626  1.00  0.00     0.000 HD 
HETATM   20  H2  UNL     1     -10.587  12.826  68.137  1.00  0.00     0.000 HD 
ENDBRANCH   9  10
ENDBRANCH   2   9
TORSDOF 3
ENDMDL
MODEL       86
REMARK 921   NORMALIZED FREE ENERGY PREDICTED BY IDOCK:   -4.11 KCAL/MOL
REMARK 922        TOTAL FREE ENERGY PREDICTED BY IDOCK:   -5.46 KCAL/MOL
REMARK 923 INTER-LIGAND FREE ENERGY PREDICTED BY IDOCK:   -4.75 KCAL/MOL
REMARK 924 INTRA-LIGAND FREE ENERGY PREDICTED BY IDOCK:   -0.71 KCAL/MOL
REMARK 927      BINDING AFFINITY PREDICTED BY RF-SCORE:    0.00 PKD
ROOT
HETATM    1  C   UNL     1      -7.380  10.763  68.659  1.00  0.00    -0.097 C  
HETATM    2  N   UNL     1      -8.625   9.973  68.630  1.00  0.00    -0.118 NA 
ENDROOT
BRANCH   2   3
HETATM    3  C   UNL     1      -9.164   9.901  67.234  1.00  0.00    -0.138 C  
HETATM    4  C   UNL     1      -9.569   6.983  66.671  1.00  0.00    -0.220 C  
HETATM    5  C   UNL     1     -10.564   9.245  67.138  1.00  0.00    -0.286 C  
HETATM    6  C   UNL     1      -8.252   9.104  66.266  1.00  0.00    -0.111 C  
HETATM    7  C   UNL     1      -8.181   7.620  66.621  1.00  0.00    -0.124 C  
HETATM    8  C   UNL     1     -10.535   7.774  67.548  1.00  0.00    -0.338 C  
ENDBRANCH   2   3
BRANCH   2   9
HETATM    9  C   UNL     1      -9.630  10.569  69.553  1.00  0.00    -0.098 C  
BRANCH   9  10
HETATM   10  C   UNL     1     -10.243   9.643  70.598  1.00  0.00    -0.346 A  
HETATM   11  C   UNL     1     -11.450   8.039  72.583  1.00  0.00    -0.465 A  
HETATM   12 BR   UNL     1     -14.120   8.678  71.830  1.00  0.00    -0.517 Br 
HETATM   13  C   UNL     1     -11.645   9.588  70.743  1.00  0.00    -0.378 A  
HETATM   14  C   UNL     1     -12.236   8.773  71.707  1.00  0.00    -0.349 A  
HETATM   15  C   UNL     1     -10.062   8.132  72.491  1.00  0.00    -0.300 A  
HETATM   16 BR   UNL     1      -9.029   7.146  73.754  1.00  0.00    -0.250 Br 
HETATM   17  C   UNL     1      -9.430   8.906  71.491  1.00  0.00    -0.277 A  
HETATM   18  N   UNL     1      -8.035   9.117  71.550  1.00  0.00    -0.338 NA 
HETATM   19  H1  UNL     1      -7.449   8.585  72.194  1.00  0.00     0.000 HD 
HETATM   20  H2  UNL     1      -7.872  10.109  71.720  1.00  0.00     0.000 HD 
ENDBRANCH   9  10
ENDBRANCH   2   9
TORSDOF 3
ENDMDL
MODEL       87
REMARK 921   NORMALIZED FREE ENERGY PREDICTED BY IDOCK:   -4.10 KCAL/MOL
REMARK 922        TOTAL FREE ENERGY PREDICTED BY IDOCK:   -5.45 KCAL/MOL
REMARK 923 INTER-LIGAND FREE ENERGY PREDICTED BY IDOCK:   -4.96 KCAL/MOL
REMARK 924 INTRA-LIGAND FREE ENERGY PREDICTED BY IDOCK:   -0.49 KCAL/MOL
REMARK 927      BINDING AFFINITY PREDICTED BY RF-SCORE:    0.00 PKD
ROOT
HETATM    1  C   UNL     1      -7.980   7.466  71.062  1.00  0.00    -0.097 C  
HETATM    2  N   UNL     1      -9.309   7.668  70.455  1.00  0.00    -0.163 NA 
ENDROOT
BRANCH   2   3
HETATM    3  C   UNL     1      -9.938   6.349  70.127  1.00  0.00    -0.171 C  
HETATM    4  C   UNL     1     -11.808   5.755  72.395  1.00  0.00    -0.227 C  
HETATM    5  C   UNL     1     -11.480   6.407  69.988  1.00  0.00    -0.496 C  
HETATM    6  C   UNL     1      -9.646   5.252  71.183  1.00  0.00    -0.218 C  
HETATM    7  C   UNL     1     -10.300   5.551  72.532  1.00  0.00    -0.246 C  
HETATM    8  C   UNL     1     -12.158   6.768  71.309  1.00  0.00    -0.421 C  
ENDBRANCH   2   3
BRANCH   2   9
HETATM    9  C   UNL     1      -9.191   8.513  69.236  1.00  0.00    -0.153 C  
BRANCH   9  10
HETATM   10  C   UNL     1     -10.137   9.704  69.126  1.00  0.00    -0.196 A  
HETATM   11  C   UNL     1     -11.994  11.824  68.963  1.00  0.00    -0.341 A  
HETATM   12 BR   UNL     1     -12.885  11.582  71.656  1.00  0.00    -0.397 Br 
HETATM   13  C   UNL     1     -10.955  10.047  70.223  1.00  0.00    -0.377 A  
HETATM   14  C   UNL     1     -11.851  11.112  70.146  1.00  0.00    -0.365 A  
HETATM   15  C   UNL     1     -11.237  11.456  67.853  1.00  0.00    -0.288 A  
HETATM   16 BR   UNL     1     -11.513  12.431  66.238  1.00  0.00    -0.443 Br 
HETATM   17  C   UNL     1     -10.281  10.416  67.912  1.00  0.00    -0.179 A  
HETATM   18  N   UNL     1      -9.674   9.959  66.722  1.00  0.00    -0.182 NA 
HETATM   19  H1  UNL     1      -9.777  10.473  65.847  1.00  0.00     0.000 HD 
HETATM   20  H2  UNL     1      -9.976   8.998  66.563  1.00  0.00     0.000 HD 
ENDBRANCH   9  10
ENDBRANCH   2   9
TORSDOF 3
ENDMDL
MODEL       88
REMARK 921   NORMALIZED FREE ENERGY PREDICTED BY IDOCK:   -4.09 KCAL/MOL
REMARK 922        TOTAL FREE ENERGY PREDICTED BY IDOCK:   -5.44 KCAL/MOL
REMARK 923 INTER-LIGAND FREE ENERGY PREDICTED BY IDOCK:   -4.79 KCAL/MOL
REMARK 924 INTRA-LIGAND FREE ENERGY PREDICTED BY IDOCK:   -0.65 KCAL/MOL
REMARK 927      BINDING AFFINITY PREDICTED BY RF-SCORE:    0.00 PKD
ROOT
HETATM    1  C   UNL     1      -8.487   9.720  67.189  1.00  0.00    -0.125 C  
HETATM    2  N   UNL     1      -9.760   8.985  67.300  1.00  0.00    -0.168 NA 
ENDROOT
BRANCH   2   3
HETATM    3  C   UNL     1      -9.601   7.586  66.788  1.00  0.00    -0.206 C  
HETATM    4  C   UNL     1      -9.902   5.806  69.183  1.00  0.00    -0.211 C  
HETATM    5  C   UNL     1     -10.841   6.688  67.023  1.00  0.00    -0.467 C  
HETATM    6  C   UNL     1      -8.404   6.834  67.424  1.00  0.00    -0.122 C  
HETATM    7  C   UNL     1      -8.606   6.570  68.915  1.00  0.00    -0.125 C  
HETATM    8  C   UNL     1     -11.106   6.459  68.510  1.00  0.00    -0.385 C  
ENDBRANCH   2   3
BRANCH   2   9
HETATM    9  C   UNL     1     -10.830   9.701  66.552  1.00  0.00     0.144 C  
BRANCH   9  10
HETATM   10  C   UNL     1     -11.156  11.121  67.002  1.00  0.00    -0.339 A  
HETATM   11  C   UNL     1     -11.628  13.787  67.800  1.00  0.00    -0.381 A  
HETATM   12 BR   UNL     1     -10.887  14.931  65.300  1.00  0.00    -0.431 Br 
HETATM   13  C   UNL     1     -10.910  12.201  66.129  1.00  0.00    -0.317 A  
HETATM   14  C   UNL     1     -11.170  13.514  66.519  1.00  0.00    -0.306 A  
HETATM   15  C   UNL     1     -11.816  12.734  68.693  1.00  0.00    -0.304 A  
HETATM   16 BR   UNL     1     -12.393  13.170  70.457  1.00  0.00    -0.320 Br 
HETATM   17  C   UNL     1     -11.613  11.387  68.313  1.00  0.00    -0.306 A  
HETATM   18  N   UNL     1     -11.638  10.374  69.296  1.00  0.00    -0.423 NA 
HETATM   19  H1  UNL     1     -11.968  10.567  70.242  1.00  0.00     0.000 HD 
HETATM   20  H2  UNL     1     -10.701   9.976  69.363  1.00  0.00     0.000 HD 
ENDBRANCH   9  10
ENDBRANCH   2   9
TORSDOF 3
ENDMDL
MODEL       89
REMARK 921   NORMALIZED FREE ENERGY PREDICTED BY IDOCK:   -4.08 KCAL/MOL
REMARK 922        TOTAL FREE ENERGY PREDICTED BY IDOCK:   -5.43 KCAL/MOL
REMARK 923 INTER-LIGAND FREE ENERGY PREDICTED BY IDOCK:   -4.81 KCAL/MOL
REMARK 924 INTRA-LIGAND FREE ENERGY PREDICTED BY IDOCK:   -0.62 KCAL/MOL
REMARK 927      BINDING AFFINITY PREDICTED BY RF-SCORE:    0.00 PKD
ROOT
HETATM    1  C   UNL     1     -10.835   7.441  67.105  1.00  0.00    -0.270 C  
HETATM    2  N   UNL     1     -10.130   8.722  66.915  1.00  0.00    -0.252 NA 
ENDROOT
BRANCH   2   3
HETATM    3  C   UNL     1      -8.649   8.524  67.031  1.00  0.00    -0.121 C  
HETATM    4  C   UNL     1      -7.510   9.364  64.387  1.00  0.00    -0.110 C  
HETATM    5  C   UNL     1      -7.827   9.823  66.840  1.00  0.00    -0.102 C  
HETATM    6  C   UNL     1      -8.085   7.508  66.005  1.00  0.00    -0.123 C  
HETATM    7  C   UNL     1      -8.194   8.010  64.566  1.00  0.00    -0.097 C  
HETATM    8  C   UNL     1      -7.968  10.384  65.425  1.00  0.00    -0.147 C  
ENDBRANCH   2   3
BRANCH   2   9
HETATM    9  C   UNL     1     -10.607   9.720  67.911  1.00  0.00    -0.259 C  
BRANCH   9  10
HETATM   10  C   UNL     1     -11.115  11.051  67.367  1.00  0.00    -0.370 A  
HETATM   11  C   UNL     1     -11.945  13.518  66.274  1.00  0.00    -0.457 A  
HETATM   12 BR   UNL     1     -11.975  12.599  63.580  1.00  0.00    -0.639 Br 
HETATM   13  C   UNL     1     -11.276  11.219  65.976  1.00  0.00    -0.108 A  
HETATM   14  C   UNL     1     -11.712  12.431  65.444  1.00  0.00    -0.402 A  
HETATM   15  C   UNL     1     -11.731  13.384  67.645  1.00  0.00    -0.359 A  
HETATM   16 BR   UNL     1     -12.013  14.924  68.732  1.00  0.00    -0.237 Br 
HETATM   17  C   UNL     1     -11.341  12.155  68.223  1.00  0.00    -0.289 A  
HETATM   18  N   UNL     1     -10.959  12.113  69.582  1.00  0.00    -0.466 NA 
HETATM   19  H1  UNL     1     -11.122  12.909  70.199  1.00  0.00     0.000 HD 
HETATM   20  H2  UNL     1      -9.968  11.877  69.624  1.00  0.00     0.000 HD 
ENDBRANCH   9  10
ENDBRANCH   2   9
TORSDOF 3
ENDMDL
MODEL       90
REMARK 921   NORMALIZED FREE ENERGY PREDICTED BY IDOCK:   -4.07 KCAL/MOL
REMARK 922        TOTAL FREE ENERGY PREDICTED BY IDOCK:   -5.41 KCAL/MOL
REMARK 923 INTER-LIGAND FREE ENERGY PREDICTED BY IDOCK:   -4.94 KCAL/MOL
REMARK 924 INTRA-LIGAND FREE ENERGY PREDICTED BY IDOCK:   -0.47 KCAL/MOL
REMARK 927      BINDING AFFINITY PREDICTED BY RF-SCORE:    0.00 PKD
ROOT
HETATM    1  C   UNL     1     -12.403  13.395  65.800  1.00  0.00    -0.460 C  
HETATM    2  N   UNL     1     -11.232  13.104  66.647  1.00  0.00    -0.296 NA 
ENDROOT
BRANCH   2   3
HETATM    3  C   UNL     1     -10.023  13.822  66.130  1.00  0.00    -0.308 C  
HETATM    4  C   UNL     1      -9.411  15.944  68.160  1.00  0.00    -0.203 C  
HETATM    5  C   UNL     1      -8.801  13.755  67.080  1.00  0.00    -0.240 C  
HETATM    6  C   UNL     1     -10.274  15.329  65.864  1.00  0.00    -0.353 C  
HETATM    7  C   UNL     1     -10.543  16.112  67.148  1.00  0.00    -0.294 C  
HETATM    8  C   UNL     1      -9.065  14.477  68.401  1.00  0.00    -0.191 C  
ENDBRANCH   2   3
BRANCH   2   9
HETATM    9  C   UNL     1     -10.990  11.635  66.697  1.00  0.00    -0.299 C  
BRANCH   9  10
HETATM   10  C   UNL     1     -10.861  11.003  68.078  1.00  0.00    -0.278 A  
HETATM   11  C   UNL     1     -10.665   9.953  70.692  1.00  0.00    -0.372 A  
HETATM   12 BR   UNL     1     -13.360  10.539  71.399  1.00  0.00    -0.251 Br 
HETATM   13  C   UNL     1     -11.952  11.053  68.972  1.00  0.00    -0.364 A  
HETATM   14  C   UNL     1     -11.858  10.509  70.252  1.00  0.00    -0.331 A  
HETATM   15  C   UNL     1      -9.561   9.954  69.841  1.00  0.00    -0.227 A  
HETATM   16 BR   UNL     1      -7.932   9.229  70.515  1.00  0.00    -0.201 Br 
HETATM   17  C   UNL     1      -9.637  10.448  68.519  1.00  0.00    -0.158 A  
HETATM   18  N   UNL     1      -8.455  10.596  67.761  1.00  0.00    -0.115 NA 
HETATM   19  H1  UNL     1      -7.572  10.195  68.078  1.00  0.00     0.000 HD 
HETATM   20  H2  UNL     1      -8.309  11.592  67.594  1.00  0.00     0.000 HD 
ENDBRANCH   9  10
ENDBRANCH   2   9
TORSDOF 3
ENDMDL
MODEL       91
REMARK 921   NORMALIZED FREE ENERGY PREDICTED BY IDOCK:   -4.06 KCAL/MOL
REMARK 922        TOTAL FREE ENERGY PREDICTED BY IDOCK:   -5.40 KCAL/MOL
REMARK 923 INTER-LIGAND FREE ENERGY PREDICTED BY IDOCK:   -4.73 KCAL/MOL
REMARK 924 INTRA-LIGAND FREE ENERGY PREDICTED BY IDOCK:   -0.68 KCAL/MOL
REMARK 927      BINDING AFFINITY PREDICTED BY RF-SCORE:    0.00 PKD
ROOT
HETATM    1  C   UNL     1      -9.792   8.801  66.863  1.00  0.00    -0.229 C  
HETATM    2  N   UNL     1     -10.164   9.356  68.178  1.00  0.00    -0.190 NA 
ENDROOT
BRANCH   2   3
HETATM    3  C   UNL     1     -10.614   8.262  69.097  1.00  0.00    -0.165 C  
HETATM    4  C   UNL     1      -9.197   8.750  71.694  1.00  0.00    -0.333 C  
HETATM    5  C   UNL     1     -11.335   8.771  70.370  1.00  0.00    -0.213 C  
HETATM    6  C   UNL     1      -9.453   7.363  69.595  1.00  0.00    -0.156 C  
HETATM    7  C   UNL     1      -8.481   8.115  70.503  1.00  0.00    -0.125 C  
HETATM    8  C   UNL     1     -10.402   9.583  71.267  1.00  0.00    -0.287 C  
ENDBRANCH   2   3
BRANCH   2   9
HETATM    9  C   UNL     1     -11.231  10.381  68.016  1.00  0.00    -0.272 C  
BRANCH   9  10
HETATM   10  C   UNL     1     -10.843  11.677  67.313  1.00  0.00    -0.302 A  
HETATM   11  C   UNL     1     -10.108  14.003  65.892  1.00  0.00    -0.336 A  
HETATM   12 BR   UNL     1     -12.094  13.702  63.875  1.00  0.00    -0.391 Br 
HETATM   13  C   UNL     1     -11.500  12.045  66.119  1.00  0.00    -0.401 A  
HETATM   14  C   UNL     1     -11.151  13.209  65.436  1.00  0.00    -0.278 A  
HETATM   15  C   UNL     1      -9.410  13.618  67.035  1.00  0.00    -0.248 A  
HETATM   16 BR   UNL     1      -7.951  14.715  67.585  1.00  0.00    -0.212 Br 
HETATM   17  C   UNL     1      -9.772  12.474  67.781  1.00  0.00    -0.202 A  
HETATM   18  N   UNL     1      -8.929  12.023  68.820  1.00  0.00    -0.386 NA 
HETATM   19  H1  UNL     1      -8.157  12.597  69.158  1.00  0.00     0.000 HD 
HETATM   20  H2  UNL     1      -8.552  11.114  68.549  1.00  0.00     0.000 HD 
ENDBRANCH   9  10
ENDBRANCH   2   9
TORSDOF 3
ENDMDL
MODEL       92
REMARK 921   NORMALIZED FREE ENERGY PREDICTED BY IDOCK:   -4.04 KCAL/MOL
REMARK 922        TOTAL FREE ENERGY PREDICTED BY IDOCK:   -5.37 KCAL/MOL
REMARK 923 INTER-LIGAND FREE ENERGY PREDICTED BY IDOCK:   -5.46 KCAL/MOL
REMARK 924 INTRA-LIGAND FREE ENERGY PREDICTED BY IDOCK:    0.09 KCAL/MOL
REMARK 927      BINDING AFFINITY PREDICTED BY RF-SCORE:    0.00 PKD
ROOT
HETATM    1  C   UNL     1      -7.741  16.148  66.741  1.00  0.00    -0.253 C  
HETATM    2  N   UNL     1      -8.420  17.335  66.189  1.00  0.00    -0.479 NA 
ENDROOT
BRANCH   2   3
HETATM    3  C   UNL     1      -8.153  18.535  67.045  1.00  0.00    -0.248 C  
HETATM    4  C   UNL     1      -5.777  19.893  65.817  1.00  0.00    -0.193 C  
HETATM    5  C   UNL     1      -8.249  19.880  66.284  1.00  0.00    -0.357 C  
HETATM    6  C   UNL     1      -6.749  18.516  67.703  1.00  0.00    -0.200 C  
HETATM    7  C   UNL     1      -5.622  18.640  66.678  1.00  0.00    -0.166 C  
HETATM    8  C   UNL     1      -7.171  20.005  65.207  1.00  0.00    -0.176 C  
ENDBRANCH   2   3
BRANCH   2   9
HETATM    9  C   UNL     1      -9.883  17.081  66.080  1.00  0.00    -0.278 C  
BRANCH   9  10
HETATM   10  C   UNL     1     -10.463  15.990  66.974  1.00  0.00    -0.307 A  
HETATM   11  C   UNL     1     -11.638  13.949  68.532  1.00  0.00    -0.367 A  
HETATM   12 BR   UNL     1     -11.512  11.972  66.488  1.00  0.00    -0.378 Br 
HETATM   13  C   UNL     1     -10.705  14.707  66.439  1.00  0.00    -0.309 A  
HETATM   14  C   UNL     1     -11.260  13.696  67.220  1.00  0.00    -0.309 A  
HETATM   15  C   UNL     1     -11.462  15.230  69.053  1.00  0.00    -0.324 A  
HETATM   16 BR   UNL     1     -12.048  15.539  70.841  1.00  0.00    -0.482 Br 
HETATM   17  C   UNL     1     -10.852  16.264  68.306  1.00  0.00    -0.340 A  
HETATM   18  N   UNL     1     -10.862  17.584  68.806  1.00  0.00    -0.294 NA 
HETATM   19  H1  UNL     1     -11.142  17.781  69.767  1.00  0.00     0.000 HD 
HETATM   20  H2  UNL     1     -11.438  18.153  68.185  1.00  0.00     0.000 HD 
ENDBRANCH   9  10
ENDBRANCH   2   9
TORSDOF 3
ENDMDL
MODEL       93
REMARK 921   NORMALIZED FREE ENERGY PREDICTED BY IDOCK:   -4.03 KCAL/MOL
REMARK 922        TOTAL FREE ENERGY PREDICTED BY IDOCK:   -5.36 KCAL/MOL
REMARK 923 INTER-LIGAND FREE ENERGY PREDICTED BY IDOCK:   -5.40 KCAL/MOL
REMARK 924 INTRA-LIGAND FREE ENERGY PREDICTED BY IDOCK:    0.04 KCAL/MOL
REMARK 927      BINDING AFFINITY PREDICTED BY RF-SCORE:    0.00 PKD
ROOT
HETATM    1  C   UNL     1     -12.261  11.563  70.526  1.00  0.00    -0.377 C  
HETATM    2  N   UNL     1     -11.816  10.173  70.317  1.00  0.00    -0.270 NA 
ENDROOT
BRANCH   2   3
HETATM    3  C   UNL     1     -11.755   9.443  71.624  1.00  0.00    -0.398 C  
HETATM    4  C   UNL     1     -13.405   6.967  71.248  1.00  0.00    -0.282 C  
HETATM    5  C   UNL     1     -11.140   8.025  71.522  1.00  0.00    -0.290 C  
HETATM    6  C   UNL     1     -13.145   9.258  72.287  1.00  0.00    -0.517 C  
HETATM    7  C   UNL     1     -14.055   8.330  71.485  1.00  0.00    -0.446 C  
HETATM    8  C   UNL     1     -11.999   7.091  70.670  1.00  0.00    -0.361 C  
ENDBRANCH   2   3
BRANCH   2   9
HETATM    9  C   UNL     1     -10.488  10.157  69.644  1.00  0.00    -0.252 C  
BRANCH   9  10
HETATM   10  C   UNL     1     -10.470  10.448  68.147  1.00  0.00    -0.221 A  
HETATM   11  C   UNL     1     -10.575  10.974  65.375  1.00  0.00    -0.270 A  
HETATM   12 BR   UNL     1     -12.360  13.180  65.608  1.00  0.00    -0.489 Br 
HETATM   13  C   UNL     1     -11.281  11.478  67.627  1.00  0.00    -0.343 A  
HETATM   14  C   UNL     1     -11.309  11.751  66.261  1.00  0.00    -0.287 A  
HETATM   15  C   UNL     1      -9.818   9.914  65.869  1.00  0.00    -0.274 A  
HETATM   16 BR   UNL     1      -8.873   8.845  64.604  1.00  0.00    -0.020 Br 
HETATM   17  C   UNL     1      -9.725   9.643  67.253  1.00  0.00    -0.166 A  
HETATM   18  N   UNL     1      -9.099   8.456  67.691  1.00  0.00    -0.135 NA 
HETATM   19  H1  UNL     1      -8.561   7.875  67.047  1.00  0.00     0.000 HD 
HETATM   20  H2  UNL     1      -9.808   7.868  68.130  1.00  0.00     0.000 HD 
ENDBRANCH   9  10
ENDBRANCH   2   9
TORSDOF 3
ENDMDL
MODEL       94
REMARK 921   NORMALIZED FREE ENERGY PREDICTED BY IDOCK:   -4.02 KCAL/MOL
REMARK 922        TOTAL FREE ENERGY PREDICTED BY IDOCK:   -5.36 KCAL/MOL
REMARK 923 INTER-LIGAND FREE ENERGY PREDICTED BY IDOCK:   -4.66 KCAL/MOL
REMARK 924 INTRA-LIGAND FREE ENERGY PREDICTED BY IDOCK:   -0.69 KCAL/MOL
REMARK 927      BINDING AFFINITY PREDICTED BY RF-SCORE:    0.00 PKD
ROOT
HETATM    1  C   UNL     1      -7.638   7.563  70.352  1.00  0.00    -0.090 C  
HETATM    2  N   UNL     1      -8.599   8.034  69.337  1.00  0.00    -0.135 NA 
ENDROOT
BRANCH   2   3
HETATM    3  C   UNL     1      -8.306   7.402  68.010  1.00  0.00    -0.124 C  
HETATM    4  C   UNL     1     -10.820   5.967  67.224  1.00  0.00    -0.403 C  
HETATM    5  C   UNL     1      -9.234   7.886  66.868  1.00  0.00    -0.191 C  
HETATM    6  C   UNL     1      -8.425   5.856  68.028  1.00  0.00    -0.110 C  
HETATM    7  C   UNL     1      -9.860   5.384  68.259  1.00  0.00    -0.196 C  
HETATM    8  C   UNL     1     -10.688   7.483  67.104  1.00  0.00    -0.379 C  
ENDBRANCH   2   3
BRANCH   2   9
HETATM    9  C   UNL     1      -8.548   9.518  69.235  1.00  0.00    -0.149 C  
BRANCH   9  10
HETATM   10  C   UNL     1      -9.833  10.276  69.552  1.00  0.00    -0.244 A  
HETATM   11  C   UNL     1     -12.284  11.567  70.099  1.00  0.00    -0.387 A  
HETATM   12 BR   UNL     1     -13.236   9.552  71.871  1.00  0.00    -0.564 Br 
HETATM   13  C   UNL     1     -10.798   9.688  70.397  1.00  0.00    -0.353 A  
HETATM   14  C   UNL     1     -11.994  10.343  70.685  1.00  0.00    -0.351 A  
HETATM   15  C   UNL     1     -11.366  12.129  69.213  1.00  0.00    -0.266 A  
HETATM   16 BR   UNL     1     -11.837  13.784  68.393  1.00  0.00    -0.409 Br 
HETATM   17  C   UNL     1     -10.120  11.519  68.941  1.00  0.00    -0.127 A  
HETATM   18  N   UNL     1      -9.307  12.027  67.905  1.00  0.00    -0.183 NA 
HETATM   19  H1  UNL     1      -9.514  12.923  67.465  1.00  0.00     0.000 HD 
HETATM   20  H2  UNL     1      -9.250  11.320  67.172  1.00  0.00     0.000 HD 
ENDBRANCH   9  10
ENDBRANCH   2   9
TORSDOF 3
ENDMDL
MODEL       95
REMARK 921   NORMALIZED FREE ENERGY PREDICTED BY IDOCK:   -4.01 KCAL/MOL
REMARK 922        TOTAL FREE ENERGY PREDICTED BY IDOCK:   -5.34 KCAL/MOL
REMARK 923 INTER-LIGAND FREE ENERGY PREDICTED BY IDOCK:   -4.86 KCAL/MOL
REMARK 924 INTRA-LIGAND FREE ENERGY PREDICTED BY IDOCK:   -0.49 KCAL/MOL
REMARK 927      BINDING AFFINITY PREDICTED BY RF-SCORE:    0.00 PKD
ROOT
HETATM    1  C   UNL     1     -10.510   7.807  68.635  1.00  0.00    -0.172 C  
HETATM    2  N   UNL     1     -10.655   8.430  69.964  1.00  0.00    -0.232 NA 
ENDROOT
BRANCH   2   3
HETATM    3  C   UNL     1     -11.483   7.559  70.860  1.00  0.00    -0.281 C  
HETATM    4  C   UNL     1      -9.606   6.549  72.970  1.00  0.00    -0.161 C  
HETATM    5  C   UNL     1     -11.529   8.040  72.332  1.00  0.00    -0.449 C  
HETATM    6  C   UNL     1     -10.994   6.088  70.906  1.00  0.00    -0.355 C  
HETATM    7  C   UNL     1      -9.622   5.950  71.564  1.00  0.00    -0.175 C  
HETATM    8  C   UNL     1     -10.154   7.972  72.997  1.00  0.00    -0.351 C  
ENDBRANCH   2   3
BRANCH   2   9
HETATM    9  C   UNL     1     -11.265   9.781  69.832  1.00  0.00    -0.229 C  
BRANCH   9  10
HETATM   10  C   UNL     1     -10.663  10.712  68.786  1.00  0.00    -0.249 A  
HETATM   11  C   UNL     1      -9.590  12.346  66.748  1.00  0.00    -0.224 A  
HETATM   12 BR   UNL     1     -12.038  12.596  65.315  1.00  0.00    -0.520 Br 
HETATM   13  C   UNL     1     -11.456  11.150  67.704  1.00  0.00    -0.328 A  
HETATM   14  C   UNL     1     -10.928  11.979  66.716  1.00  0.00    -0.285 A  
HETATM   15  C   UNL     1      -8.780  11.869  67.778  1.00  0.00    -0.158 A  
HETATM   16 BR   UNL     1      -6.938  12.360  67.745  1.00  0.00    -0.134 Br 
HETATM   17  C   UNL     1      -9.295  11.072  68.825  1.00  0.00    -0.179 A  
HETATM   18  N   UNL     1      -8.408  10.464  69.739  1.00  0.00    -0.373 NA 
HETATM   19  H1  UNL     1      -7.422  10.724  69.768  1.00  0.00     0.000 HD 
HETATM   20  H2  UNL     1      -8.465   9.454  69.611  1.00  0.00     0.000 HD 
ENDBRANCH   9  10
ENDBRANCH   2   9
TORSDOF 3
ENDMDL
MODEL       96
REMARK 921   NORMALIZED FREE ENERGY PREDICTED BY IDOCK:   -4.01 KCAL/MOL
REMARK 922        TOTAL FREE ENERGY PREDICTED BY IDOCK:   -5.34 KCAL/MOL
REMARK 923 INTER-LIGAND FREE ENERGY PREDICTED BY IDOCK:   -4.64 KCAL/MOL
REMARK 924 INTRA-LIGAND FREE ENERGY PREDICTED BY IDOCK:   -0.70 KCAL/MOL
REMARK 927      BINDING AFFINITY PREDICTED BY RF-SCORE:    0.00 PKD
ROOT
HETATM    1  C   UNL     1     -10.632  13.153  65.327  1.00  0.00    -0.313 C  
HETATM    2  N   UNL     1      -9.889  13.653  66.499  1.00  0.00    -0.285 NA 
ENDROOT
BRANCH   2   3
HETATM    3  C   UNL     1      -9.120  14.888  66.139  1.00  0.00    -0.167 C  
HETATM    4  C   UNL     1      -9.778  16.900  68.264  1.00  0.00    -0.256 C  
HETATM    5  C   UNL     1      -8.108  15.333  67.224  1.00  0.00    -0.229 C  
HETATM    6  C   UNL     1     -10.026  16.118  65.872  1.00  0.00    -0.384 C  
HETATM    7  C   UNL     1     -10.754  16.591  67.130  1.00  0.00    -0.220 C  
HETATM    8  C   UNL     1      -8.805  15.752  68.518  1.00  0.00    -0.193 C  
ENDBRANCH   2   3
BRANCH   2   9
HETATM    9  C   UNL     1      -8.977  12.596  67.015  1.00  0.00    -0.216 C  
BRANCH   9  10
HETATM   10  C   UNL     1      -9.627  11.387  67.679  1.00  0.00    -0.176 A  
HETATM   11  C   UNL     1     -10.892   9.119  68.786  1.00  0.00    -0.096 A  
HETATM   12 BR   UNL     1      -9.878   7.297  66.849  1.00  0.00    -0.291 Br 
HETATM   13  C   UNL     1      -9.507  10.115  67.080  1.00  0.00    -0.197 A  
HETATM   14  C   UNL     1     -10.112   8.995  67.646  1.00  0.00    -0.216 A  
HETATM   15  C   UNL     1     -11.070  10.380  69.353  1.00  0.00    -0.254 A  
HETATM   16 BR   UNL     1     -12.196  10.504  70.886  1.00  0.00    -0.524 Br 
HETATM   17  C   UNL     1     -10.427  11.529  68.836  1.00  0.00    -0.187 A  
HETATM   18  N   UNL     1     -10.779  12.805  69.327  1.00  0.00    -0.439 NA 
HETATM   19  H1  UNL     1     -11.357  12.907  70.162  1.00  0.00     0.000 HD 
HETATM   20  H2  UNL     1     -11.224  13.323  68.570  1.00  0.00     0.000 HD 
ENDBRANCH   9  10
ENDBRANCH   2   9
TORSDOF 3
ENDMDL
MODEL       97
REMARK 921   NORMALIZED FREE ENERGY PREDICTED BY IDOCK:   -4.01 KCAL/MOL
REMARK 922        TOTAL FREE ENERGY PREDICTED BY IDOCK:   -5.34 KCAL/MOL
REMARK 923 INTER-LIGAND FREE ENERGY PREDICTED BY IDOCK:   -4.69 KCAL/MOL
REMARK 924 INTRA-LIGAND FREE ENERGY PREDICTED BY IDOCK:   -0.64 KCAL/MOL
REMARK 927      BINDING AFFINITY PREDICTED BY RF-SCORE:    0.00 PKD
ROOT
HETATM    1  C   UNL     1     -11.120   6.438  69.256  1.00  0.00    -0.373 C  
HETATM    2  N   UNL     1     -10.762   7.302  70.396  1.00  0.00    -0.230 NA 
ENDROOT
BRANCH   2   3
HETATM    3  C   UNL     1     -11.366   6.773  71.661  1.00  0.00    -0.266 C  
HETATM    4  C   UNL     1      -9.072   6.394  73.556  1.00  0.00    -0.134 C  
HETATM    5  C   UNL     1     -11.130   7.681  72.894  1.00  0.00    -0.448 C  
HETATM    6  C   UNL     1     -10.832   5.372  72.054  1.00  0.00    -0.266 C  
HETATM    7  C   UNL     1      -9.352   5.396  72.434  1.00  0.00    -0.158 C  
HETATM    8  C   UNL     1      -9.649   7.775  73.258  1.00  0.00    -0.346 C  
ENDBRANCH   2   3
BRANCH   2   9
HETATM    9  C   UNL     1     -11.213   8.698  70.140  1.00  0.00    -0.146 C  
BRANCH   9  10
HETATM   10  C   UNL     1     -10.210   9.639  69.483  1.00  0.00    -0.233 A  
HETATM   11  C   UNL     1      -8.324  11.435  68.393  1.00  0.00    -0.153 A  
HETATM   12 BR   UNL     1      -6.169  10.560  70.035  1.00  0.00    -0.118 Br 
HETATM   13  C   UNL     1      -8.885   9.692  69.965  1.00  0.00    -0.259 A  
HETATM   14  C   UNL     1      -7.951  10.561  69.405  1.00  0.00    -0.140 A  
HETATM   15  C   UNL     1      -9.646  11.436  67.950  1.00  0.00    -0.177 A  
HETATM   16 BR   UNL     1     -10.117  12.694  66.597  1.00  0.00    -0.256 Br 
HETATM   17  C   UNL     1     -10.605  10.531  68.458  1.00  0.00    -0.206 A  
HETATM   18  N   UNL     1     -11.965  10.691  68.115  1.00  0.00    -0.783 NA 
HETATM   19  H1  UNL     1     -12.249  11.334  67.375  1.00  0.00     0.000 HD 
HETATM   20  H2  UNL     1     -12.478  10.935  68.962  1.00  0.00     0.000 HD 
ENDBRANCH   9  10
ENDBRANCH   2   9
TORSDOF 3
ENDMDL
MODEL       98
REMARK 921   NORMALIZED FREE ENERGY PREDICTED BY IDOCK:   -4.00 KCAL/MOL
REMARK 922        TOTAL FREE ENERGY PREDICTED BY IDOCK:   -5.33 KCAL/MOL
REMARK 923 INTER-LIGAND FREE ENERGY PREDICTED BY IDOCK:   -5.57 KCAL/MOL
REMARK 924 INTRA-LIGAND FREE ENERGY PREDICTED BY IDOCK:    0.24 KCAL/MOL
REMARK 927      BINDING AFFINITY PREDICTED BY RF-SCORE:    0.00 PKD
ROOT
HETATM    1  C   UNL     1     -10.151  14.363  66.762  1.00  0.00    -0.266 C  
HETATM    2  N   UNL     1      -9.771  13.008  66.322  1.00  0.00    -0.270 NA 
ENDROOT
BRANCH   2   3
HETATM    3  C   UNL     1     -10.994  12.183  66.060  1.00  0.00    -0.293 C  
HETATM    4  C   UNL     1     -12.010  13.067  63.380  1.00  0.00    -0.592 C  
HETATM    5  C   UNL     1     -10.896  11.305  64.788  1.00  0.00    -0.314 C  
HETATM    6  C   UNL     1     -12.281  13.031  65.895  1.00  0.00    -0.493 C  
HETATM    7  C   UNL     1     -12.250  13.900  64.638  1.00  0.00    -0.449 C  
HETATM    8  C   UNL     1     -10.799  12.149  63.518  1.00  0.00    -0.518 C  
ENDBRANCH   2   3
BRANCH   2   9
HETATM    9  C   UNL     1      -8.908  12.361  67.348  1.00  0.00    -0.188 C  
BRANCH   9  10
HETATM   10  C   UNL     1      -9.478  11.137  68.057  1.00  0.00    -0.174 A  
HETATM   11  C   UNL     1     -10.584   8.828  69.247  1.00  0.00    -0.210 A  
HETATM   12 BR   UNL     1      -9.277   6.998  67.501  1.00  0.00    -0.136 Br 
HETATM   13  C   UNL     1      -9.198   9.848  67.556  1.00  0.00    -0.148 A  
HETATM   14  C   UNL     1      -9.725   8.711  68.163  1.00  0.00    -0.158 A  
HETATM   15  C   UNL     1     -10.919  10.098  69.713  1.00  0.00    -0.280 A  
HETATM   16 BR   UNL     1     -12.146  10.205  71.168  1.00  0.00    -0.505 Br 
HETATM   17  C   UNL     1     -10.360  11.270  69.155  1.00  0.00    -0.129 A  
HETATM   18  N   UNL     1     -10.864  12.533  69.535  1.00  0.00    -0.442 NA 
HETATM   19  H1  UNL     1     -11.501  12.629  70.327  1.00  0.00     0.000 HD 
HETATM   20  H2  UNL     1     -11.309  12.954  68.719  1.00  0.00     0.000 HD 
ENDBRANCH   9  10
ENDBRANCH   2   9
TORSDOF 3
ENDMDL
MODEL       99
REMARK 921   NORMALIZED FREE ENERGY PREDICTED BY IDOCK:   -3.98 KCAL/MOL
REMARK 922        TOTAL FREE ENERGY PREDICTED BY IDOCK:   -5.31 KCAL/MOL
REMARK 923 INTER-LIGAND FREE ENERGY PREDICTED BY IDOCK:   -5.24 KCAL/MOL
REMARK 924 INTRA-LIGAND FREE ENERGY PREDICTED BY IDOCK:   -0.07 KCAL/MOL
REMARK 927      BINDING AFFINITY PREDICTED BY RF-SCORE:    0.00 PKD
ROOT
HETATM    1  C   UNL     1     -12.315  10.940  69.841  1.00  0.00    -0.285 C  
HETATM    2  N   UNL     1     -11.722  11.134  68.505  1.00  0.00    -0.445 NA 
ENDROOT
BRANCH   2   3
HETATM    3  C   UNL     1     -10.241  10.912  68.555  1.00  0.00    -0.185 C  
HETATM    4  C   UNL     1      -9.761   8.323  67.119  1.00  0.00    -0.255 C  
HETATM    5  C   UNL     1      -9.573  10.831  67.160  1.00  0.00    -0.185 C  
HETATM    6  C   UNL     1      -9.842   9.609  69.295  1.00  0.00    -0.195 C  
HETATM    7  C   UNL     1     -10.294   8.353  68.550  1.00  0.00    -0.232 C  
HETATM    8  C   UNL     1     -10.055   9.618  66.366  1.00  0.00    -0.317 C  
ENDBRANCH   2   3
BRANCH   2   9
HETATM    9  C   UNL     1     -12.033  12.500  68.002  1.00  0.00    -0.223 C  
BRANCH   9  10
HETATM   10  C   UNL     1     -11.611  13.673  68.881  1.00  0.00    -0.362 A  
HETATM   11  C   UNL     1     -10.959  15.896  70.495  1.00  0.00    -0.346 A  
HETATM   12 BR   UNL     1     -13.048  15.456  72.379  1.00  0.00    -0.562 Br 
HETATM   13  C   UNL     1     -12.377  14.002  70.019  1.00  0.00    -0.397 A  
HETATM   14  C   UNL     1     -12.035  15.084  70.827  1.00  0.00    -0.318 A  
HETATM   15  C   UNL     1     -10.232  15.619  69.339  1.00  0.00    -0.261 A  
HETATM   16 BR   UNL     1      -8.799  16.797  68.899  1.00  0.00    -0.184 Br 
HETATM   17  C   UNL     1     -10.518  14.498  68.526  1.00  0.00    -0.250 A  
HETATM   18  N   UNL     1      -9.878  14.362  67.275  1.00  0.00    -0.243 NA 
HETATM   19  H1  UNL     1      -9.090  14.957  67.019  1.00  0.00     0.000 HD 
HETATM   20  H2  UNL     1     -10.587  14.446  66.547  1.00  0.00     0.000 HD 
ENDBRANCH   9  10
ENDBRANCH   2   9
TORSDOF 3
ENDMDL
MODEL      100
REMARK 921   NORMALIZED FREE ENERGY PREDICTED BY IDOCK:   -3.95 KCAL/MOL
REMARK 922        TOTAL FREE ENERGY PREDICTED BY IDOCK:   -5.28 KCAL/MOL
REMARK 923 INTER-LIGAND FREE ENERGY PREDICTED BY IDOCK:   -5.02 KCAL/MOL
REMARK 924 INTRA-LIGAND FREE ENERGY PREDICTED BY IDOCK:   -0.26 KCAL/MOL
REMARK 927      BINDING AFFINITY PREDICTED BY RF-SCORE:    0.00 PKD
ROOT
HETATM    1  C   UNL     1     -10.412  15.291  66.428  1.00  0.00    -0.303 C  
HETATM    2  N   UNL     1     -10.364  13.820  66.513  1.00  0.00    -0.281 NA 
ENDROOT
BRANCH   2   3
HETATM    3  C   UNL     1     -11.734  13.242  66.333  1.00  0.00    -0.373 C  
HETATM    4  C   UNL     1     -12.096  12.924  63.372  1.00  0.00    -0.610 C  
HETATM    5  C   UNL     1     -11.745  11.864  65.626  1.00  0.00    -0.214 C  
HETATM    6  C   UNL     1     -12.678  14.153  65.505  1.00  0.00    -0.468 C  
HETATM    7  C   UNL     1     -12.231  14.287  64.050  1.00  0.00    -0.336 C  
HETATM    8  C   UNL     1     -11.241  11.957  64.186  1.00  0.00    -0.446 C  
ENDBRANCH   2   3
BRANCH   2   9
HETATM    9  C   UNL     1      -9.785  13.402  67.819  1.00  0.00    -0.216 C  
BRANCH   9  10
HETATM   10  C   UNL     1      -9.598  11.906  68.046  1.00  0.00    -0.193 A  
HETATM   11  C   UNL     1      -9.209   9.164  68.595  1.00  0.00    -0.136 A  
HETATM   12 BR   UNL     1     -10.923   9.120  70.868  1.00  0.00    -0.381 Br 
HETATM   13  C   UNL     1     -10.210  11.287  69.156  1.00  0.00    -0.123 A  
HETATM   14  C   UNL     1     -10.037   9.927  69.407  1.00  0.00    -0.212 A  
HETATM   15  C   UNL     1      -8.549   9.776  67.531  1.00  0.00    -0.125 A  
HETATM   16 BR   UNL     1      -7.382   8.694  66.482  1.00  0.00    -0.081 Br 
HETATM   17  C   UNL     1      -8.744  11.140  67.216  1.00  0.00    -0.139 A  
HETATM   18  N   UNL     1      -7.920  11.758  66.251  1.00  0.00    -0.383 NA 
HETATM   19  H1  UNL     1      -7.305  11.206  65.653  1.00  0.00     0.000 HD 
HETATM   20  H2  UNL     1      -7.353  12.463  66.724  1.00  0.00     0.000 HD 
ENDBRANCH   9  10
ENDBRANCH   2   9
TORSDOF 3
ENDMDL
MODEL      101
REMARK 921   NORMALIZED FREE ENERGY PREDICTED BY IDOCK:   -3.93 KCAL/MOL
REMARK 922        TOTAL FREE ENERGY PREDICTED BY IDOCK:   -5.25 KCAL/MOL
REMARK 923 INTER-LIGAND FREE ENERGY PREDICTED BY IDOCK:   -4.55 KCAL/MOL
REMARK 924 INTRA-LIGAND FREE ENERGY PREDICTED BY IDOCK:   -0.70 KCAL/MOL
REMARK 927      BINDING AFFINITY PREDICTED BY RF-SCORE:    0.00 PKD
ROOT
HETATM    1  C   UNL     1      -7.617   6.889  71.918  1.00  0.00    -0.093 C  
HETATM    2  N   UNL     1      -8.553   7.379  70.889  1.00  0.00    -0.134 NA 
ENDROOT
BRANCH   2   3
HETATM    3  C   UNL     1      -8.123   6.915  69.530  1.00  0.00    -0.130 C  
HETATM    4  C   UNL     1     -10.414   5.301  68.461  1.00  0.00    -0.147 C  
HETATM    5  C   UNL     1      -9.039   7.406  68.382  1.00  0.00    -0.132 C  
HETATM    6  C   UNL     1      -8.066   5.371  69.400  1.00  0.00    -0.093 C  
HETATM    7  C   UNL     1      -9.448   4.726  69.496  1.00  0.00    -0.227 C  
HETATM    8  C   UNL     1     -10.449   6.826  68.490  1.00  0.00    -0.234 C  
ENDBRANCH   2   3
BRANCH   2   9
HETATM    9  C   UNL     1      -8.635   8.864  70.937  1.00  0.00    -0.199 C  
BRANCH   9  10
HETATM   10  C   UNL     1     -10.017   9.486  70.775  1.00  0.00    -0.334 A  
HETATM   11  C   UNL     1     -12.522  10.762  70.505  1.00  0.00    -0.447 A  
HETATM   12 BR   UNL     1     -11.636  12.639  68.557  1.00  0.00    -0.388 Br 
HETATM   13  C   UNL     1     -10.188  10.591  69.915  1.00  0.00    -0.110 A  
HETATM   14  C   UNL     1     -11.432  11.200  69.765  1.00  0.00    -0.312 A  
HETATM   15  C   UNL     1     -12.352   9.711  71.405  1.00  0.00    -0.378 A  
HETATM   16 BR   UNL     1     -13.867   9.185  72.436  1.00  0.00    -0.469 Br 
HETATM   17  C   UNL     1     -11.118   9.036  71.542  1.00  0.00    -0.349 A  
HETATM   18  N   UNL     1     -10.944   8.106  72.589  1.00  0.00    -0.372 NA 
HETATM   19  H1  UNL     1     -11.738   7.781  73.142  1.00  0.00     0.000 HD 
HETATM   20  H2  UNL     1     -10.244   8.478  73.230  1.00  0.00     0.000 HD 
ENDBRANCH   9  10
ENDBRANCH   2   9
TORSDOF 3
ENDMDL
MODEL      102
REMARK 921   NORMALIZED FREE ENERGY PREDICTED BY IDOCK:   -3.93 KCAL/MOL
REMARK 922        TOTAL FREE ENERGY PREDICTED BY IDOCK:   -5.24 KCAL/MOL
REMARK 923 INTER-LIGAND FREE ENERGY PREDICTED BY IDOCK:   -6.45 KCAL/MOL
REMARK 924 INTRA-LIGAND FREE ENERGY PREDICTED BY IDOCK:    1.21 KCAL/MOL
REMARK 927      BINDING AFFINITY PREDICTED BY RF-SCORE:    0.00 PKD
ROOT
HETATM    1  C   UNL     1      -7.817  16.464  66.879  1.00  0.00    -0.238 C  
HETATM    2  N   UNL     1      -9.014  17.034  66.235  1.00  0.00    -0.384 NA 
ENDROOT
BRANCH   2   3
HETATM    3  C   UNL     1      -8.875  18.519  66.095  1.00  0.00    -0.111 C  
HETATM    4  C   UNL     1      -9.745  19.666  68.726  1.00  0.00    -0.488 C  
HETATM    5  C   UNL     1      -7.889  19.153  67.108  1.00  0.00    -0.269 C  
HETATM    6  C   UNL     1     -10.215  19.279  66.271  1.00  0.00    -0.546 C  
HETATM    7  C   UNL     1     -10.761  19.177  67.695  1.00  0.00    -0.514 C  
HETATM    8  C   UNL     1      -8.379  19.009  68.548  1.00  0.00    -0.387 C  
ENDBRANCH   2   3
BRANCH   2   9
HETATM    9  C   UNL     1     -10.230  16.691  67.022  1.00  0.00    -0.290 C  
BRANCH   9  10
HETATM   10  C   UNL     1     -10.769  15.272  66.878  1.00  0.00    -0.313 A  
HETATM   11  C   UNL     1     -11.883  12.698  66.551  1.00  0.00    -0.463 A  
HETATM   12 BR   UNL     1     -12.260  12.945  63.740  1.00  0.00    -0.555 Br 
HETATM   13  C   UNL     1     -11.212  14.820  65.616  1.00  0.00    -0.343 A  
HETATM   14  C   UNL     1     -11.736  13.538  65.456  1.00  0.00    -0.340 A  
HETATM   15  C   UNL     1     -11.507  13.155  67.813  1.00  0.00    -0.313 A  
HETATM   16 BR   UNL     1     -11.782  11.982  69.290  1.00  0.00    -0.398 Br 
HETATM   17  C   UNL     1     -10.923  14.428  68.003  1.00  0.00    -0.258 A  
HETATM   18  N   UNL     1     -10.729  14.918  69.312  1.00  0.00    -0.243 NA 
HETATM   19  H1  UNL     1     -10.840  14.309  70.124  1.00  0.00     0.000 HD 
HETATM   20  H2  UNL     1     -11.336  15.728  69.440  1.00  0.00     0.000 HD 
ENDBRANCH   9  10
ENDBRANCH   2   9
TORSDOF 3
ENDMDL
MODEL      103
REMARK 921   NORMALIZED FREE ENERGY PREDICTED BY IDOCK:   -3.92 KCAL/MOL
REMARK 922        TOTAL FREE ENERGY PREDICTED BY IDOCK:   -5.24 KCAL/MOL
REMARK 923 INTER-LIGAND FREE ENERGY PREDICTED BY IDOCK:   -4.79 KCAL/MOL
REMARK 924 INTRA-LIGAND FREE ENERGY PREDICTED BY IDOCK:   -0.45 KCAL/MOL
REMARK 927      BINDING AFFINITY PREDICTED BY RF-SCORE:    0.00 PKD
ROOT
HETATM    1  C   UNL     1      -9.662  11.060  68.737  1.00  0.00    -0.191 C  
HETATM    2  N   UNL     1     -10.303  10.983  67.411  1.00  0.00    -0.198 NA 
ENDROOT
BRANCH   2   3
HETATM    3  C   UNL     1     -11.347  12.049  67.275  1.00  0.00    -0.330 C  
HETATM    4  C   UNL     1     -10.162  14.117  65.454  1.00  0.00    -0.380 C  
HETATM    5  C   UNL     1     -11.830  12.270  65.820  1.00  0.00    -0.417 C  
HETATM    6  C   UNL     1     -10.876  13.436  67.783  1.00  0.00    -0.267 C  
HETATM    7  C   UNL     1      -9.756  14.023  66.924  1.00  0.00    -0.272 C  
HETATM    8  C   UNL     1     -10.711  12.797  64.921  1.00  0.00    -0.329 C  
ENDBRANCH   2   3
BRANCH   2   9
HETATM    9  C   UNL     1     -10.898   9.634  67.209  1.00  0.00    -0.142 C  
BRANCH   9  10
HETATM   10  C   UNL     1      -9.980   8.549  66.658  1.00  0.00    -0.363 A  
HETATM   11  C   UNL     1      -8.303   6.590  65.509  1.00  0.00    -0.146 A  
HETATM   12 BR   UNL     1      -6.603   8.458  64.194  1.00  0.00    -0.071 Br 
HETATM   13  C   UNL     1      -8.908   8.906  65.813  1.00  0.00    -0.223 A  
HETATM   14  C   UNL     1      -8.067   7.937  65.271  1.00  0.00    -0.135 A  
HETATM   15  C   UNL     1      -9.395   6.220  66.292  1.00  0.00    -0.127 A  
HETATM   16 BR   UNL     1      -9.706   4.356  66.542  1.00  0.00    -0.247 Br 
HETATM   17  C   UNL     1     -10.236   7.179  66.901  1.00  0.00    -0.260 A  
HETATM   18  N   UNL     1     -11.430   6.761  67.528  1.00  0.00    -0.688 NA 
HETATM   19  H1  UNL     1     -11.615   5.773  67.704  1.00  0.00     0.000 HD 
HETATM   20  H2  UNL     1     -12.215   7.141  66.999  1.00  0.00     0.000 HD 
ENDBRANCH   9  10
ENDBRANCH   2   9
TORSDOF 3
ENDMDL
MODEL      104
REMARK 921   NORMALIZED FREE ENERGY PREDICTED BY IDOCK:   -3.91 KCAL/MOL
REMARK 922        TOTAL FREE ENERGY PREDICTED BY IDOCK:   -5.23 KCAL/MOL
REMARK 923 INTER-LIGAND FREE ENERGY PREDICTED BY IDOCK:   -4.61 KCAL/MOL
REMARK 924 INTRA-LIGAND FREE ENERGY PREDICTED BY IDOCK:   -0.62 KCAL/MOL
REMARK 927      BINDING AFFINITY PREDICTED BY RF-SCORE:    0.00 PKD
ROOT
HETATM    1  C   UNL     1     -10.915  15.572  70.213  1.00  0.00    -0.334 C  
HETATM    2  N   UNL     1     -10.157  15.301  68.977  1.00  0.00    -0.228 NA 
ENDROOT
BRANCH   2   3
HETATM    3  C   UNL     1     -10.093  13.827  68.718  1.00  0.00    -0.136 C  
HETATM    4  C   UNL     1     -11.263  13.434  65.984  1.00  0.00    -0.310 C  
HETATM    5  C   UNL     1      -9.242  13.445  67.482  1.00  0.00    -0.219 C  
HETATM    6  C   UNL     1     -11.486  13.185  68.491  1.00  0.00    -0.338 C  
HETATM    7  C   UNL     1     -12.151  13.672  67.204  1.00  0.00    -0.404 C  
HETATM    8  C   UNL     1      -9.850  13.975  66.184  1.00  0.00    -0.319 C  
ENDBRANCH   2   3
BRANCH   2   9
HETATM    9  C   UNL     1      -8.788  15.877  69.081  1.00  0.00    -0.253 C  
BRANCH   9  10
HETATM   10  C   UNL     1      -8.417  16.962  68.076  1.00  0.00    -0.213 A  
HETATM   11  C   UNL     1      -7.611  18.990  66.285  1.00  0.00    -0.291 A  
HETATM   12 BR   UNL     1      -5.139  17.753  65.604  1.00  0.00    -0.102 Br 
HETATM   13  C   UNL     1      -7.171  16.905  67.418  1.00  0.00    -0.186 A  
HETATM   14  C   UNL     1      -6.789  17.895  66.514  1.00  0.00    -0.224 A  
HETATM   15  C   UNL     1      -8.817  19.090  66.976  1.00  0.00    -0.294 A  
HETATM   16 BR   UNL     1      -9.881  20.641  66.665  1.00  0.00    -0.091 Br 
HETATM   17  C   UNL     1      -9.259  18.078  67.858  1.00  0.00    -0.268 A  
HETATM   18  N   UNL     1     -10.391  18.306  68.669  1.00  0.00    -0.394 NA 
HETATM   19  H1  UNL     1     -10.999  19.111  68.512  1.00  0.00     0.000 HD 
HETATM   20  H2  UNL     1     -10.084  18.327  69.642  1.00  0.00     0.000 HD 
ENDBRANCH   9  10
ENDBRANCH   2   9
TORSDOF 3
ENDMDL
MODEL      105
REMARK 921   NORMALIZED FREE ENERGY PREDICTED BY IDOCK:   -3.91 KCAL/MOL
REMARK 922        TOTAL FREE ENERGY PREDICTED BY IDOCK:   -5.23 KCAL/MOL
REMARK 923 INTER-LIGAND FREE ENERGY PREDICTED BY IDOCK:   -4.60 KCAL/MOL
REMARK 924 INTRA-LIGAND FREE ENERGY PREDICTED BY IDOCK:   -0.63 KCAL/MOL
REMARK 927      BINDING AFFINITY PREDICTED BY RF-SCORE:    0.00 PKD
ROOT
HETATM    1  C   UNL     1      -7.755  10.725  66.000  1.00  0.00    -0.139 C  
HETATM    2  N   UNL     1      -9.044  10.288  66.568  1.00  0.00    -0.147 NA 
ENDROOT
BRANCH   2   3
HETATM    3  C   UNL     1      -9.141   8.793  66.550  1.00  0.00    -0.162 C  
HETATM    4  C   UNL     1      -9.512   7.970  69.410  1.00  0.00    -0.159 C  
HETATM    5  C   UNL     1     -10.480   8.246  67.105  1.00  0.00    -0.386 C  
HETATM    6  C   UNL     1      -8.023   8.097  67.369  1.00  0.00    -0.117 C  
HETATM    7  C   UNL     1      -8.141   8.372  68.868  1.00  0.00    -0.114 C  
HETATM    8  C   UNL     1     -10.654   8.563  68.590  1.00  0.00    -0.154 C  
ENDBRANCH   2   3
BRANCH   2   9
HETATM    9  C   UNL     1     -10.170  10.898  65.809  1.00  0.00    -0.259 C  
BRANCH   9  10
HETATM   10  C   UNL     1     -10.660  12.264  66.278  1.00  0.00    -0.282 A  
HETATM   11  C   UNL     1     -11.685  14.731  67.192  1.00  0.00    -0.351 A  
HETATM   12 BR   UNL     1     -12.118  13.847  69.863  1.00  0.00    -0.409 Br 
HETATM   13  C   UNL     1     -11.107  12.425  67.607  1.00  0.00    -0.306 A  
HETATM   14  C   UNL     1     -11.586  13.653  68.060  1.00  0.00    -0.333 A  
HETATM   15  C   UNL     1     -11.305  14.568  65.860  1.00  0.00    -0.341 A  
HETATM   16 BR   UNL     1     -11.512  16.065  64.698  1.00  0.00    -0.124 Br 
HETATM   17  C   UNL     1     -10.763  13.353  65.382  1.00  0.00    -0.300 A  
HETATM   18  N   UNL     1     -10.566  13.176  63.995  1.00  0.00    -0.513 NA 
HETATM   19  H1  UNL     1     -10.640  13.962  63.348  1.00  0.00     0.000 HD 
HETATM   20  H2  UNL     1     -11.199  12.443  63.676  1.00  0.00     0.000 HD 
ENDBRANCH   9  10
ENDBRANCH   2   9
TORSDOF 3
ENDMDL
MODEL      106
REMARK 921   NORMALIZED FREE ENERGY PREDICTED BY IDOCK:   -3.90 KCAL/MOL
REMARK 922        TOTAL FREE ENERGY PREDICTED BY IDOCK:   -5.21 KCAL/MOL
REMARK 923 INTER-LIGAND FREE ENERGY PREDICTED BY IDOCK:   -5.27 KCAL/MOL
REMARK 924 INTRA-LIGAND FREE ENERGY PREDICTED BY IDOCK:    0.06 KCAL/MOL
REMARK 927      BINDING AFFINITY PREDICTED BY RF-SCORE:    0.00 PKD
ROOT
HETATM    1  C   UNL     1     -12.420  11.169  70.161  1.00  0.00    -0.241 C  
HETATM    2  N   UNL     1     -11.394  10.119  70.020  1.00  0.00    -0.270 NA 
ENDROOT
BRANCH   2   3
HETATM    3  C   UNL     1     -11.110   9.486  71.348  1.00  0.00    -0.368 C  
HETATM    4  C   UNL     1     -12.886   7.074  71.493  1.00  0.00    -0.420 C  
HETATM    5  C   UNL     1     -10.575   8.036  71.249  1.00  0.00    -0.245 C  
HETATM    6  C   UNL     1     -12.353   9.420  72.273  1.00  0.00    -0.298 C  
HETATM    7  C   UNL     1     -13.431   8.480  71.735  1.00  0.00    -0.400 C  
HETATM    8  C   UNL     1     -11.612   7.085  70.654  1.00  0.00    -0.379 C  
ENDBRANCH   2   3
BRANCH   2   9
HETATM    9  C   UNL     1     -10.152  10.693  69.433  1.00  0.00    -0.174 C  
BRANCH   9  10
HETATM   10  C   UNL     1     -10.319  11.619  68.234  1.00  0.00    -0.212 A  
HETATM   11  C   UNL     1     -10.744  13.384  66.072  1.00  0.00    -0.283 A  
HETATM   12 BR   UNL     1     -10.863  15.728  67.684  1.00  0.00    -0.298 Br 
HETATM   13  C   UNL     1     -10.501  13.003  68.442  1.00  0.00    -0.261 A  
HETATM   14  C   UNL     1     -10.684  13.873  67.369  1.00  0.00    -0.272 A  
HETATM   15  C   UNL     1     -10.627  12.012  65.857  1.00  0.00    -0.265 A  
HETATM   16 BR   UNL     1     -10.772  11.389  64.061  1.00  0.00    -0.461 Br 
HETATM   17  C   UNL     1     -10.387  11.108  66.917  1.00  0.00    -0.231 A  
HETATM   18  N   UNL     1     -10.459   9.719  66.677  1.00  0.00    -0.196 NA 
HETATM   19  H1  UNL     1     -10.508   9.350  65.727  1.00  0.00     0.000 HD 
HETATM   20  H2  UNL     1     -11.251   9.348  67.202  1.00  0.00     0.000 HD 
ENDBRANCH   9  10
ENDBRANCH   2   9
TORSDOF 3
ENDMDL
MODEL      107
REMARK 921   NORMALIZED FREE ENERGY PREDICTED BY IDOCK:   -3.90 KCAL/MOL
REMARK 922        TOTAL FREE ENERGY PREDICTED BY IDOCK:   -5.21 KCAL/MOL
REMARK 923 INTER-LIGAND FREE ENERGY PREDICTED BY IDOCK:   -4.59 KCAL/MOL
REMARK 924 INTRA-LIGAND FREE ENERGY PREDICTED BY IDOCK:   -0.61 KCAL/MOL
REMARK 927      BINDING AFFINITY PREDICTED BY RF-SCORE:    0.00 PKD
ROOT
HETATM    1  C   UNL     1     -10.656  17.282  68.166  1.00  0.00    -0.386 C  
HETATM    2  N   UNL     1      -9.336  17.099  67.534  1.00  0.00    -0.236 NA 
ENDROOT
BRANCH   2   3
HETATM    3  C   UNL     1      -8.919  18.351  66.825  1.00  0.00    -0.288 C  
HETATM    4  C   UNL     1      -6.350  19.198  68.120  1.00  0.00    -0.238 C  
HETATM    5  C   UNL     1      -7.543  18.244  66.122  1.00  0.00    -0.276 C  
HETATM    6  C   UNL     1      -8.824  19.582  67.763  1.00  0.00    -0.370 C  
HETATM    7  C   UNL     1      -7.700  19.448  68.790  1.00  0.00    -0.397 C  
HETATM    8  C   UNL     1      -6.405  18.045  67.122  1.00  0.00    -0.185 C  
ENDBRANCH   2   3
BRANCH   2   9
HETATM    9  C   UNL     1      -9.377  15.949  66.589  1.00  0.00    -0.249 C  
BRANCH   9  10
HETATM   10  C   UNL     1      -9.185  14.558  67.184  1.00  0.00    -0.233 A  
HETATM   11  C   UNL     1      -8.731  11.959  68.189  1.00  0.00    -0.173 A  
HETATM   12 BR   UNL     1      -5.937  12.332  68.592  1.00  0.00    -0.058 Br 
HETATM   13  C   UNL     1      -7.890  14.127  67.543  1.00  0.00    -0.207 A  
HETATM   14  C   UNL     1      -7.676  12.852  68.064  1.00  0.00    -0.143 A  
HETATM   15  C   UNL     1     -10.004  12.351  67.780  1.00  0.00    -0.205 A  
HETATM   16 BR   UNL     1     -11.406  11.067  67.923  1.00  0.00    -0.369 Br 
HETATM   17  C   UNL     1     -10.267  13.654  67.299  1.00  0.00    -0.246 A  
HETATM   18  N   UNL     1     -11.524  13.946  66.728  1.00  0.00    -0.336 NA 
HETATM   19  H1  UNL     1     -12.304  13.294  66.810  1.00  0.00     0.000 HD 
HETATM   20  H2  UNL     1     -11.383  14.146  65.737  1.00  0.00     0.000 HD 
ENDBRANCH   9  10
ENDBRANCH   2   9
TORSDOF 3
ENDMDL
MODEL      108
REMARK 921   NORMALIZED FREE ENERGY PREDICTED BY IDOCK:   -3.89 KCAL/MOL
REMARK 922        TOTAL FREE ENERGY PREDICTED BY IDOCK:   -5.20 KCAL/MOL
REMARK 923 INTER-LIGAND FREE ENERGY PREDICTED BY IDOCK:   -5.46 KCAL/MOL
REMARK 924 INTRA-LIGAND FREE ENERGY PREDICTED BY IDOCK:    0.26 KCAL/MOL
REMARK 927      BINDING AFFINITY PREDICTED BY RF-SCORE:    0.00 PKD
ROOT
HETATM    1  C   UNL     1     -10.010  14.002  66.209  1.00  0.00    -0.307 C  
HETATM    2  N   UNL     1     -10.324  14.794  67.413  1.00  0.00    -0.242 NA 
ENDROOT
BRANCH   2   3
HETATM    3  C   UNL     1      -9.477  14.348  68.566  1.00  0.00    -0.212 C  
HETATM    4  C   UNL     1      -6.880  15.820  68.283  1.00  0.00    -0.121 C  
HETATM    5  C   UNL     1      -9.051  15.498  69.512  1.00  0.00    -0.260 C  
HETATM    6  C   UNL     1      -8.166  13.647  68.127  1.00  0.00    -0.158 C  
HETATM    7  C   UNL     1      -7.203  14.601  67.420  1.00  0.00    -0.182 C  
HETATM    8  C   UNL     1      -8.137  16.503  68.811  1.00  0.00    -0.244 C  
ENDBRANCH   2   3
BRANCH   2   9
HETATM    9  C   UNL     1     -11.770  14.672  67.743  1.00  0.00    -0.359 C  
BRANCH   9  10
HETATM   10  C   UNL     1     -12.123  14.003  69.067  1.00  0.00    -0.358 A  
HETATM   11  C   UNL     1     -12.669  12.835  71.579  1.00  0.00    -0.330 A  
HETATM   12 BR   UNL     1     -12.955  15.314  72.949  1.00  0.00    -0.631 Br 
HETATM   13  C   UNL     1     -12.328  14.797  70.215  1.00  0.00    -0.400 A  
HETATM   14  C   UNL     1     -12.624  14.216  71.447  1.00  0.00    -0.368 A  
HETATM   15  C   UNL     1     -12.407  12.038  70.466  1.00  0.00    -0.282 A  
HETATM   16 BR   UNL     1     -12.427  10.148  70.715  1.00  0.00    -0.411 Br 
HETATM   17  C   UNL     1     -12.156  12.594  69.191  1.00  0.00    -0.142 A  
HETATM   18  N   UNL     1     -11.717  11.760  68.140  1.00  0.00    -0.455 NA 
HETATM   19  H1  UNL     1     -11.742  10.744  68.229  1.00  0.00     0.000 HD 
HETATM   20  H2  UNL     1     -10.765  12.033  67.897  1.00  0.00     0.000 HD 
ENDBRANCH   9  10
ENDBRANCH   2   9
TORSDOF 3
ENDMDL
MODEL      109
REMARK 921   NORMALIZED FREE ENERGY PREDICTED BY IDOCK:   -3.89 KCAL/MOL
REMARK 922        TOTAL FREE ENERGY PREDICTED BY IDOCK:   -5.20 KCAL/MOL
REMARK 923 INTER-LIGAND FREE ENERGY PREDICTED BY IDOCK:   -4.49 KCAL/MOL
REMARK 924 INTRA-LIGAND FREE ENERGY PREDICTED BY IDOCK:   -0.71 KCAL/MOL
REMARK 927      BINDING AFFINITY PREDICTED BY RF-SCORE:    0.00 PKD
ROOT
HETATM    1  C   UNL     1     -11.878   6.767  70.634  1.00  0.00    -0.387 C  
HETATM    2  N   UNL     1     -10.908   7.247  71.636  1.00  0.00    -0.220 NA 
ENDROOT
BRANCH   2   3
HETATM    3  C   UNL     1     -11.128   6.556  72.947  1.00  0.00    -0.223 C  
HETATM    4  C   UNL     1      -8.660   4.920  73.424  1.00  0.00    -0.105 C  
HETATM    5  C   UNL     1     -10.075   6.910  74.026  1.00  0.00    -0.383 C  
HETATM    6  C   UNL     1     -11.117   5.009  72.833  1.00  0.00    -0.348 C  
HETATM    7  C   UNL     1      -9.743   4.462  72.448  1.00  0.00    -0.210 C  
HETATM    8  C   UNL     1      -8.677   6.430  73.638  1.00  0.00    -0.131 C  
ENDBRANCH   2   3
BRANCH   2   9
HETATM    9  C   UNL     1     -11.025   8.723  71.793  1.00  0.00    -0.345 C  
BRANCH   9  10
HETATM   10  C   UNL     1     -10.403   9.585  70.700  1.00  0.00    -0.369 A  
HETATM   11  C   UNL     1      -9.356  11.142  68.590  1.00  0.00    -0.186 A  
HETATM   12 BR   UNL     1     -11.751  12.618  68.156  1.00  0.00    -0.387 Br 
HETATM   13  C   UNL     1     -11.200  10.532  70.022  1.00  0.00    -0.386 A  
HETATM   14  C   UNL     1     -10.670  11.317  69.000  1.00  0.00    -0.217 A  
HETATM   15  C   UNL     1      -8.576  10.167  69.210  1.00  0.00    -0.174 A  
HETATM   16 BR   UNL     1      -6.795   9.931  68.572  1.00  0.00    -0.059 Br 
HETATM   17  C   UNL     1      -9.065   9.392  70.286  1.00  0.00    -0.245 A  
HETATM   18  N   UNL     1      -8.307   8.298  70.758  1.00  0.00    -0.117 NA 
HETATM   19  H1  UNL     1      -7.341   8.158  70.459  1.00  0.00     0.000 HD 
HETATM   20  H2  UNL     1      -8.827   7.443  70.557  1.00  0.00     0.000 HD 
ENDBRANCH   9  10
ENDBRANCH   2   9
TORSDOF 3
ENDMDL
MODEL      110
REMARK 921   NORMALIZED FREE ENERGY PREDICTED BY IDOCK:   -3.88 KCAL/MOL
REMARK 922        TOTAL FREE ENERGY PREDICTED BY IDOCK:   -5.19 KCAL/MOL
REMARK 923 INTER-LIGAND FREE ENERGY PREDICTED BY IDOCK:   -4.59 KCAL/MOL
REMARK 924 INTRA-LIGAND FREE ENERGY PREDICTED BY IDOCK:   -0.60 KCAL/MOL
REMARK 927      BINDING AFFINITY PREDICTED BY RF-SCORE:    0.00 PKD
ROOT
HETATM    1  C   UNL     1     -10.803  10.774  69.647  1.00  0.00    -0.241 C  
HETATM    2  N   UNL     1     -10.123  11.571  68.608  1.00  0.00    -0.214 NA 
ENDROOT
BRANCH   2   3
HETATM    3  C   UNL     1      -8.636  11.446  68.747  1.00  0.00    -0.083 C  
HETATM    4  C   UNL     1      -7.765   9.627  66.527  1.00  0.00    -0.098 C  
HETATM    5  C   UNL     1      -7.849  11.942  67.508  1.00  0.00    -0.152 C  
HETATM    6  C   UNL     1      -8.165   9.991  68.998  1.00  0.00    -0.124 C  
HETATM    7  C   UNL     1      -8.416   9.080  67.796  1.00  0.00    -0.117 C  
HETATM    8  C   UNL     1      -8.131  11.087  66.273  1.00  0.00    -0.159 C  
ENDBRANCH   2   3
BRANCH   2   9
HETATM    9  C   UNL     1     -10.543  12.996  68.701  1.00  0.00    -0.236 C  
BRANCH   9  10
HETATM   10  C   UNL     1     -10.691  13.759  67.390  1.00  0.00    -0.279 A  
HETATM   11  C   UNL     1     -11.049  15.264  65.027  1.00  0.00    -0.436 A  
HETATM   12 BR   UNL     1     -10.157  17.719  66.159  1.00  0.00    -0.269 Br 
HETATM   13  C   UNL     1     -10.427  15.145  67.356  1.00  0.00    -0.264 A  
HETATM   14  C   UNL     1     -10.580  15.877  66.180  1.00  0.00    -0.305 A  
HETATM   15  C   UNL     1     -11.373  13.908  65.063  1.00  0.00    -0.334 A  
HETATM   16 BR   UNL     1     -12.065  13.128  63.467  1.00  0.00    -0.511 Br 
HETATM   17  C   UNL     1     -11.179  13.124  66.223  1.00  0.00    -0.301 A  
HETATM   18  N   UNL     1     -11.689  11.809  66.269  1.00  0.00    -0.470 NA 
HETATM   19  H1  UNL     1     -12.041  11.351  65.428  1.00  0.00     0.000 HD 
HETATM   20  H2  UNL     1     -12.424  11.779  66.976  1.00  0.00     0.000 HD 
ENDBRANCH   9  10
ENDBRANCH   2   9
TORSDOF 3
ENDMDL
MODEL      111
REMARK 921   NORMALIZED FREE ENERGY PREDICTED BY IDOCK:   -3.88 KCAL/MOL
REMARK 922        TOTAL FREE ENERGY PREDICTED BY IDOCK:   -5.18 KCAL/MOL
REMARK 923 INTER-LIGAND FREE ENERGY PREDICTED BY IDOCK:   -4.65 KCAL/MOL
REMARK 924 INTRA-LIGAND FREE ENERGY PREDICTED BY IDOCK:   -0.54 KCAL/MOL
REMARK 927      BINDING AFFINITY PREDICTED BY RF-SCORE:    0.00 PKD
ROOT
HETATM    1  C   UNL     1      -8.109   9.683  66.795  1.00  0.00    -0.113 C  
HETATM    2  N   UNL     1      -9.247   8.950  67.380  1.00  0.00    -0.134 NA 
ENDROOT
BRANCH   2   3
HETATM    3  C   UNL     1      -9.216   7.514  66.953  1.00  0.00    -0.149 C  
HETATM    4  C   UNL     1      -9.978   5.929  69.382  1.00  0.00    -0.229 C  
HETATM    5  C   UNL     1     -10.577   6.789  67.096  1.00  0.00    -0.401 C  
HETATM    6  C   UNL     1      -8.193   6.661  67.747  1.00  0.00    -0.119 C  
HETATM    7  C   UNL     1      -8.575   6.512  69.219  1.00  0.00    -0.127 C  
HETATM    8  C   UNL     1     -11.016   6.682  68.556  1.00  0.00    -0.314 C  
ENDBRANCH   2   3
BRANCH   2   9
HETATM    9  C   UNL     1     -10.529   9.591  66.979  1.00  0.00    -0.232 C  
BRANCH   9  10
HETATM   10  C   UNL     1     -11.027  10.742  67.846  1.00  0.00    -0.344 A  
HETATM   11  C   UNL     1     -12.075  12.810  69.457  1.00  0.00    -0.265 A  
HETATM   12 BR   UNL     1     -12.937  11.084  71.550  1.00  0.00    -0.500 Br 
HETATM   13  C   UNL     1     -11.660  10.464  69.076  1.00  0.00    -0.220 A  
HETATM   14  C   UNL     1     -12.152  11.491  69.880  1.00  0.00    -0.316 A  
HETATM   15  C   UNL     1     -11.508  13.094  68.216  1.00  0.00    -0.314 A  
HETATM   16 BR   UNL     1     -11.479  14.917  67.659  1.00  0.00    -0.359 Br 
HETATM   17  C   UNL     1     -10.952  12.082  67.400  1.00  0.00    -0.261 A  
HETATM   18  N   UNL     1     -10.557  12.389  66.080  1.00  0.00    -0.250 NA 
HETATM   19  H1  UNL     1     -10.503  13.356  65.758  1.00  0.00     0.000 HD 
HETATM   20  H2  UNL     1     -11.165  11.877  65.441  1.00  0.00     0.000 HD 
ENDBRANCH   9  10
ENDBRANCH   2   9
TORSDOF 3
ENDMDL
MODEL      112
REMARK 921   NORMALIZED FREE ENERGY PREDICTED BY IDOCK:   -3.87 KCAL/MOL
REMARK 922        TOTAL FREE ENERGY PREDICTED BY IDOCK:   -5.17 KCAL/MOL
REMARK 923 INTER-LIGAND FREE ENERGY PREDICTED BY IDOCK:   -4.60 KCAL/MOL
REMARK 924 INTRA-LIGAND FREE ENERGY PREDICTED BY IDOCK:   -0.57 KCAL/MOL
REMARK 927      BINDING AFFINITY PREDICTED BY RF-SCORE:    0.00 PKD
ROOT
HETATM    1  C   UNL     1     -10.591  15.542  65.346  1.00  0.00    -0.408 C  
HETATM    2  N   UNL     1     -10.467  14.263  66.070  1.00  0.00    -0.291 NA 
ENDROOT
BRANCH   2   3
HETATM    3  C   UNL     1     -11.689  13.423  65.857  1.00  0.00    -0.356 C  
HETATM    4  C   UNL     1     -10.766  11.027  64.306  1.00  0.00    -0.348 C  
HETATM    5  C   UNL     1     -11.589  12.005  66.472  1.00  0.00    -0.384 C  
HETATM    6  C   UNL     1     -12.035  13.214  64.360  1.00  0.00    -0.454 C  
HETATM    7  C   UNL     1     -10.985  12.379  63.629  1.00  0.00    -0.525 C  
HETATM    8  C   UNL     1     -10.501  11.167  65.802  1.00  0.00    -0.305 C  
ENDBRANCH   2   3
BRANCH   2   9
HETATM    9  C   UNL     1     -10.247  14.515  67.520  1.00  0.00    -0.232 C  
BRANCH   9  10
HETATM   10  C   UNL     1      -8.886  14.132  68.090  1.00  0.00    -0.183 A  
HETATM   11  C   UNL     1      -6.431  13.335  69.234  1.00  0.00    -0.107 A  
HETATM   12 BR   UNL     1      -6.817  10.557  68.742  1.00  0.00    -0.064 Br 
HETATM   13  C   UNL     1      -8.522  12.771  68.169  1.00  0.00    -0.177 A  
HETATM   14  C   UNL     1      -7.297  12.385  68.710  1.00  0.00    -0.076 A  
HETATM   15  C   UNL     1      -6.805  14.677  69.218  1.00  0.00    -0.143 A  
HETATM   16 BR   UNL     1      -5.603  15.933  70.000  1.00  0.00    -0.160 Br 
HETATM   17  C   UNL     1      -8.016  15.108  68.629  1.00  0.00    -0.151 A  
HETATM   18  N   UNL     1      -8.437  16.445  68.799  1.00  0.00    -0.238 NA 
HETATM   19  H1  UNL     1      -7.809  17.149  69.188  1.00  0.00     0.000 HD 
HETATM   20  H2  UNL     1      -9.290  16.439  69.358  1.00  0.00     0.000 HD 
ENDBRANCH   9  10
ENDBRANCH   2   9
TORSDOF 3
ENDMDL
MODEL      113
REMARK 921   NORMALIZED FREE ENERGY PREDICTED BY IDOCK:   -3.85 KCAL/MOL
REMARK 922        TOTAL FREE ENERGY PREDICTED BY IDOCK:   -5.16 KCAL/MOL
REMARK 923 INTER-LIGAND FREE ENERGY PREDICTED BY IDOCK:   -4.83 KCAL/MOL
REMARK 924 INTRA-LIGAND FREE ENERGY PREDICTED BY IDOCK:   -0.33 KCAL/MOL
REMARK 927      BINDING AFFINITY PREDICTED BY RF-SCORE:    0.00 PKD
ROOT
HETATM    1  C   UNL     1     -12.052  13.788  69.514  1.00  0.00    -0.334 C  
HETATM    2  N   UNL     1     -11.238  13.854  68.286  1.00  0.00    -0.259 NA 
ENDROOT
BRANCH   2   3
HETATM    3  C   UNL     1     -11.597  15.069  67.487  1.00  0.00    -0.301 C  
HETATM    4  C   UNL     1      -8.990  16.229  66.561  1.00  0.00    -0.313 C  
HETATM    5  C   UNL     1     -11.123  15.012  66.014  1.00  0.00    -0.329 C  
HETATM    6  C   UNL     1     -11.012  16.381  68.072  1.00  0.00    -0.327 C  
HETATM    7  C   UNL     1      -9.487  16.427  67.992  1.00  0.00    -0.217 C  
HETATM    8  C   UNL     1      -9.599  14.993  65.905  1.00  0.00    -0.356 C  
ENDBRANCH   2   3
BRANCH   2   9
HETATM    9  C   UNL     1     -11.430  12.618  67.479  1.00  0.00    -0.340 C  
BRANCH   9  10
HETATM   10  C   UNL     1     -10.463  11.467  67.736  1.00  0.00    -0.216 A  
HETATM   11  C   UNL     1      -8.768   9.279  68.295  1.00  0.00    -0.129 A  
HETATM   12 BR   UNL     1     -10.626   7.300  67.435  1.00  0.00    -0.371 Br 
HETATM   13  C   UNL     1     -10.890  10.139  67.530  1.00  0.00    -0.349 A  
HETATM   14  C   UNL     1     -10.040   9.063  67.782  1.00  0.00    -0.208 A  
HETATM   15  C   UNL     1      -8.356  10.583  68.562  1.00  0.00    -0.129 A  
HETATM   16 BR   UNL     1      -6.622  10.819  69.317  1.00  0.00    -0.086 Br 
HETATM   17  C   UNL     1      -9.172  11.700  68.267  1.00  0.00    -0.187 A  
HETATM   18  N   UNL     1      -8.791  12.981  68.721  1.00  0.00    -0.379 NA 
HETATM   19  H1  UNL     1      -7.860  13.148  69.104  1.00  0.00     0.000 HD 
HETATM   20  H2  UNL     1      -9.477  13.289  69.410  1.00  0.00     0.000 HD 
ENDBRANCH   9  10
ENDBRANCH   2   9
TORSDOF 3
ENDMDL
MODEL      114
REMARK 921   NORMALIZED FREE ENERGY PREDICTED BY IDOCK:   -3.85 KCAL/MOL
REMARK 922        TOTAL FREE ENERGY PREDICTED BY IDOCK:   -5.15 KCAL/MOL
REMARK 923 INTER-LIGAND FREE ENERGY PREDICTED BY IDOCK:   -4.72 KCAL/MOL
REMARK 924 INTRA-LIGAND FREE ENERGY PREDICTED BY IDOCK:   -0.43 KCAL/MOL
REMARK 927      BINDING AFFINITY PREDICTED BY RF-SCORE:    0.00 PKD
ROOT
HETATM    1  C   UNL     1      -9.301  10.098  65.786  1.00  0.00    -0.188 C  
HETATM    2  N   UNL     1      -9.698  10.126  67.205  1.00  0.00    -0.162 NA 
ENDROOT
BRANCH   2   3
HETATM    3  C   UNL     1      -9.529   8.770  67.821  1.00  0.00    -0.142 C  
HETATM    4  C   UNL     1      -7.268   9.042  69.773  1.00  0.00    -0.056 C  
HETATM    5  C   UNL     1      -9.731   8.750  69.356  1.00  0.00    -0.172 C  
HETATM    6  C   UNL     1      -8.129   8.153  67.567  1.00  0.00    -0.123 C  
HETATM    7  C   UNL     1      -7.015   8.927  68.270  1.00  0.00    -0.076 C  
HETATM    8  C   UNL     1      -8.666   9.570  70.083  1.00  0.00    -0.258 C  
ENDBRANCH   2   3
BRANCH   2   9
HETATM    9  C   UNL     1     -11.107  10.589  67.332  1.00  0.00    -0.252 C  
BRANCH   9  10
HETATM   10  C   UNL     1     -11.327  12.083  67.543  1.00  0.00    -0.387 A  
HETATM   11  C   UNL     1     -11.605  14.872  67.882  1.00  0.00    -0.364 A  
HETATM   12 BR   UNL     1     -11.056  15.510  65.162  1.00  0.00    -0.359 Br 
HETATM   13  C   UNL     1     -11.118  12.976  66.471  1.00  0.00    -0.315 A  
HETATM   14  C   UNL     1     -11.283  14.350  66.637  1.00  0.00    -0.339 A  
HETATM   15  C   UNL     1     -11.753  14.007  68.964  1.00  0.00    -0.330 A  
HETATM   16 BR   UNL     1     -12.139  14.781  70.662  1.00  0.00    -0.406 Br 
HETATM   17  C   UNL     1     -11.646  12.605  68.819  1.00  0.00    -0.313 A  
HETATM   18  N   UNL     1     -11.620  11.785  69.968  1.00  0.00    -0.479 NA 
HETATM   19  H1  UNL     1     -11.850  12.161  70.888  1.00  0.00     0.000 HD 
HETATM   20  H2  UNL     1     -10.700  11.349  70.025  1.00  0.00     0.000 HD 
ENDBRANCH   9  10
ENDBRANCH   2   9
TORSDOF 3
ENDMDL
MODEL      115
REMARK 921   NORMALIZED FREE ENERGY PREDICTED BY IDOCK:   -3.84 KCAL/MOL
REMARK 922        TOTAL FREE ENERGY PREDICTED BY IDOCK:   -5.14 KCAL/MOL
REMARK 923 INTER-LIGAND FREE ENERGY PREDICTED BY IDOCK:   -4.83 KCAL/MOL
REMARK 924 INTRA-LIGAND FREE ENERGY PREDICTED BY IDOCK:   -0.32 KCAL/MOL
REMARK 927      BINDING AFFINITY PREDICTED BY RF-SCORE:    0.00 PKD
ROOT
HETATM    1  C   UNL     1     -10.946  14.977  67.293  1.00  0.00    -0.326 C  
HETATM    2  N   UNL     1     -10.726  13.589  66.844  1.00  0.00    -0.273 NA 
ENDROOT
BRANCH   2   3
HETATM    3  C   UNL     1     -12.000  13.003  66.317  1.00  0.00    -0.414 C  
HETATM    4  C   UNL     1     -11.916  13.420  63.348  1.00  0.00    -0.406 C  
HETATM    5  C   UNL     1     -11.787  11.848  65.308  1.00  0.00    -0.160 C  
HETATM    6  C   UNL     1     -12.898  14.041  65.595  1.00  0.00    -0.442 C  
HETATM    7  C   UNL     1     -12.267  14.560  64.304  1.00  0.00    -0.441 C  
HETATM    8  C   UNL     1     -11.099  12.327  64.030  1.00  0.00    -0.446 C  
ENDBRANCH   2   3
BRANCH   2   9
HETATM    9  C   UNL     1     -10.193  12.768  67.966  1.00  0.00    -0.228 C  
BRANCH   9  10
HETATM   10  C   UNL     1      -9.486  11.469  67.595  1.00  0.00    -0.170 A  
HETATM   11  C   UNL     1      -8.187   9.100  66.775  1.00  0.00    -0.119 A  
HETATM   12 BR   UNL     1      -6.103  10.435  65.367  1.00  0.00    -0.124 Br 
HETATM   13  C   UNL     1      -8.333  11.509  66.783  1.00  0.00    -0.165 A  
HETATM   14  C   UNL     1      -7.680  10.338  66.404  1.00  0.00    -0.116 A  
HETATM   15  C   UNL     1      -9.360   9.044  67.525  1.00  0.00    -0.135 A  
HETATM   16 BR   UNL     1     -10.042   7.318  67.960  1.00  0.00    -0.222 Br 
HETATM   17  C   UNL     1     -10.018  10.213  67.972  1.00  0.00    -0.148 A  
HETATM   18  N   UNL     1     -11.293  10.110  68.568  1.00  0.00    -0.491 NA 
HETATM   19  H1  UNL     1     -11.676   9.205  68.840  1.00  0.00     0.000 HD 
HETATM   20  H2  UNL     1     -11.967  10.567  67.952  1.00  0.00     0.000 HD 
ENDBRANCH   9  10
ENDBRANCH   2   9
TORSDOF 3
ENDMDL
MODEL      116
REMARK 921   NORMALIZED FREE ENERGY PREDICTED BY IDOCK:   -3.83 KCAL/MOL
REMARK 922        TOTAL FREE ENERGY PREDICTED BY IDOCK:   -5.13 KCAL/MOL
REMARK 923 INTER-LIGAND FREE ENERGY PREDICTED BY IDOCK:   -4.67 KCAL/MOL
REMARK 924 INTRA-LIGAND FREE ENERGY PREDICTED BY IDOCK:   -0.46 KCAL/MOL
REMARK 927      BINDING AFFINITY PREDICTED BY RF-SCORE:    0.00 PKD
ROOT
HETATM    1  C   UNL     1     -12.748   8.315  71.793  1.00  0.00    -0.336 C  
HETATM    2  N   UNL     1     -11.368   8.192  71.286  1.00  0.00    -0.259 NA 
ENDROOT
BRANCH   2   3
HETATM    3  C   UNL     1     -10.388   8.283  72.416  1.00  0.00    -0.332 C  
HETATM    4  C   UNL     1      -8.907   5.676  72.418  1.00  0.00    -0.135 C  
HETATM    5  C   UNL     1      -8.910   8.151  71.974  1.00  0.00    -0.233 C  
HETATM    6  C   UNL     1     -10.606   7.201  73.505  1.00  0.00    -0.416 C  
HETATM    7  C   UNL     1     -10.318   5.791  72.992  1.00  0.00    -0.229 C  
HETATM    8  C   UNL     1      -8.608   6.769  71.397  1.00  0.00    -0.124 C  
ENDBRANCH   2   3
BRANCH   2   9
HETATM    9  C   UNL     1     -11.101   9.246  70.270  1.00  0.00    -0.251 C  
BRANCH   9  10
HETATM   10  C   UNL     1     -10.533   8.788  68.931  1.00  0.00    -0.217 A  
HETATM   11  C   UNL     1      -9.557   8.038  66.390  1.00  0.00    -0.267 A  
HETATM   12 BR   UNL     1      -8.573  10.626  65.728  1.00  0.00    -0.192 Br 
HETATM   13  C   UNL     1      -9.931   9.730  68.070  1.00  0.00    -0.185 A  
HETATM   14  C   UNL     1      -9.427   9.348  66.828  1.00  0.00    -0.165 A  
HETATM   15  C   UNL     1     -10.205   7.111  67.205  1.00  0.00    -0.257 A  
HETATM   16 BR   UNL     1     -10.405   5.339  66.532  1.00  0.00    -0.349 Br 
HETATM   17  C   UNL     1     -10.679   7.451  68.492  1.00  0.00    -0.098 A  
HETATM   18  N   UNL     1     -11.486   6.535  69.202  1.00  0.00    -0.624 NA 
HETATM   19  H1  UNL     1     -11.592   5.571  68.886  1.00  0.00     0.000 HD 
HETATM   20  H2  UNL     1     -12.417   6.941  69.296  1.00  0.00     0.000 HD 
ENDBRANCH   9  10
ENDBRANCH   2   9
TORSDOF 3
ENDMDL
MODEL      117
REMARK 921   NORMALIZED FREE ENERGY PREDICTED BY IDOCK:   -3.82 KCAL/MOL
REMARK 922        TOTAL FREE ENERGY PREDICTED BY IDOCK:   -5.12 KCAL/MOL
REMARK 923 INTER-LIGAND FREE ENERGY PREDICTED BY IDOCK:   -5.46 KCAL/MOL
REMARK 924 INTRA-LIGAND FREE ENERGY PREDICTED BY IDOCK:    0.34 KCAL/MOL
REMARK 927      BINDING AFFINITY PREDICTED BY RF-SCORE:    0.00 PKD
ROOT
HETATM    1  C   UNL     1      -9.505  12.027  66.830  1.00  0.00    -0.208 C  
HETATM    2  N   UNL     1     -10.742  12.819  66.693  1.00  0.00    -0.259 NA 
ENDROOT
BRANCH   2   3
HETATM    3  C   UNL     1     -10.699  13.641  65.442  1.00  0.00    -0.308 C  
HETATM    4  C   UNL     1     -12.321  12.128  63.422  1.00  0.00    -0.648 C  
HETATM    5  C   UNL     1     -12.092  14.111  64.953  1.00  0.00    -0.438 C  
HETATM    6  C   UNL     1     -10.055  12.898  64.243  1.00  0.00    -0.251 C  
HETATM    7  C   UNL     1     -10.894  11.709  63.774  1.00  0.00    -0.493 C  
HETATM    8  C   UNL     1     -12.977  12.936  64.538  1.00  0.00    -0.168 C  
ENDBRANCH   2   3
BRANCH   2   9
HETATM    9  C   UNL     1     -10.927  13.687  67.888  1.00  0.00    -0.259 C  
BRANCH   9  10
HETATM   10  C   UNL     1     -10.074  14.949  67.964  1.00  0.00    -0.221 A  
HETATM   11  C   UNL     1      -8.499  17.292  67.965  1.00  0.00    -0.229 A  
HETATM   12 BR   UNL     1     -10.378  18.855  66.505  1.00  0.00    -0.525 Br 
HETATM   13  C   UNL     1     -10.507  16.122  67.311  1.00  0.00    -0.309 A  
HETATM   14  C   UNL     1      -9.737  17.284  67.338  1.00  0.00    -0.258 A  
HETATM   15  C   UNL     1      -8.032  16.121  68.560  1.00  0.00    -0.175 A  
HETATM   16 BR   UNL     1      -6.302  16.171  69.359  1.00  0.00    -0.188 Br 
HETATM   17  C   UNL     1      -8.810  14.941  68.598  1.00  0.00    -0.179 A  
HETATM   18  N   UNL     1      -8.227  13.736  69.046  1.00  0.00    -0.345 NA 
HETATM   19  H1  UNL     1      -7.315  13.730  69.504  1.00  0.00     0.000 HD 
HETATM   20  H2  UNL     1      -8.188  13.091  68.257  1.00  0.00     0.000 HD 
ENDBRANCH   9  10
ENDBRANCH   2   9
TORSDOF 3
ENDMDL
MODEL      118
REMARK 921   NORMALIZED FREE ENERGY PREDICTED BY IDOCK:   -3.80 KCAL/MOL
REMARK 922        TOTAL FREE ENERGY PREDICTED BY IDOCK:   -5.10 KCAL/MOL
REMARK 923 INTER-LIGAND FREE ENERGY PREDICTED BY IDOCK:   -4.44 KCAL/MOL
REMARK 924 INTRA-LIGAND FREE ENERGY PREDICTED BY IDOCK:   -0.66 KCAL/MOL
REMARK 927      BINDING AFFINITY PREDICTED BY RF-SCORE:    0.00 PKD
ROOT
HETATM    1  C   UNL     1      -7.724   9.037  67.535  1.00  0.00    -0.096 C  
HETATM    2  N   UNL     1      -8.632   9.988  68.202  1.00  0.00    -0.117 NA 
ENDROOT
BRANCH   2   3
HETATM    3  C   UNL     1      -8.560  11.330  67.539  1.00  0.00    -0.134 C  
HETATM    4  C   UNL     1     -11.318  11.867  66.491  1.00  0.00    -0.403 C  
HETATM    5  C   UNL     1      -9.508  12.386  68.159  1.00  0.00    -0.214 C  
HETATM    6  C   UNL     1      -8.901  11.285  66.027  1.00  0.00    -0.189 C  
HETATM    7  C   UNL     1     -10.362  10.919  65.769  1.00  0.00    -0.303 C  
HETATM    8  C   UNL     1     -10.978  12.013  67.972  1.00  0.00    -0.267 C  
ENDBRANCH   2   3
BRANCH   2   9
HETATM    9  C   UNL     1      -8.289  10.095  69.646  1.00  0.00    -0.161 C  
BRANCH   9  10
HETATM   10  C   UNL     1      -9.228   9.408  70.632  1.00  0.00    -0.303 A  
HETATM   11  C   UNL     1     -10.993   8.262  72.514  1.00  0.00    -0.424 A  
HETATM   12 BR   UNL     1     -13.211   9.900  71.805  1.00  0.00    -0.541 Br 
HETATM   13  C   UNL     1     -10.552   9.875  70.775  1.00  0.00    -0.309 A  
HETATM   14  C   UNL     1     -11.427   9.288  71.686  1.00  0.00    -0.398 A  
HETATM   15  C   UNL     1      -9.670   7.832  72.427  1.00  0.00    -0.192 A  
HETATM   16 BR   UNL     1      -9.112   6.458  73.624  1.00  0.00    -0.147 Br 
HETATM   17  C   UNL     1      -8.772   8.369  71.476  1.00  0.00    -0.176 A  
HETATM   18  N   UNL     1      -7.402   8.036  71.547  1.00  0.00    -0.067 NA 
HETATM   19  H1  UNL     1      -7.072   7.287  72.156  1.00  0.00     0.000 HD 
HETATM   20  H2  UNL     1      -6.882   8.883  71.778  1.00  0.00     0.000 HD 
ENDBRANCH   9  10
ENDBRANCH   2   9
TORSDOF 3
ENDMDL
MODEL      119
REMARK 921   NORMALIZED FREE ENERGY PREDICTED BY IDOCK:   -3.80 KCAL/MOL
REMARK 922        TOTAL FREE ENERGY PREDICTED BY IDOCK:   -5.10 KCAL/MOL
REMARK 923 INTER-LIGAND FREE ENERGY PREDICTED BY IDOCK:   -4.78 KCAL/MOL
REMARK 924 INTRA-LIGAND FREE ENERGY PREDICTED BY IDOCK:   -0.31 KCAL/MOL
REMARK 927      BINDING AFFINITY PREDICTED BY RF-SCORE:    0.00 PKD
ROOT
HETATM    1  C   UNL     1      -7.654   7.786  73.535  1.00  0.00    -0.132 C  
HETATM    2  N   UNL     1      -8.803   7.508  72.653  1.00  0.00    -0.131 NA 
ENDROOT
BRANCH   2   3
HETATM    3  C   UNL     1      -8.832   6.058  72.278  1.00  0.00    -0.138 C  
HETATM    4  C   UNL     1     -11.367   4.968  73.454  1.00  0.00    -0.345 C  
HETATM    5  C   UNL     1     -10.058   5.658  71.420  1.00  0.00    -0.254 C  
HETATM    6  C   UNL     1      -8.843   5.108  73.504  1.00  0.00    -0.116 C  
HETATM    7  C   UNL     1     -10.132   5.219  74.317  1.00  0.00    -0.262 C  
HETATM    8  C   UNL     1     -11.370   5.819  72.188  1.00  0.00    -0.317 C  
ENDBRANCH   2   3
BRANCH   2   9
HETATM    9  C   UNL     1      -8.733   8.365  71.438  1.00  0.00    -0.172 C  
BRANCH   9  10
HETATM   10  C   UNL     1      -9.981   9.166  71.085  1.00  0.00    -0.377 A  
HETATM   11  C   UNL     1     -12.362  10.530  70.420  1.00  0.00    -0.409 A  
HETATM   12 BR   UNL     1     -13.908   9.365  72.508  1.00  0.00    -0.255 Br 
HETATM   13  C   UNL     1     -11.177   8.945  71.801  1.00  0.00    -0.432 A  
HETATM   14  C   UNL     1     -12.342   9.642  71.486  1.00  0.00    -0.390 A  
HETATM   15  C   UNL     1     -11.205  10.711  69.665  1.00  0.00    -0.289 A  
HETATM   16 BR   UNL     1     -11.303  11.900  68.179  1.00  0.00    -0.380 Br 
HETATM   17  C   UNL     1      -9.992  10.062  69.991  1.00  0.00    -0.222 A  
HETATM   18  N   UNL     1      -8.902  10.132  69.096  1.00  0.00    -0.164 NA 
HETATM   19  H1  UNL     1      -8.909  10.779  68.306  1.00  0.00     0.000 HD 
HETATM   20  H2  UNL     1      -8.729   9.194  68.735  1.00  0.00     0.000 HD 
ENDBRANCH   9  10
ENDBRANCH   2   9
TORSDOF 3
ENDMDL
MODEL      120
REMARK 921   NORMALIZED FREE ENERGY PREDICTED BY IDOCK:   -3.78 KCAL/MOL
REMARK 922        TOTAL FREE ENERGY PREDICTED BY IDOCK:   -5.08 KCAL/MOL
REMARK 923 INTER-LIGAND FREE ENERGY PREDICTED BY IDOCK:   -4.71 KCAL/MOL
REMARK 924 INTRA-LIGAND FREE ENERGY PREDICTED BY IDOCK:   -0.36 KCAL/MOL
REMARK 927      BINDING AFFINITY PREDICTED BY RF-SCORE:    0.00 PKD
ROOT
HETATM    1  C   UNL     1     -10.905  15.460  65.889  1.00  0.00    -0.325 C  
HETATM    2  N   UNL     1     -10.696  14.747  67.163  1.00  0.00    -0.293 NA 
ENDROOT
BRANCH   2   3
HETATM    3  C   UNL     1     -11.878  13.879  67.474  1.00  0.00    -0.396 C  
HETATM    4  C   UNL     1     -10.896  11.056  67.232  1.00  0.00    -0.335 C  
HETATM    5  C   UNL     1     -11.667  12.950  68.696  1.00  0.00    -0.359 C  
HETATM    6  C   UNL     1     -12.284  12.953  66.299  1.00  0.00    -0.340 C  
HETATM    7  C   UNL     1     -11.224  11.894  65.997  1.00  0.00    -0.377 C  
HETATM    8  C   UNL     1     -10.567  11.920  68.446  1.00  0.00    -0.239 C  
ENDBRANCH   2   3
BRANCH   2   9
HETATM    9  C   UNL     1     -10.456  15.723  68.261  1.00  0.00    -0.259 C  
BRANCH   9  10
HETATM   10  C   UNL     1      -9.011  16.139  68.512  1.00  0.00    -0.204 A  
HETATM   11  C   UNL     1      -6.342  16.990  68.863  1.00  0.00    -0.183 A  
HETATM   12 BR   UNL     1      -6.972  19.766  68.923  1.00  0.00    -0.347 Br 
HETATM   13  C   UNL     1      -8.681  17.509  68.578  1.00  0.00    -0.282 A  
HETATM   14  C   UNL     1      -7.366  17.923  68.778  1.00  0.00    -0.270 A  
HETATM   15  C   UNL     1      -6.645  15.635  68.738  1.00  0.00    -0.110 A  
HETATM   16 BR   UNL     1      -5.195  14.400  68.807  1.00  0.00    -0.093 Br 
HETATM   17  C   UNL     1      -7.975  15.178  68.588  1.00  0.00    -0.151 A  
HETATM   18  N   UNL     1      -8.215  13.821  68.283  1.00  0.00    -0.150 NA 
HETATM   19  H1  UNL     1      -7.468  13.129  68.338  1.00  0.00     0.000 HD 
HETATM   20  H2  UNL     1      -8.621  13.775  67.348  1.00  0.00     0.000 HD 
ENDBRANCH   9  10
ENDBRANCH   2   9
TORSDOF 3
ENDMDL
MODEL      121
REMARK 921   NORMALIZED FREE ENERGY PREDICTED BY IDOCK:   -3.76 KCAL/MOL
REMARK 922        TOTAL FREE ENERGY PREDICTED BY IDOCK:   -5.05 KCAL/MOL
REMARK 923 INTER-LIGAND FREE ENERGY PREDICTED BY IDOCK:   -4.92 KCAL/MOL
REMARK 924 INTRA-LIGAND FREE ENERGY PREDICTED BY IDOCK:   -0.13 KCAL/MOL
REMARK 927      BINDING AFFINITY PREDICTED BY RF-SCORE:    0.00 PKD
ROOT
HETATM    1  C   UNL     1      -9.375  13.428  68.046  1.00  0.00    -0.217 C  
HETATM    2  N   UNL     1      -9.631  12.492  66.936  1.00  0.00    -0.222 NA 
ENDROOT
BRANCH   2   3
HETATM    3  C   UNL     1     -11.091  12.164  66.856  1.00  0.00    -0.297 C  
HETATM    4  C   UNL     1     -12.276  14.191  64.991  1.00  0.00    -0.450 C  
HETATM    5  C   UNL     1     -11.577  11.815  65.428  1.00  0.00    -0.190 C  
HETATM    6  C   UNL     1     -12.004  13.316  67.348  1.00  0.00    -0.383 C  
HETATM    7  C   UNL     1     -11.938  14.543  66.439  1.00  0.00    -0.350 C  
HETATM    8  C   UNL     1     -11.462  13.007  64.479  1.00  0.00    -0.389 C  
ENDBRANCH   2   3
BRANCH   2   9
HETATM    9  C   UNL     1      -8.822  11.255  67.114  1.00  0.00    -0.153 C  
BRANCH   9  10
HETATM   10  C   UNL     1      -9.495  10.086  67.825  1.00  0.00    -0.157 A  
HETATM   11  C   UNL     1     -10.629   7.913  69.227  1.00  0.00    -0.195 A  
HETATM   12 BR   UNL     1     -10.442   9.144  71.787  1.00  0.00    -0.243 Br 
HETATM   13  C   UNL     1      -9.633  10.111  69.229  1.00  0.00    -0.239 A  
HETATM   14  C   UNL     1     -10.218   9.047  69.913  1.00  0.00    -0.202 A  
HETATM   15  C   UNL     1     -10.441   7.849  67.847  1.00  0.00    -0.198 A  
HETATM   16 BR   UNL     1     -10.973   6.247  66.962  1.00  0.00    -0.378 Br 
HETATM   17  C   UNL     1      -9.901   8.932  67.116  1.00  0.00    -0.207 A  
HETATM   18  N   UNL     1      -9.562   8.755  65.757  1.00  0.00    -0.445 NA 
HETATM   19  H1  UNL     1      -9.855   7.922  65.245  1.00  0.00     0.000 HD 
HETATM   20  H2  UNL     1      -8.549   8.839  65.671  1.00  0.00     0.000 HD 
ENDBRANCH   9  10
ENDBRANCH   2   9
TORSDOF 3
ENDMDL
MODEL      122
REMARK 921   NORMALIZED FREE ENERGY PREDICTED BY IDOCK:   -3.73 KCAL/MOL
REMARK 922        TOTAL FREE ENERGY PREDICTED BY IDOCK:   -5.01 KCAL/MOL
REMARK 923 INTER-LIGAND FREE ENERGY PREDICTED BY IDOCK:   -4.91 KCAL/MOL
REMARK 924 INTRA-LIGAND FREE ENERGY PREDICTED BY IDOCK:   -0.10 KCAL/MOL
REMARK 927      BINDING AFFINITY PREDICTED BY RF-SCORE:    0.00 PKD
ROOT
HETATM    1  C   UNL     1     -10.837  15.424  68.834  1.00  0.00    -0.251 C  
HETATM    2  N   UNL     1     -10.009  14.677  67.870  1.00  0.00    -0.219 NA 
ENDROOT
BRANCH   2   3
HETATM    3  C   UNL     1      -9.898  13.241  68.281  1.00  0.00    -0.231 C  
HETATM    4  C   UNL     1     -10.812  11.645  65.911  1.00  0.00    -0.339 C  
HETATM    5  C   UNL     1      -8.933  12.410  67.399  1.00  0.00    -0.185 C  
HETATM    6  C   UNL     1     -11.254  12.490  68.254  1.00  0.00    -0.309 C  
HETATM    7  C   UNL     1     -11.809  12.338  66.838  1.00  0.00    -0.334 C  
HETATM    8  C   UNL     1      -9.432  12.295  65.960  1.00  0.00    -0.194 C  
ENDBRANCH   2   3
BRANCH   2   9
HETATM    9  C   UNL     1      -8.661  15.300  67.763  1.00  0.00    -0.158 C  
BRANCH   9  10
HETATM   10  C   UNL     1      -8.592  16.819  67.866  1.00  0.00    -0.202 A  
HETATM   11  C   UNL     1      -8.437  19.638  67.919  1.00  0.00    -0.356 A  
HETATM   12 BR   UNL     1     -10.428  20.034  65.923  1.00  0.00    -0.396 Br 
HETATM   13  C   UNL     1      -9.377  17.613  67.002  1.00  0.00    -0.258 A  
HETATM   14  C   UNL     1      -9.316  19.004  67.052  1.00  0.00    -0.309 A  
HETATM   15  C   UNL     1      -7.611  18.865  68.733  1.00  0.00    -0.333 A  
HETATM   16 BR   UNL     1      -6.384  19.786  69.865  1.00  0.00    -0.357 Br 
HETATM   17  C   UNL     1      -7.685  17.454  68.747  1.00  0.00    -0.258 A  
HETATM   18  N   UNL     1      -6.710  16.711  69.447  1.00  0.00    -0.221 NA 
HETATM   19  H1  UNL     1      -6.056  17.169  70.083  1.00  0.00     0.000 HD 
HETATM   20  H2  UNL     1      -6.168  16.180  68.766  1.00  0.00     0.000 HD 
ENDBRANCH   9  10
ENDBRANCH   2   9
TORSDOF 3
ENDMDL
MODEL      123
REMARK 921   NORMALIZED FREE ENERGY PREDICTED BY IDOCK:   -3.69 KCAL/MOL
REMARK 922        TOTAL FREE ENERGY PREDICTED BY IDOCK:   -4.97 KCAL/MOL
REMARK 923 INTER-LIGAND FREE ENERGY PREDICTED BY IDOCK:   -4.55 KCAL/MOL
REMARK 924 INTRA-LIGAND FREE ENERGY PREDICTED BY IDOCK:   -0.42 KCAL/MOL
REMARK 927      BINDING AFFINITY PREDICTED BY RF-SCORE:    0.00 PKD
ROOT
HETATM    1  C   UNL     1      -8.183   9.717  68.934  1.00  0.00    -0.110 C  
HETATM    2  N   UNL     1      -9.216  10.759  68.794  1.00  0.00    -0.183 NA 
ENDROOT
BRANCH   2   3
HETATM    3  C   UNL     1     -10.563  10.134  68.593  1.00  0.00    -0.210 C  
HETATM    4  C   UNL     1     -11.951  10.327  71.245  1.00  0.00    -0.457 C  
HETATM    5  C   UNL     1     -11.747  11.097  68.859  1.00  0.00    -0.406 C  
HETATM    6  C   UNL     1     -10.806   8.899  69.499  1.00  0.00    -0.163 C  
HETATM    7  C   UNL     1     -10.882   9.268  70.980  1.00  0.00    -0.385 C  
HETATM    8  C   UNL     1     -11.809  11.534  70.322  1.00  0.00    -0.431 C  
ENDBRANCH   2   3
BRANCH   2   9
HETATM    9  C   UNL     1      -8.881  11.663  67.660  1.00  0.00    -0.159 C  
BRANCH   9  10
HETATM   10  C   UNL     1      -8.700  13.141  67.984  1.00  0.00    -0.190 A  
HETATM   11  C   UNL     1      -8.475  15.908  68.501  1.00  0.00    -0.184 A  
HETATM   12 BR   UNL     1     -11.159  16.213  69.401  1.00  0.00    -0.337 Br 
HETATM   13  C   UNL     1      -9.802  13.893  68.446  1.00  0.00    -0.229 A  
HETATM   14  C   UNL     1      -9.678  15.253  68.725  1.00  0.00    -0.212 A  
HETATM   15  C   UNL     1      -7.396  15.190  67.987  1.00  0.00    -0.123 A  
HETATM   16 BR   UNL     1      -5.785  16.151  67.646  1.00  0.00    -0.170 Br 
HETATM   17  C   UNL     1      -7.472  13.800  67.743  1.00  0.00    -0.163 A  
HETATM   18  N   UNL     1      -6.422  13.155  67.054  1.00  0.00    -0.435 NA 
HETATM   19  H1  UNL     1      -5.536  13.630  66.881  1.00  0.00     0.000 HD 
HETATM   20  H2  UNL     1      -6.786  12.827  66.160  1.00  0.00     0.000 HD 
ENDBRANCH   9  10
ENDBRANCH   2   9
TORSDOF 3
ENDMDL
MODEL      124
REMARK 921   NORMALIZED FREE ENERGY PREDICTED BY IDOCK:   -3.69 KCAL/MOL
REMARK 922        TOTAL FREE ENERGY PREDICTED BY IDOCK:   -4.97 KCAL/MOL
REMARK 923 INTER-LIGAND FREE ENERGY PREDICTED BY IDOCK:   -4.20 KCAL/MOL
REMARK 924 INTRA-LIGAND FREE ENERGY PREDICTED BY IDOCK:   -0.77 KCAL/MOL
REMARK 927      BINDING AFFINITY PREDICTED BY RF-SCORE:    0.00 PKD
ROOT
HETATM    1  C   UNL     1      -9.374   6.188  68.402  1.00  0.00    -0.116 C  
HETATM    2  N   UNL     1      -9.308   7.647  68.606  1.00  0.00    -0.147 NA 
ENDROOT
BRANCH   2   3
HETATM    3  C   UNL     1      -9.082   7.961  70.053  1.00  0.00    -0.152 C  
HETATM    4  C   UNL     1      -6.563   9.587  70.146  1.00  0.00    -0.073 C  
HETATM    5  C   UNL     1      -9.066   9.478  70.370  1.00  0.00    -0.296 C  
HETATM    6  C   UNL     1      -7.745   7.398  70.600  1.00  0.00    -0.091 C  
HETATM    7  C   UNL     1      -6.526   8.070  69.969  1.00  0.00    -0.033 C  
HETATM    8  C   UNL     1      -7.892  10.189  69.698  1.00  0.00    -0.181 C  
ENDBRANCH   2   3
BRANCH   2   9
HETATM    9  C   UNL     1     -10.560   8.289  68.117  1.00  0.00    -0.111 C  
BRANCH   9  10
HETATM   10  C   UNL     1     -10.407   9.423  67.110  1.00  0.00    -0.326 A  
HETATM   11  C   UNL     1     -10.265  11.535  65.242  1.00  0.00    -0.315 A  
HETATM   12 BR   UNL     1     -11.737  13.377  66.837  1.00  0.00    -0.457 Br 
HETATM   13  C   UNL     1     -11.034  10.663  67.357  1.00  0.00    -0.361 A  
HETATM   14  C   UNL     1     -10.937  11.711  66.443  1.00  0.00    -0.295 A  
HETATM   15  C   UNL     1      -9.695  10.295  64.958  1.00  0.00    -0.305 A  
HETATM   16 BR   UNL     1      -8.831  10.091  63.271  1.00  0.00    -0.275 Br 
HETATM   17  C   UNL     1      -9.727   9.228  65.885  1.00  0.00    -0.285 A  
HETATM   18  N   UNL     1      -9.301   7.943  65.484  1.00  0.00    -0.380 NA 
HETATM   19  H1  UNL     1      -8.810   7.803  64.600  1.00  0.00     0.000 HD 
HETATM   20  H2  UNL     1     -10.111   7.323  65.498  1.00  0.00     0.000 HD 
ENDBRANCH   9  10
ENDBRANCH   2   9
TORSDOF 3
ENDMDL
MODEL      125
REMARK 921   NORMALIZED FREE ENERGY PREDICTED BY IDOCK:   -3.64 KCAL/MOL
REMARK 922        TOTAL FREE ENERGY PREDICTED BY IDOCK:   -4.90 KCAL/MOL
REMARK 923 INTER-LIGAND FREE ENERGY PREDICTED BY IDOCK:   -4.32 KCAL/MOL
REMARK 924 INTRA-LIGAND FREE ENERGY PREDICTED BY IDOCK:   -0.58 KCAL/MOL
REMARK 927      BINDING AFFINITY PREDICTED BY RF-SCORE:    0.00 PKD
ROOT
HETATM    1  C   UNL     1     -11.474   6.222  69.930  1.00  0.00    -0.389 C  
HETATM    2  N   UNL     1     -10.304   6.812  69.253  1.00  0.00    -0.190 NA 
ENDROOT
BRANCH   2   3
HETATM    3  C   UNL     1      -9.231   5.781  69.074  1.00  0.00    -0.119 C  
HETATM    4  C   UNL     1      -8.975   5.384  66.112  1.00  0.00    -0.142 C  
HETATM    5  C   UNL     1      -8.013   6.280  68.257  1.00  0.00    -0.108 C  
HETATM    6  C   UNL     1      -9.728   4.498  68.358  1.00  0.00    -0.188 C  
HETATM    7  C   UNL     1     -10.121   4.756  66.904  1.00  0.00    -0.246 C  
HETATM    8  C   UNL     1      -8.391   6.607  66.813  1.00  0.00    -0.115 C  
ENDBRANCH   2   3
BRANCH   2   9
HETATM    9  C   UNL     1      -9.793   7.972  70.033  1.00  0.00    -0.185 C  
BRANCH   9  10
HETATM   10  C   UNL     1     -10.472   9.317  69.795  1.00  0.00    -0.235 A  
HETATM   11  C   UNL     1     -11.602  11.865  69.346  1.00  0.00    -0.388 A  
HETATM   12 BR   UNL     1     -10.219  12.323  66.901  1.00  0.00    -0.234 Br 
HETATM   13  C   UNL     1     -10.107  10.093  68.676  1.00  0.00    -0.186 A  
HETATM   14  C   UNL     1     -10.688  11.339  68.444  1.00  0.00    -0.203 A  
HETATM   15  C   UNL     1     -11.926  11.135  70.489  1.00  0.00    -0.380 A  
HETATM   16 BR   UNL     1     -13.144  11.927  71.722  1.00  0.00    -0.337 Br 
HETATM   17  C   UNL     1     -11.396   9.846  70.727  1.00  0.00    -0.353 A  
HETATM   18  N   UNL     1     -11.606   9.225  71.977  1.00  0.00    -0.321 NA 
HETATM   19  H1  UNL     1     -12.273   9.607  72.649  1.00  0.00     0.000 HD 
HETATM   20  H2  UNL     1     -10.703   9.138  72.443  1.00  0.00     0.000 HD 
ENDBRANCH   9  10
ENDBRANCH   2   9
TORSDOF 3
ENDMDL
MODEL      126
REMARK 921   NORMALIZED FREE ENERGY PREDICTED BY IDOCK:   -3.64 KCAL/MOL
REMARK 922        TOTAL FREE ENERGY PREDICTED BY IDOCK:   -4.90 KCAL/MOL
REMARK 923 INTER-LIGAND FREE ENERGY PREDICTED BY IDOCK:   -4.20 KCAL/MOL
REMARK 924 INTRA-LIGAND FREE ENERGY PREDICTED BY IDOCK:   -0.70 KCAL/MOL
REMARK 927      BINDING AFFINITY PREDICTED BY RF-SCORE:    0.00 PKD
ROOT
HETATM    1  C   UNL     1     -10.863  11.283  63.803  1.00  0.00    -0.350 C  
HETATM    2  N   UNL     1     -10.357  11.744  65.109  1.00  0.00    -0.267 NA 
ENDROOT
BRANCH   2   3
HETATM    3  C   UNL     1     -10.071  13.214  65.068  1.00  0.00    -0.222 C  
HETATM    4  C   UNL     1     -12.178  14.499  66.772  1.00  0.00    -0.232 C  
HETATM    5  C   UNL     1      -9.773  13.833  66.456  1.00  0.00    -0.301 C  
HETATM    6  C   UNL     1     -11.233  14.047  64.469  1.00  0.00    -0.358 C  
HETATM    7  C   UNL     1     -12.482  14.025  65.351  1.00  0.00    -0.520 C  
HETATM    8  C   UNL     1     -10.987  13.767  67.382  1.00  0.00    -0.296 C  
ENDBRANCH   2   3
BRANCH   2   9
HETATM    9  C   UNL     1      -9.135  10.980  65.483  1.00  0.00    -0.207 C  
BRANCH   9  10
HETATM   10  C   UNL     1      -8.959  10.637  66.958  1.00  0.00    -0.145 A  
HETATM   11  C   UNL     1      -8.508   9.943  69.657  1.00  0.00    -0.198 A  
HETATM   12 BR   UNL     1      -6.002  11.281  69.844  1.00  0.00    -0.133 Br 
HETATM   13  C   UNL     1      -7.776  11.019  67.625  1.00  0.00    -0.112 A  
HETATM   14  C   UNL     1      -7.571  10.698  68.966  1.00  0.00    -0.122 A  
HETATM   15  C   UNL     1      -9.653   9.506  68.992  1.00  0.00    -0.166 A  
HETATM   16 BR   UNL     1     -10.880   8.427  69.973  1.00  0.00    -0.194 Br 
HETATM   17  C   UNL     1      -9.917   9.860  67.650  1.00  0.00    -0.171 A  
HETATM   18  N   UNL     1     -10.989   9.247  66.965  1.00  0.00    -0.211 NA 
HETATM   19  H1  UNL     1     -11.681   8.686  67.464  1.00  0.00     0.000 HD 
HETATM   20  H2  UNL     1     -10.600   8.675  66.216  1.00  0.00     0.000 HD 
ENDBRANCH   9  10
ENDBRANCH   2   9
TORSDOF 3
ENDMDL
MODEL      127
REMARK 921   NORMALIZED FREE ENERGY PREDICTED BY IDOCK:   -3.64 KCAL/MOL
REMARK 922        TOTAL FREE ENERGY PREDICTED BY IDOCK:   -4.90 KCAL/MOL
REMARK 923 INTER-LIGAND FREE ENERGY PREDICTED BY IDOCK:   -4.16 KCAL/MOL
REMARK 924 INTRA-LIGAND FREE ENERGY PREDICTED BY IDOCK:   -0.74 KCAL/MOL
REMARK 927      BINDING AFFINITY PREDICTED BY RF-SCORE:    0.00 PKD
ROOT
HETATM    1  C   UNL     1      -8.526  14.399  67.559  1.00  0.00    -0.192 C  
HETATM    2  N   UNL     1      -9.778  13.738  67.146  1.00  0.00    -0.238 NA 
ENDROOT
BRANCH   2   3
HETATM    3  C   UNL     1     -10.924  14.701  67.218  1.00  0.00    -0.317 C  
HETATM    4  C   UNL     1     -12.158  14.699  64.484  1.00  0.00    -0.490 C  
HETATM    5  C   UNL     1     -12.300  14.060  66.913  1.00  0.00    -0.321 C  
HETATM    6  C   UNL     1     -10.783  15.895  66.238  1.00  0.00    -0.261 C  
HETATM    7  C   UNL     1     -10.866  15.462  64.775  1.00  0.00    -0.385 C  
HETATM    8  C   UNL     1     -12.390  13.559  65.472  1.00  0.00    -0.524 C  
ENDBRANCH   2   3
BRANCH   2   9
HETATM    9  C   UNL     1     -10.035  12.549  68.003  1.00  0.00    -0.219 C  
BRANCH   9  10
HETATM   10  C   UNL     1      -9.138  11.335  67.788  1.00  0.00    -0.152 A  
HETATM   11  C   UNL     1      -7.372   9.157  67.455  1.00  0.00    -0.084 A  
HETATM   12 BR   UNL     1      -6.758   8.908  70.224  1.00  0.00    -0.048 Br 
HETATM   13  C   UNL     1      -8.455  10.770  68.886  1.00  0.00    -0.149 A  
HETATM   14  C   UNL     1      -7.606   9.678  68.720  1.00  0.00    -0.076 A  
HETATM   15  C   UNL     1      -7.991   9.745  66.353  1.00  0.00    -0.109 A  
HETATM   16 BR   UNL     1      -7.593   9.026  64.634  1.00  0.00    -0.111 Br 
HETATM   17  C   UNL     1      -8.900  10.819  66.493  1.00  0.00    -0.155 A  
HETATM   18  N   UNL     1      -9.359  11.498  65.343  1.00  0.00    -0.329 NA 
HETATM   19  H1  UNL     1      -9.187  11.126  64.408  1.00  0.00     0.000 HD 
HETATM   20  H2  UNL     1      -8.998  12.452  65.374  1.00  0.00     0.000 HD 
ENDBRANCH   9  10
ENDBRANCH   2   9
TORSDOF 3
ENDMDL
MODEL      128
REMARK 921   NORMALIZED FREE ENERGY PREDICTED BY IDOCK:   -3.63 KCAL/MOL
REMARK 922        TOTAL FREE ENERGY PREDICTED BY IDOCK:   -4.89 KCAL/MOL
REMARK 923 INTER-LIGAND FREE ENERGY PREDICTED BY IDOCK:   -4.19 KCAL/MOL
REMARK 924 INTRA-LIGAND FREE ENERGY PREDICTED BY IDOCK:   -0.70 KCAL/MOL
REMARK 927      BINDING AFFINITY PREDICTED BY RF-SCORE:    0.00 PKD
ROOT
HETATM    1  C   UNL     1      -9.983   8.879  69.096  1.00  0.00    -0.190 C  
HETATM    2  N   UNL     1      -9.413   9.857  68.150  1.00  0.00    -0.138 NA 
ENDROOT
BRANCH   2   3
HETATM    3  C   UNL     1      -8.042   9.431  67.724  1.00  0.00    -0.107 C  
HETATM    4  C   UNL     1      -8.323   8.522  64.879  1.00  0.00    -0.171 C  
HETATM    5  C   UNL     1      -7.483  10.232  66.522  1.00  0.00    -0.113 C  
HETATM    6  C   UNL     1      -7.964   7.938  67.313  1.00  0.00    -0.118 C  
HETATM    7  C   UNL     1      -8.763   7.639  66.045  1.00  0.00    -0.178 C  
HETATM    8  C   UNL     1      -8.302  10.002  65.252  1.00  0.00    -0.157 C  
ENDBRANCH   2   3
BRANCH   2   9
HETATM    9  C   UNL     1      -9.375  11.208  68.774  1.00  0.00    -0.149 C  
BRANCH   9  10
HETATM   10  C   UNL     1      -9.636  12.399  67.858  1.00  0.00    -0.205 A  
HETATM   11  C   UNL     1     -10.102  14.689  66.274  1.00  0.00    -0.307 A  
HETATM   12 BR   UNL     1      -7.652  15.968  66.957  1.00  0.00    -0.266 Br 
HETATM   13  C   UNL     1      -8.715  13.468  67.826  1.00  0.00    -0.189 A  
HETATM   14  C   UNL     1      -8.938  14.584  67.021  1.00  0.00    -0.240 A  
HETATM   15  C   UNL     1     -11.049  13.669  66.345  1.00  0.00    -0.303 A  
HETATM   16 BR   UNL     1     -12.655  13.889  65.341  1.00  0.00    -0.511 Br 
HETATM   17  C   UNL     1     -10.831  12.499  67.108  1.00  0.00    -0.250 A  
HETATM   18  N   UNL     1     -11.888  11.582  67.295  1.00  0.00    -0.604 NA 
HETATM   19  H1  UNL     1     -12.750  11.654  66.754  1.00  0.00     0.000 HD 
HETATM   20  H2  UNL     1     -12.135  11.582  68.285  1.00  0.00     0.000 HD 
ENDBRANCH   9  10
ENDBRANCH   2   9
TORSDOF 3
ENDMDL
MODEL      129
REMARK 921   NORMALIZED FREE ENERGY PREDICTED BY IDOCK:   -3.62 KCAL/MOL
REMARK 922        TOTAL FREE ENERGY PREDICTED BY IDOCK:   -4.88 KCAL/MOL
REMARK 923 INTER-LIGAND FREE ENERGY PREDICTED BY IDOCK:   -4.73 KCAL/MOL
REMARK 924 INTRA-LIGAND FREE ENERGY PREDICTED BY IDOCK:   -0.15 KCAL/MOL
REMARK 927      BINDING AFFINITY PREDICTED BY RF-SCORE:    0.00 PKD
ROOT
HETATM    1  C   UNL     1      -8.789  10.726  67.176  1.00  0.00    -0.134 C  
HETATM    2  N   UNL     1      -9.463  10.742  68.488  1.00  0.00    -0.173 NA 
ENDROOT
BRANCH   2   3
HETATM    3  C   UNL     1     -10.594   9.759  68.504  1.00  0.00    -0.221 C  
HETATM    4  C   UNL     1     -10.224   8.139  71.000  1.00  0.00    -0.221 C  
HETATM    5  C   UNL     1     -11.518   9.889  69.740  1.00  0.00    -0.194 C  
HETATM    6  C   UNL     1     -10.122   8.282  68.477  1.00  0.00    -0.217 C  
HETATM    7  C   UNL     1      -9.380   7.884  69.752  1.00  0.00    -0.153 C  
HETATM    8  C   UNL     1     -10.784   9.557  71.038  1.00  0.00    -0.411 C  
ENDBRANCH   2   3
BRANCH   2   9
HETATM    9  C   UNL     1      -9.953  12.114  68.793  1.00  0.00    -0.052 C  
BRANCH   9  10
HETATM   10  C   UNL     1      -9.895  13.136  67.664  1.00  0.00    -0.219 A  
HETATM   11  C   UNL     1      -9.790  15.131  65.669  1.00  0.00    -0.378 A  
HETATM   12 BR   UNL     1      -7.478  16.415  66.722  1.00  0.00    -0.267 Br 
HETATM   13  C   UNL     1      -8.911  14.147  67.690  1.00  0.00    -0.192 A  
HETATM   14  C   UNL     1      -8.848  15.114  66.687  1.00  0.00    -0.286 A  
HETATM   15  C   UNL     1     -10.804  14.175  65.666  1.00  0.00    -0.305 A  
HETATM   16 BR   UNL     1     -12.104  14.278  64.275  1.00  0.00    -0.402 Br 
HETATM   17  C   UNL     1     -10.867  13.149  66.636  1.00  0.00    -0.280 A  
HETATM   18  N   UNL     1     -12.007  12.319  66.701  1.00  0.00    -0.622 NA 
HETATM   19  H1  UNL     1     -12.708  12.328  65.959  1.00  0.00     0.000 HD 
HETATM   20  H2  UNL     1     -12.480  12.501  67.586  1.00  0.00     0.000 HD 
ENDBRANCH   9  10
ENDBRANCH   2   9
TORSDOF 3
ENDMDL
MODEL      130
REMARK 921   NORMALIZED FREE ENERGY PREDICTED BY IDOCK:   -3.61 KCAL/MOL
REMARK 922        TOTAL FREE ENERGY PREDICTED BY IDOCK:   -4.88 KCAL/MOL
REMARK 923 INTER-LIGAND FREE ENERGY PREDICTED BY IDOCK:   -5.12 KCAL/MOL
REMARK 924 INTRA-LIGAND FREE ENERGY PREDICTED BY IDOCK:    0.24 KCAL/MOL
REMARK 927      BINDING AFFINITY PREDICTED BY RF-SCORE:    0.00 PKD
ROOT
HETATM    1  C   UNL     1     -11.716  10.207  71.348  1.00  0.00    -0.290 C  
HETATM    2  N   UNL     1     -11.671  10.351  69.882  1.00  0.00    -0.267 NA 
ENDROOT
BRANCH   2   3
HETATM    3  C   UNL     1     -10.256  10.524  69.418  1.00  0.00    -0.221 C  
HETATM    4  C   UNL     1      -9.583   8.017  67.916  1.00  0.00    -0.178 C  
HETATM    5  C   UNL     1     -10.092  10.480  67.879  1.00  0.00    -0.204 C  
HETATM    6  C   UNL     1      -9.292   9.448  69.981  1.00  0.00    -0.253 C  
HETATM    7  C   UNL     1      -9.599   8.051  69.444  1.00  0.00    -0.160 C  
HETATM    8  C   UNL     1     -10.455   9.110  67.305  1.00  0.00    -0.335 C  
ENDBRANCH   2   3
BRANCH   2   9
HETATM    9  C   UNL     1     -12.509  11.505  69.455  1.00  0.00     0.004 C  
BRANCH   9  10
HETATM   10  C   UNL     1     -12.121  12.877  69.994  1.00  0.00    -0.357 A  
HETATM   11  C   UNL     1     -11.269  15.376  70.994  1.00  0.00    -0.408 A  
HETATM   12 BR   UNL     1      -9.388  15.851  68.910  1.00  0.00    -0.248 Br 
HETATM   13  C   UNL     1     -11.106  13.616  69.351  1.00  0.00    -0.193 A  
HETATM   14  C   UNL     1     -10.708  14.862  69.834  1.00  0.00    -0.175 A  
HETATM   15  C   UNL     1     -12.228  14.628  71.674  1.00  0.00    -0.344 A  
HETATM   16 BR   UNL     1     -12.926  15.356  73.292  1.00  0.00    -0.693 Br 
HETATM   17  C   UNL     1     -12.694  13.387  71.183  1.00  0.00    -0.328 A  
HETATM   18  N   UNL     1     -13.525  12.584  71.993  1.00  0.00    -0.468 NA 
HETATM   19  H1  UNL     1     -13.939  12.952  72.851  1.00  0.00     0.000 HD 
HETATM   20  H2  UNL     1     -13.012  11.734  72.228  1.00  0.00     0.000 HD 
ENDBRANCH   9  10
ENDBRANCH   2   9
TORSDOF 3
ENDMDL
MODEL      131
REMARK 921   NORMALIZED FREE ENERGY PREDICTED BY IDOCK:   -3.61 KCAL/MOL
REMARK 922        TOTAL FREE ENERGY PREDICTED BY IDOCK:   -4.88 KCAL/MOL
REMARK 923 INTER-LIGAND FREE ENERGY PREDICTED BY IDOCK:   -4.29 KCAL/MOL
REMARK 924 INTRA-LIGAND FREE ENERGY PREDICTED BY IDOCK:   -0.58 KCAL/MOL
REMARK 927      BINDING AFFINITY PREDICTED BY RF-SCORE:    0.00 PKD
ROOT
HETATM    1  C   UNL     1      -9.616   5.816  67.812  1.00  0.00    -0.115 C  
HETATM    2  N   UNL     1      -9.960   7.064  68.518  1.00  0.00    -0.151 NA 
ENDROOT
BRANCH   2   3
HETATM    3  C   UNL     1     -10.558   6.757  69.857  1.00  0.00    -0.222 C  
HETATM    4  C   UNL     1      -9.102   8.503  71.814  1.00  0.00    -0.304 C  
HETATM    5  C   UNL     1     -11.211   7.981  70.546  1.00  0.00    -0.252 C  
HETATM    6  C   UNL     1      -9.530   6.195  70.872  1.00  0.00    -0.187 C  
HETATM    7  C   UNL     1      -8.471   7.226  71.262  1.00  0.00    -0.115 C  
HETATM    8  C   UNL     1     -10.183   9.058  70.891  1.00  0.00    -0.324 C  
ENDBRANCH   2   3
BRANCH   2   9
HETATM    9  C   UNL     1     -10.900   7.874  67.695  1.00  0.00    -0.055 C  
BRANCH   9  10
HETATM   10  C   UNL     1     -10.354   9.163  67.090  1.00  0.00    -0.337 A  
HETATM   11  C   UNL     1      -9.221  11.523  66.034  1.00  0.00    -0.229 A  
HETATM   12 BR   UNL     1      -7.011  10.213  64.808  1.00  0.00    -0.098 Br 
HETATM   13  C   UNL     1      -9.143   9.134  66.367  1.00  0.00    -0.211 A  
HETATM   14  C   UNL     1      -8.603  10.299  65.824  1.00  0.00    -0.154 A  
HETATM   15  C   UNL     1     -10.385  11.574  66.800  1.00  0.00    -0.226 A  
HETATM   16 BR   UNL     1     -11.163  13.288  67.103  1.00  0.00    -0.347 Br 
HETATM   17  C   UNL     1     -10.989  10.406  67.318  1.00  0.00    -0.240 A  
HETATM   18  N   UNL     1     -12.056  10.521  68.236  1.00  0.00    -0.725 NA 
HETATM   19  H1  UNL     1     -12.515  11.418  68.400  1.00  0.00     0.000 HD 
HETATM   20  H2  UNL     1     -11.741  10.157  69.135  1.00  0.00     0.000 HD 
ENDBRANCH   9  10
ENDBRANCH   2   9
TORSDOF 3
ENDMDL
MODEL      132
REMARK 921   NORMALIZED FREE ENERGY PREDICTED BY IDOCK:   -3.57 KCAL/MOL
REMARK 922        TOTAL FREE ENERGY PREDICTED BY IDOCK:   -4.82 KCAL/MOL
REMARK 923 INTER-LIGAND FREE ENERGY PREDICTED BY IDOCK:   -4.13 KCAL/MOL
REMARK 924 INTRA-LIGAND FREE ENERGY PREDICTED BY IDOCK:   -0.69 KCAL/MOL
REMARK 927      BINDING AFFINITY PREDICTED BY RF-SCORE:    0.00 PKD
ROOT
HETATM    1  C   UNL     1     -11.230   9.635  69.532  1.00  0.00    -0.109 C  
HETATM    2  N   UNL     1      -9.870   9.770  68.979  1.00  0.00    -0.173 NA 
ENDROOT
BRANCH   2   3
HETATM    3  C   UNL     1      -8.853   9.705  70.077  1.00  0.00    -0.232 C  
HETATM    4  C   UNL     1      -7.187   7.280  69.495  1.00  0.00    -0.080 C  
HETATM    5  C   UNL     1      -7.388   9.785  69.580  1.00  0.00    -0.092 C  
HETATM    6  C   UNL     1      -8.945   8.407  70.921  1.00  0.00    -0.188 C  
HETATM    7  C   UNL     1      -8.577   7.161  70.117  1.00  0.00    -0.140 C  
HETATM    8  C   UNL     1      -7.011   8.581  68.718  1.00  0.00    -0.063 C  
ENDBRANCH   2   3
BRANCH   2   9
HETATM    9  C   UNL     1      -9.749  11.048  68.226  1.00  0.00    -0.177 C  
BRANCH   9  10
HETATM   10  C   UNL     1      -9.779  10.959  66.704  1.00  0.00    -0.222 A  
HETATM   11  C   UNL     1      -9.711  10.862  63.883  1.00  0.00    -0.352 A  
HETATM   12 BR   UNL     1      -7.156   9.615  63.738  1.00  0.00    -0.119 Br 
HETATM   13  C   UNL     1      -8.661  10.442  66.015  1.00  0.00    -0.163 A  
HETATM   14  C   UNL     1      -8.644  10.371  64.623  1.00  0.00    -0.185 A  
HETATM   15  C   UNL     1     -10.795  11.432  64.549  1.00  0.00    -0.309 A  
HETATM   16 BR   UNL     1     -12.207  12.140  63.483  1.00  0.00    -0.644 Br 
HETATM   17  C   UNL     1     -10.868  11.470  65.960  1.00  0.00    -0.276 A  
HETATM   18  N   UNL     1     -11.890  12.216  66.585  1.00  0.00    -0.612 NA 
HETATM   19  H1  UNL     1     -12.676  12.585  66.049  1.00  0.00     0.000 HD 
HETATM   20  H2  UNL     1     -11.455  12.993  67.084  1.00  0.00     0.000 HD 
ENDBRANCH   9  10
ENDBRANCH   2   9
TORSDOF 3
ENDMDL
MODEL      133
REMARK 921   NORMALIZED FREE ENERGY PREDICTED BY IDOCK:   -3.56 KCAL/MOL
REMARK 922        TOTAL FREE ENERGY PREDICTED BY IDOCK:   -4.82 KCAL/MOL
REMARK 923 INTER-LIGAND FREE ENERGY PREDICTED BY IDOCK:   -4.25 KCAL/MOL
REMARK 924 INTRA-LIGAND FREE ENERGY PREDICTED BY IDOCK:   -0.56 KCAL/MOL
REMARK 927      BINDING AFFINITY PREDICTED BY RF-SCORE:    0.00 PKD
ROOT
HETATM    1  C   UNL     1     -11.811  13.282  64.273  1.00  0.00    -0.417 C  
HETATM    2  N   UNL     1     -10.681  12.499  64.805  1.00  0.00    -0.288 NA 
ENDROOT
BRANCH   2   3
HETATM    3  C   UNL     1     -10.754  11.083  64.321  1.00  0.00    -0.278 C  
HETATM    4  C   UNL     1      -7.938  10.316  63.630  1.00  0.00    -0.139 C  
HETATM    5  C   UNL     1      -9.918  10.089  65.165  1.00  0.00    -0.350 C  
HETATM    6  C   UNL     1     -10.272  10.911  62.857  1.00  0.00    -0.089 C  
HETATM    7  C   UNL     1      -8.777  11.189  62.699  1.00  0.00    -0.268 C  
HETATM    8  C   UNL     1      -8.421  10.383  65.076  1.00  0.00    -0.180 C  
ENDBRANCH   2   3
BRANCH   2   9
HETATM    9  C   UNL     1     -10.681  12.547  66.293  1.00  0.00    -0.260 C  
BRANCH   9  10
HETATM   10  C   UNL     1      -9.880  13.667  66.948  1.00  0.00    -0.261 A  
HETATM   11  C   UNL     1      -8.339  15.645  68.245  1.00  0.00    -0.154 A  
HETATM   12 BR   UNL     1      -5.837  14.384  67.738  1.00  0.00    -0.035 Br 
HETATM   13  C   UNL     1      -8.478  13.552  67.053  1.00  0.00    -0.137 A  
HETATM   14  C   UNL     1      -7.719  14.544  67.671  1.00  0.00    -0.179 A  
HETATM   15  C   UNL     1      -9.729  15.741  68.203  1.00  0.00    -0.211 A  
HETATM   16 BR   UNL     1     -10.531  17.246  69.056  1.00  0.00    -0.234 Br 
HETATM   17  C   UNL     1     -10.524  14.780  67.538  1.00  0.00    -0.245 A  
HETATM   18  N   UNL     1     -11.928  14.820  67.678  1.00  0.00    -0.524 NA 
HETATM   19  H1  UNL     1     -12.392  15.623  68.103  1.00  0.00     0.000 HD 
HETATM   20  H2  UNL     1     -12.219  13.982  68.182  1.00  0.00     0.000 HD 
ENDBRANCH   9  10
ENDBRANCH   2   9
TORSDOF 3
ENDMDL
MODEL      134
REMARK 921   NORMALIZED FREE ENERGY PREDICTED BY IDOCK:   -3.55 KCAL/MOL
REMARK 922        TOTAL FREE ENERGY PREDICTED BY IDOCK:   -4.80 KCAL/MOL
REMARK 923 INTER-LIGAND FREE ENERGY PREDICTED BY IDOCK:   -4.60 KCAL/MOL
REMARK 924 INTRA-LIGAND FREE ENERGY PREDICTED BY IDOCK:   -0.20 KCAL/MOL
REMARK 927      BINDING AFFINITY PREDICTED BY RF-SCORE:    0.00 PKD
ROOT
HETATM    1  C   UNL     1     -11.399  10.466  70.593  1.00  0.00    -0.325 C  
HETATM    2  N   UNL     1     -11.116   9.148  69.995  1.00  0.00    -0.221 NA 
ENDROOT
BRANCH   2   3
HETATM    3  C   UNL     1     -10.068   8.430  70.790  1.00  0.00    -0.193 C  
HETATM    4  C   UNL     1     -11.379   5.919  71.778  1.00  0.00    -0.289 C  
HETATM    5  C   UNL     1      -9.721   7.023  70.242  1.00  0.00    -0.177 C  
HETATM    6  C   UNL     1     -10.461   8.223  72.276  1.00  0.00    -0.392 C  
HETATM    7  C   UNL     1     -11.645   7.271  72.439  1.00  0.00    -0.307 C  
HETATM    8  C   UNL     1     -10.909   6.066  70.334  1.00  0.00    -0.386 C  
ENDBRANCH   2   3
BRANCH   2   9
HETATM    9  C   UNL     1     -10.684   9.310  68.580  1.00  0.00    -0.142 C  
BRANCH   9  10
HETATM   10  C   UNL     1     -10.312  10.718  68.128  1.00  0.00    -0.197 A  
HETATM   11  C   UNL     1      -9.651  13.286  67.159  1.00  0.00    -0.240 A  
HETATM   12 BR   UNL     1     -12.141  13.705  65.844  1.00  0.00    -0.508 Br 
HETATM   13  C   UNL     1     -11.209  11.450  67.322  1.00  0.00    -0.370 A  
HETATM   14  C   UNL     1     -10.888  12.729  66.869  1.00  0.00    -0.253 A  
HETATM   15  C   UNL     1      -8.731  12.548  67.902  1.00  0.00    -0.180 A  
HETATM   16 BR   UNL     1      -7.026  13.338  68.225  1.00  0.00    -0.123 Br 
HETATM   17  C   UNL     1      -9.044  11.271  68.423  1.00  0.00    -0.170 A  
HETATM   18  N   UNL     1      -8.026  10.488  69.008  1.00  0.00    -0.126 NA 
HETATM   19  H1  UNL     1      -7.111  10.888  69.221  1.00  0.00     0.000 HD 
HETATM   20  H2  UNL     1      -7.883   9.665  68.422  1.00  0.00     0.000 HD 
ENDBRANCH   9  10
ENDBRANCH   2   9
TORSDOF 3
ENDMDL
MODEL      135
REMARK 921   NORMALIZED FREE ENERGY PREDICTED BY IDOCK:   -3.50 KCAL/MOL
REMARK 922        TOTAL FREE ENERGY PREDICTED BY IDOCK:   -4.74 KCAL/MOL
REMARK 923 INTER-LIGAND FREE ENERGY PREDICTED BY IDOCK:   -4.03 KCAL/MOL
REMARK 924 INTRA-LIGAND FREE ENERGY PREDICTED BY IDOCK:   -0.71 KCAL/MOL
REMARK 927      BINDING AFFINITY PREDICTED BY RF-SCORE:    0.00 PKD
ROOT
HETATM    1  C   UNL     1      -9.812  10.582  64.708  1.00  0.00    -0.323 C  
HETATM    2  N   UNL     1      -9.223   9.670  65.705  1.00  0.00    -0.192 NA 
ENDROOT
BRANCH   2   3
HETATM    3  C   UNL     1      -8.327   8.673  65.035  1.00  0.00    -0.171 C  
HETATM    4  C   UNL     1      -5.594   9.140  66.178  1.00  0.00    -0.048 C  
HETATM    5  C   UNL     1      -7.642   7.688  66.015  1.00  0.00    -0.088 C  
HETATM    6  C   UNL     1      -7.183   9.328  64.220  1.00  0.00    -0.101 C  
HETATM    7  C   UNL     1      -6.179  10.061  65.108  1.00  0.00    -0.109 C  
HETATM    8  C   UNL     1      -6.678   8.404  66.961  1.00  0.00    -0.062 C  
ENDBRANCH   2   3
BRANCH   2   9
HETATM    9  C   UNL     1     -10.301   8.981  66.467  1.00  0.00    -0.193 C  
BRANCH   9  10
HETATM   10  C   UNL     1     -10.468   9.369  67.932  1.00  0.00    -0.296 A  
HETATM   11  C   UNL     1     -10.842   9.965  70.666  1.00  0.00    -0.400 A  
HETATM   12 BR   UNL     1      -9.567   7.603  71.614  1.00  0.00    -0.191 Br 
HETATM   13  C   UNL     1     -10.042   8.479  68.941  1.00  0.00    -0.213 A  
HETATM   14  C   UNL     1     -10.206   8.791  70.290  1.00  0.00    -0.196 A  
HETATM   15  C   UNL     1     -11.323  10.824  69.679  1.00  0.00    -0.294 A  
HETATM   16 BR   UNL     1     -12.239  12.395  70.250  1.00  0.00    -0.274 Br 
HETATM   17  C   UNL     1     -11.126  10.564  68.303  1.00  0.00    -0.284 A  
HETATM   18  N   UNL     1     -11.786  11.361  67.342  1.00  0.00    -0.598 NA 
HETATM   19  H1  UNL     1     -12.261  12.224  67.610  1.00  0.00     0.000 HD 
HETATM   20  H2  UNL     1     -12.455  10.771  66.848  1.00  0.00     0.000 HD 
ENDBRANCH   9  10
ENDBRANCH   2   9
TORSDOF 3
ENDMDL
MODEL      136
REMARK 921   NORMALIZED FREE ENERGY PREDICTED BY IDOCK:   -3.49 KCAL/MOL
REMARK 922        TOTAL FREE ENERGY PREDICTED BY IDOCK:   -4.73 KCAL/MOL
REMARK 923 INTER-LIGAND FREE ENERGY PREDICTED BY IDOCK:   -4.10 KCAL/MOL
REMARK 924 INTRA-LIGAND FREE ENERGY PREDICTED BY IDOCK:   -0.64 KCAL/MOL
REMARK 927      BINDING AFFINITY PREDICTED BY RF-SCORE:    0.00 PKD
ROOT
HETATM    1  C   UNL     1     -10.218   8.638  66.601  1.00  0.00    -0.273 C  
HETATM    2  N   UNL     1      -8.973   9.347  66.952  1.00  0.00    -0.130 NA 
ENDROOT
BRANCH   2   3
HETATM    3  C   UNL     1      -7.780   8.539  66.540  1.00  0.00    -0.092 C  
HETATM    4  C   UNL     1      -6.586   9.990  64.202  1.00  0.00    -0.130 C  
HETATM    5  C   UNL     1      -6.441   9.314  66.621  1.00  0.00    -0.067 C  
HETATM    6  C   UNL     1      -7.875   8.003  65.088  1.00  0.00    -0.116 C  
HETATM    7  C   UNL     1      -7.834   9.122  64.048  1.00  0.00    -0.129 C  
HETATM    8  C   UNL     1      -6.397  10.481  65.635  1.00  0.00    -0.126 C  
ENDBRANCH   2   3
BRANCH   2   9
HETATM    9  C   UNL     1      -8.939   9.628  68.413  1.00  0.00    -0.123 C  
BRANCH   9  10
HETATM   10  C   UNL     1     -10.027  10.542  68.966  1.00  0.00    -0.223 A  
HETATM   11  C   UNL     1     -12.137  12.135  69.958  1.00  0.00    -0.352 A  
HETATM   12 BR   UNL     1     -13.087  10.175  71.792  1.00  0.00    -0.564 Br 
HETATM   13  C   UNL     1     -10.923  10.049  69.938  1.00  0.00    -0.339 A  
HETATM   14  C   UNL     1     -11.946  10.849  70.444  1.00  0.00    -0.362 A  
HETATM   15  C   UNL     1     -11.298  12.612  68.952  1.00  0.00    -0.297 A  
HETATM   16 BR   UNL     1     -11.639  14.363  68.281  1.00  0.00    -0.378 Br 
HETATM   17  C   UNL     1     -10.218  11.847  68.455  1.00  0.00    -0.215 A  
HETATM   18  N   UNL     1      -9.512  12.294  67.317  1.00  0.00    -0.182 NA 
HETATM   19  H1  UNL     1      -9.650  13.236  66.949  1.00  0.00     0.000 HD 
HETATM   20  H2  UNL     1      -9.681  11.631  66.560  1.00  0.00     0.000 HD 
ENDBRANCH   9  10
ENDBRANCH   2   9
TORSDOF 3
ENDMDL
MODEL      137
REMARK 921   NORMALIZED FREE ENERGY PREDICTED BY IDOCK:   -3.47 KCAL/MOL
REMARK 922        TOTAL FREE ENERGY PREDICTED BY IDOCK:   -4.71 KCAL/MOL
REMARK 923 INTER-LIGAND FREE ENERGY PREDICTED BY IDOCK:   -4.63 KCAL/MOL
REMARK 924 INTRA-LIGAND FREE ENERGY PREDICTED BY IDOCK:   -0.08 KCAL/MOL
REMARK 927      BINDING AFFINITY PREDICTED BY RF-SCORE:    0.00 PKD
ROOT
HETATM    1  C   UNL     1     -10.711  14.128  66.806  1.00  0.00    -0.286 C  
HETATM    2  N   UNL     1     -10.136  12.795  66.549  1.00  0.00    -0.253 NA 
ENDROOT
BRANCH   2   3
HETATM    3  C   UNL     1     -11.205  11.844  66.102  1.00  0.00    -0.333 C  
HETATM    4  C   UNL     1     -11.087  11.842  63.105  1.00  0.00    -0.251 C  
HETATM    5  C   UNL     1     -10.672  10.645  65.279  1.00  0.00    -0.100 C  
HETATM    6  C   UNL     1     -12.293  12.515  65.224  1.00  0.00    -0.469 C  
HETATM    7  C   UNL     1     -11.747  12.984  63.876  1.00  0.00    -0.531 C  
HETATM    8  C   UNL     1     -10.062  11.092  63.951  1.00  0.00    -0.414 C  
ENDBRANCH   2   3
BRANCH   2   9
HETATM    9  C   UNL     1      -9.457  12.286  67.772  1.00  0.00    -0.197 C  
BRANCH   9  10
HETATM   10  C   UNL     1     -10.333  11.598  68.813  1.00  0.00    -0.213 A  
HETATM   11  C   UNL     1     -11.920  10.424  70.831  1.00  0.00    -0.478 A  
HETATM   12 BR   UNL     1     -13.486  12.754  71.304  1.00  0.00     0.367 Br 
HETATM   13  C   UNL     1     -11.326  12.339  69.488  1.00  0.00    -0.258 A  
HETATM   14  C   UNL     1     -12.125  11.746  70.465  1.00  0.00    -0.347 A  
HETATM   15  C   UNL     1     -10.902   9.698  70.216  1.00  0.00    -0.285 A  
HETATM   16 BR   UNL     1     -10.628   7.903  70.795  1.00  0.00    -0.232 Br 
HETATM   17  C   UNL     1     -10.109  10.251  69.184  1.00  0.00    -0.218 A  
HETATM   18  N   UNL     1      -8.977   9.546  68.721  1.00  0.00    -0.131 NA 
HETATM   19  H1  UNL     1      -8.816   8.575  68.988  1.00  0.00     0.000 HD 
HETATM   20  H2  UNL     1      -8.147  10.085  68.968  1.00  0.00     0.000 HD 
ENDBRANCH   9  10
ENDBRANCH   2   9
TORSDOF 3
ENDMDL
MODEL      138
REMARK 921   NORMALIZED FREE ENERGY PREDICTED BY IDOCK:   -3.44 KCAL/MOL
REMARK 922        TOTAL FREE ENERGY PREDICTED BY IDOCK:   -4.67 KCAL/MOL
REMARK 923 INTER-LIGAND FREE ENERGY PREDICTED BY IDOCK:   -3.97 KCAL/MOL
REMARK 924 INTRA-LIGAND FREE ENERGY PREDICTED BY IDOCK:   -0.70 KCAL/MOL
REMARK 927      BINDING AFFINITY PREDICTED BY RF-SCORE:    0.00 PKD
ROOT
HETATM    1  C   UNL     1      -9.944  10.861  69.151  1.00  0.00    -0.161 C  
HETATM    2  N   UNL     1     -10.525  11.232  67.847  1.00  0.00    -0.182 NA 
ENDROOT
BRANCH   2   3
HETATM    3  C   UNL     1     -11.527  12.333  68.018  1.00  0.00    -0.321 C  
HETATM    4  C   UNL     1     -10.393  14.695  66.558  1.00  0.00    -0.283 C  
HETATM    5  C   UNL     1     -12.110  12.861  66.684  1.00  0.00    -0.360 C  
HETATM    6  C   UNL     1     -10.955  13.573  68.754  1.00  0.00    -0.291 C  
HETATM    7  C   UNL     1      -9.880  14.290  67.939  1.00  0.00    -0.226 C  
HETATM    8  C   UNL     1     -11.042  13.529  65.819  1.00  0.00    -0.295 C  
ENDBRANCH   2   3
BRANCH   2   9
HETATM    9  C   UNL     1     -11.153  10.043  67.210  1.00  0.00    -0.044 C  
BRANCH   9  10
HETATM   10  C   UNL     1     -10.216   9.031  66.561  1.00  0.00    -0.318 A  
HETATM   11  C   UNL     1      -8.430   7.125  65.487  1.00  0.00    -0.114 A  
HETATM   12 BR   UNL     1      -9.383   4.966  67.079  1.00  0.00    -0.149 Br 
HETATM   13  C   UNL     1     -10.198   7.699  67.026  1.00  0.00    -0.371 A  
HETATM   14  C   UNL     1      -9.334   6.756  66.473  1.00  0.00    -0.161 A  
HETATM   15  C   UNL     1      -8.394   8.452  65.062  1.00  0.00    -0.158 A  
HETATM   16 BR   UNL     1      -7.097   8.918  63.745  1.00  0.00    -0.093 Br 
HETATM   17  C   UNL     1      -9.293   9.422  65.562  1.00  0.00    -0.251 A  
HETATM   18  N   UNL     1      -9.100  10.783  65.241  1.00  0.00    -0.191 NA 
HETATM   19  H1  UNL     1      -8.435  11.065  64.521  1.00  0.00     0.000 HD 
HETATM   20  H2  UNL     1      -8.865  11.280  66.101  1.00  0.00     0.000 HD 
ENDBRANCH   9  10
ENDBRANCH   2   9
TORSDOF 3
ENDMDL
MODEL      139
REMARK 921   NORMALIZED FREE ENERGY PREDICTED BY IDOCK:   -3.43 KCAL/MOL
REMARK 922        TOTAL FREE ENERGY PREDICTED BY IDOCK:   -4.66 KCAL/MOL
REMARK 923 INTER-LIGAND FREE ENERGY PREDICTED BY IDOCK:   -4.79 KCAL/MOL
REMARK 924 INTRA-LIGAND FREE ENERGY PREDICTED BY IDOCK:    0.13 KCAL/MOL
REMARK 927      BINDING AFFINITY PREDICTED BY RF-SCORE:    0.00 PKD
ROOT
HETATM    1  C   UNL     1     -11.532  16.107  68.447  1.00  0.00    -0.298 C  
HETATM    2  N   UNL     1     -10.265  15.353  68.420  1.00  0.00    -0.219 NA 
ENDROOT
BRANCH   2   3
HETATM    3  C   UNL     1      -9.544  15.593  67.128  1.00  0.00    -0.218 C  
HETATM    4  C   UNL     1      -8.040  18.160  67.506  1.00  0.00    -0.238 C  
HETATM    5  C   UNL     1      -8.003  15.656  67.274  1.00  0.00    -0.227 C  
HETATM    6  C   UNL     1      -9.960  16.914  66.431  1.00  0.00    -0.321 C  
HETATM    7  C   UNL     1      -9.542  18.150  67.226  1.00  0.00    -0.281 C  
HETATM    8  C   UNL     1      -7.558  16.849  68.119  1.00  0.00    -0.188 C  
ENDBRANCH   2   3
BRANCH   2   9
HETATM    9  C   UNL     1     -10.530  13.901  68.612  1.00  0.00    -0.246 C  
BRANCH   9  10
HETATM   10  C   UNL     1     -10.244  12.983  67.429  1.00  0.00    -0.231 A  
HETATM   11  C   UNL     1      -9.844  11.232  65.251  1.00  0.00    -0.291 A  
HETATM   12 BR   UNL     1     -12.103  12.145  63.778  1.00  0.00    -0.637 Br 
HETATM   13  C   UNL     1     -11.137  12.956  66.336  1.00  0.00    -0.316 A  
HETATM   14  C   UNL     1     -10.919  12.109  65.252  1.00  0.00    -0.304 A  
HETATM   15  C   UNL     1      -8.990  11.204  66.352  1.00  0.00    -0.182 A  
HETATM   16 BR   UNL     1      -7.561   9.942  66.324  1.00  0.00    -0.105 Br 
HETATM   17  C   UNL     1      -9.150  12.087  67.444  1.00  0.00    -0.178 A  
HETATM   18  N   UNL     1      -8.378  11.900  68.611  1.00  0.00    -0.307 NA 
HETATM   19  H1  UNL     1      -7.588  11.254  68.622  1.00  0.00     0.000 HD 
HETATM   20  H2  UNL     1      -9.009  11.641  69.369  1.00  0.00     0.000 HD 
ENDBRANCH   9  10
ENDBRANCH   2   9
TORSDOF 3
ENDMDL
MODEL      140
REMARK 921   NORMALIZED FREE ENERGY PREDICTED BY IDOCK:   -3.43 KCAL/MOL
REMARK 922        TOTAL FREE ENERGY PREDICTED BY IDOCK:   -4.66 KCAL/MOL
REMARK 923 INTER-LIGAND FREE ENERGY PREDICTED BY IDOCK:   -3.89 KCAL/MOL
REMARK 924 INTRA-LIGAND FREE ENERGY PREDICTED BY IDOCK:   -0.77 KCAL/MOL
REMARK 927      BINDING AFFINITY PREDICTED BY RF-SCORE:    0.00 PKD
ROOT
HETATM    1  C   UNL     1     -10.468   9.408  68.801  1.00  0.00    -0.212 C  
HETATM    2  N   UNL     1     -10.339   7.976  69.132  1.00  0.00    -0.218 NA 
ENDROOT
BRANCH   2   3
HETATM    3  C   UNL     1     -10.671   7.134  67.939  1.00  0.00    -0.192 C  
HETATM    4  C   UNL     1      -8.113   5.767  67.175  1.00  0.00    -0.102 C  
HETATM    5  C   UNL     1     -10.425   5.620  68.154  1.00  0.00    -0.260 C  
HETATM    6  C   UNL     1      -9.864   7.521  66.672  1.00  0.00    -0.274 C  
HETATM    7  C   UNL     1      -8.371   7.230  66.820  1.00  0.00    -0.119 C  
HETATM    8  C   UNL     1      -8.945   5.306  68.368  1.00  0.00    -0.116 C  
ENDBRANCH   2   3
BRANCH   2   9
HETATM    9  C   UNL     1     -11.224   7.636  70.280  1.00  0.00    -0.216 C  
BRANCH   9  10
HETATM   10  C   UNL     1     -10.561   7.009  71.501  1.00  0.00    -0.232 A  
HETATM   11  C   UNL     1      -9.461   5.829  73.818  1.00  0.00    -0.140 A  
HETATM   12 BR   UNL     1     -10.944   3.409  73.594  1.00  0.00    -0.318 Br 
HETATM   13  C   UNL     1     -10.975   5.734  71.941  1.00  0.00    -0.318 A  
HETATM   14  C   UNL     1     -10.409   5.145  73.070  1.00  0.00    -0.193 A  
HETATM   15  C   UNL     1      -9.088   7.115  73.430  1.00  0.00    -0.157 A  
HETATM   16 BR   UNL     1      -7.824   8.031  74.524  1.00  0.00    -0.295 Br 
HETATM   17  C   UNL     1      -9.602   7.720  72.261  1.00  0.00    -0.176 A  
HETATM   18  N   UNL     1      -9.339   9.084  72.008  1.00  0.00    -0.347 NA 
HETATM   19  H1  UNL     1      -8.647   9.597  72.556  1.00  0.00     0.000 HD 
HETATM   20  H2  UNL     1     -10.222   9.591  72.060  1.00  0.00     0.000 HD 
ENDBRANCH   9  10
ENDBRANCH   2   9
TORSDOF 3
ENDMDL
MODEL      141
REMARK 921   NORMALIZED FREE ENERGY PREDICTED BY IDOCK:   -3.40 KCAL/MOL
REMARK 922        TOTAL FREE ENERGY PREDICTED BY IDOCK:   -4.62 KCAL/MOL
REMARK 923 INTER-LIGAND FREE ENERGY PREDICTED BY IDOCK:   -3.93 KCAL/MOL
REMARK 924 INTRA-LIGAND FREE ENERGY PREDICTED BY IDOCK:   -0.69 KCAL/MOL
REMARK 927      BINDING AFFINITY PREDICTED BY RF-SCORE:    0.00 PKD
ROOT
HETATM    1  C   UNL     1     -11.305  10.121  68.382  1.00  0.00    -0.113 C  
HETATM    2  N   UNL     1     -10.223  11.101  68.178  1.00  0.00    -0.175 NA 
ENDROOT
BRANCH   2   3
HETATM    3  C   UNL     1      -8.912  10.532  68.630  1.00  0.00    -0.162 C  
HETATM    4  C   UNL     1      -7.146  10.539  66.206  1.00  0.00    -0.132 C  
HETATM    5  C   UNL     1      -7.717  11.502  68.458  1.00  0.00    -0.134 C  
HETATM    6  C   UNL     1      -8.518   9.233  67.881  1.00  0.00    -0.117 C  
HETATM    7  C   UNL     1      -8.227   9.477  66.401  1.00  0.00    -0.115 C  
HETATM    8  C   UNL     1      -7.442  11.815  66.988  1.00  0.00    -0.137 C  
ENDBRANCH   2   3
BRANCH   2   9
HETATM    9  C   UNL     1     -10.530  12.361  68.909  1.00  0.00    -0.089 C  
BRANCH   9  10
HETATM   10  C   UNL     1     -10.663  13.629  68.074  1.00  0.00    -0.258 A  
HETATM   11  C   UNL     1     -10.848  15.911  66.421  1.00  0.00    -0.193 A  
HETATM   12 BR   UNL     1     -12.259  14.591  64.330  1.00  0.00    -0.400 Br 
HETATM   13  C   UNL     1     -11.270  13.566  66.802  1.00  0.00    -0.327 A  
HETATM   14  C   UNL     1     -11.383  14.701  66.002  1.00  0.00    -0.344 A  
HETATM   15  C   UNL     1     -10.190  15.973  67.648  1.00  0.00    -0.262 A  
HETATM   16 BR   UNL     1      -9.425  17.646  68.151  1.00  0.00    -0.297 Br 
HETATM   17  C   UNL     1     -10.105  14.855  68.508  1.00  0.00    -0.232 A  
HETATM   18  N   UNL     1      -9.277  14.914  69.650  1.00  0.00    -0.446 NA 
HETATM   19  H1  UNL     1      -8.875  15.798  69.963  1.00  0.00     0.000 HD 
HETATM   20  H2  UNL     1      -8.515  14.247  69.522  1.00  0.00     0.000 HD 
ENDBRANCH   9  10
ENDBRANCH   2   9
TORSDOF 3
ENDMDL
MODEL      142
REMARK 921   NORMALIZED FREE ENERGY PREDICTED BY IDOCK:   -3.39 KCAL/MOL
REMARK 922        TOTAL FREE ENERGY PREDICTED BY IDOCK:   -4.61 KCAL/MOL
REMARK 923 INTER-LIGAND FREE ENERGY PREDICTED BY IDOCK:   -3.86 KCAL/MOL
REMARK 924 INTRA-LIGAND FREE ENERGY PREDICTED BY IDOCK:   -0.75 KCAL/MOL
REMARK 927      BINDING AFFINITY PREDICTED BY RF-SCORE:    0.00 PKD
ROOT
HETATM    1  C   UNL     1     -10.221   7.254  67.263  1.00  0.00    -0.253 C  
HETATM    2  N   UNL     1      -9.878   5.966  67.895  1.00  0.00    -0.119 NA 
ENDROOT
BRANCH   2   3
HETATM    3  C   UNL     1      -9.864   4.871  66.871  1.00  0.00    -0.197 C  
HETATM    4  C   UNL     1      -7.057   3.816  66.852  1.00  0.00    -0.063 C  
HETATM    5  C   UNL     1      -9.479   3.484  67.443  1.00  0.00    -0.234 C  
HETATM    6  C   UNL     1      -8.881   5.139  65.703  1.00  0.00    -0.146 C  
HETATM    7  C   UNL     1      -7.421   5.125  66.154  1.00  0.00    -0.086 C  
HETATM    8  C   UNL     1      -8.042   3.460  67.962  1.00  0.00    -0.083 C  
ENDBRANCH   2   3
BRANCH   2   9
HETATM    9  C   UNL     1     -10.845   5.657  68.983  1.00  0.00    -0.181 C  
BRANCH   9  10
HETATM   10  C   UNL     1     -10.779   6.526  70.234  1.00  0.00    -0.307 A  
HETATM   11  C   UNL     1     -10.700   8.244  72.473  1.00  0.00    -0.411 A  
HETATM   12 BR   UNL     1     -13.415   9.070  72.249  1.00  0.00    -0.556 Br 
HETATM   13  C   UNL     1     -11.905   7.287  70.614  1.00  0.00    -0.290 A  
HETATM   14  C   UNL     1     -11.868   8.113  71.736  1.00  0.00    -0.300 A  
HETATM   15  C   UNL     1      -9.562   7.545  72.072  1.00  0.00    -0.154 A  
HETATM   16 BR   UNL     1      -7.970   7.804  73.087  1.00  0.00    -0.186 Br 
HETATM   17  C   UNL     1      -9.580   6.658  70.972  1.00  0.00    -0.171 A  
HETATM   18  N   UNL     1      -8.367   6.116  70.494  1.00  0.00    -0.127 NA 
HETATM   19  H1  UNL     1      -7.501   6.211  71.026  1.00  0.00     0.000 HD 
HETATM   20  H2  UNL     1      -8.204   6.485  69.557  1.00  0.00     0.000 HD 
ENDBRANCH   9  10
ENDBRANCH   2   9
TORSDOF 3
ENDMDL
MODEL      143
REMARK 921   NORMALIZED FREE ENERGY PREDICTED BY IDOCK:   -3.35 KCAL/MOL
REMARK 922        TOTAL FREE ENERGY PREDICTED BY IDOCK:   -4.57 KCAL/MOL
REMARK 923 INTER-LIGAND FREE ENERGY PREDICTED BY IDOCK:   -5.52 KCAL/MOL
REMARK 924 INTRA-LIGAND FREE ENERGY PREDICTED BY IDOCK:    0.95 KCAL/MOL
REMARK 927      BINDING AFFINITY PREDICTED BY RF-SCORE:    0.00 PKD
ROOT
HETATM    1  C   UNL     1      -7.083  17.321  66.201  1.00  0.00    -0.249 C  
HETATM    2  N   UNL     1      -8.405  17.582  66.798  1.00  0.00    -0.238 NA 
ENDROOT
BRANCH   2   3
HETATM    3  C   UNL     1      -8.698  19.051  66.796  1.00  0.00    -0.309 C  
HETATM    4  C   UNL     1      -6.411  20.335  68.252  1.00  0.00    -0.340 C  
HETATM    5  C   UNL     1      -7.616  19.903  66.086  1.00  0.00    -0.338 C  
HETATM    6  C   UNL     1      -8.845  19.649  68.219  1.00  0.00    -0.361 C  
HETATM    7  C   UNL     1      -7.534  19.620  69.003  1.00  0.00    -0.345 C  
HETATM    8  C   UNL     1      -6.274  19.842  66.814  1.00  0.00    -0.196 C  
ENDBRANCH   2   3
BRANCH   2   9
HETATM    9  C   UNL     1      -8.457  17.037  68.183  1.00  0.00    -0.227 C  
BRANCH   9  10
HETATM   10  C   UNL     1      -9.610  16.095  68.512  1.00  0.00    -0.215 A  
HETATM   11  C   UNL     1     -11.690  14.333  69.249  1.00  0.00    -0.363 A  
HETATM   12 BR   UNL     1     -12.448  15.799  71.569  1.00  0.00    -0.511 Br 
HETATM   13  C   UNL     1     -10.370  16.306  69.682  1.00  0.00    -0.261 A  
HETATM   14  C   UNL     1     -11.413  15.448  70.027  1.00  0.00    -0.316 A  
HETATM   15  C   UNL     1     -10.907  14.078  68.124  1.00  0.00    -0.248 A  
HETATM   16 BR   UNL     1     -11.294  12.503  67.123  1.00  0.00    -0.409 Br 
HETATM   17  C   UNL     1      -9.877  14.957  67.716  1.00  0.00    -0.217 A  
HETATM   18  N   UNL     1      -8.996  14.567  66.684  1.00  0.00    -0.375 NA 
HETATM   19  H1  UNL     1      -9.189  13.746  66.110  1.00  0.00     0.000 HD 
HETATM   20  H2  UNL     1      -8.065  14.460  67.087  1.00  0.00     0.000 HD 
ENDBRANCH   9  10
ENDBRANCH   2   9
TORSDOF 3
ENDMDL
MODEL      144
REMARK 921   NORMALIZED FREE ENERGY PREDICTED BY IDOCK:   -3.32 KCAL/MOL
REMARK 922        TOTAL FREE ENERGY PREDICTED BY IDOCK:   -4.53 KCAL/MOL
REMARK 923 INTER-LIGAND FREE ENERGY PREDICTED BY IDOCK:   -3.96 KCAL/MOL
REMARK 924 INTRA-LIGAND FREE ENERGY PREDICTED BY IDOCK:   -0.57 KCAL/MOL
REMARK 927      BINDING AFFINITY PREDICTED BY RF-SCORE:    0.00 PKD
ROOT
HETATM    1  C   UNL     1     -11.734  12.986  67.964  1.00  0.00    -0.355 C  
HETATM    2  N   UNL     1     -10.643  12.012  67.774  1.00  0.00    -0.202 NA 
ENDROOT
BRANCH   2   3
HETATM    3  C   UNL     1      -9.722  12.467  66.684  1.00  0.00    -0.242 C  
HETATM    4  C   UNL     1      -7.269  13.494  68.072  1.00  0.00    -0.125 C  
HETATM    5  C   UNL     1      -8.364  11.723  66.660  1.00  0.00    -0.136 C  
HETATM    6  C   UNL     1      -9.379  13.978  66.763  1.00  0.00    -0.289 C  
HETATM    7  C   UNL     1      -8.550  14.324  68.000  1.00  0.00    -0.169 C  
HETATM    8  C   UNL     1      -7.539  12.000  67.917  1.00  0.00    -0.124 C  
ENDBRANCH   2   3
BRANCH   2   9
HETATM    9  C   UNL     1     -11.206  10.670  67.460  1.00  0.00    -0.253 C  
BRANCH   9  10
HETATM   10  C   UNL     1     -10.656   9.488  68.251  1.00  0.00    -0.260 A  
HETATM   11  C   UNL     1      -9.556   7.389  69.786  1.00  0.00    -0.163 A  
HETATM   12 BR   UNL     1     -10.258   8.526  72.300  1.00  0.00    -0.372 Br 
HETATM   13  C   UNL     1     -10.676   9.523  69.661  1.00  0.00    -0.257 A  
HETATM   14  C   UNL     1     -10.156   8.472  70.414  1.00  0.00    -0.189 A  
HETATM   15  C   UNL     1      -9.473   7.372  68.395  1.00  0.00    -0.143 A  
HETATM   16 BR   UNL     1      -8.590   5.888  67.586  1.00  0.00    -0.100 Br 
HETATM   17  C   UNL     1     -10.038   8.395  67.600  1.00  0.00    -0.209 A  
HETATM   18  N   UNL     1      -9.772   8.428  66.214  1.00  0.00    -0.376 NA 
HETATM   19  H1  UNL     1      -9.327   7.639  65.744  1.00  0.00     0.000 HD 
HETATM   20  H2  UNL     1      -9.222   9.265  66.018  1.00  0.00     0.000 HD 
ENDBRANCH   9  10
ENDBRANCH   2   9
TORSDOF 3
ENDMDL
MODEL      145
REMARK 921   NORMALIZED FREE ENERGY PREDICTED BY IDOCK:   -3.31 KCAL/MOL
REMARK 922        TOTAL FREE ENERGY PREDICTED BY IDOCK:   -4.52 KCAL/MOL
REMARK 923 INTER-LIGAND FREE ENERGY PREDICTED BY IDOCK:   -4.31 KCAL/MOL
REMARK 924 INTRA-LIGAND FREE ENERGY PREDICTED BY IDOCK:   -0.22 KCAL/MOL
REMARK 927      BINDING AFFINITY PREDICTED BY RF-SCORE:    0.00 PKD
ROOT
HETATM    1  C   UNL     1      -7.493   9.045  67.166  1.00  0.00    -0.087 C  
HETATM    2  N   UNL     1      -8.711   8.667  67.906  1.00  0.00    -0.137 NA 
ENDROOT
BRANCH   2   3
HETATM    3  C   UNL     1      -9.789   8.244  66.955  1.00  0.00    -0.247 C  
HETATM    4  C   UNL     1     -10.005   5.267  67.247  1.00  0.00    -0.207 C  
HETATM    5  C   UNL     1     -10.991   7.547  67.640  1.00  0.00    -0.093 C  
HETATM    6  C   UNL     1      -9.291   7.260  65.864  1.00  0.00     0.060 C  
HETATM    7  C   UNL     1      -8.875   5.909  66.443  1.00  0.00    -0.134 C  
HETATM    8  C   UNL     1     -10.590   6.221  68.284  1.00  0.00    -0.318 C  
ENDBRANCH   2   3
BRANCH   2   9
HETATM    9  C   UNL     1      -9.170   9.804  68.750  1.00  0.00    -0.143 C  
BRANCH   9  10
HETATM   10  C   UNL     1      -9.902   9.456  70.041  1.00  0.00    -0.253 A  
HETATM   11  C   UNL     1     -11.221   8.676  72.412  1.00  0.00    -0.339 A  
HETATM   12 BR   UNL     1      -8.929   7.463  73.586  1.00  0.00    -0.287 Br 
HETATM   13  C   UNL     1      -9.230   8.734  71.050  1.00  0.00    -0.278 A  
HETATM   14  C   UNL     1      -9.879   8.376  72.230  1.00  0.00    -0.313 A  
HETATM   15  C   UNL     1     -11.914   9.334  71.397  1.00  0.00    -0.351 A  
HETATM   16 BR   UNL     1     -13.769   9.674  71.676  1.00  0.00    -0.278 Br 
HETATM   17  C   UNL     1     -11.273   9.760  70.211  1.00  0.00    -0.288 A  
HETATM   18  N   UNL     1     -12.048  10.255  69.140  1.00  0.00    -0.612 NA 
HETATM   19  H1  UNL     1     -13.037  10.475  69.262  1.00  0.00     0.000 HD 
HETATM   20  H2  UNL     1     -11.963   9.602  68.360  1.00  0.00     0.000 HD 
ENDBRANCH   9  10
ENDBRANCH   2   9
TORSDOF 3
ENDMDL
MODEL      146
REMARK 921   NORMALIZED FREE ENERGY PREDICTED BY IDOCK:   -3.31 KCAL/MOL
REMARK 922        TOTAL FREE ENERGY PREDICTED BY IDOCK:   -4.52 KCAL/MOL
REMARK 923 INTER-LIGAND FREE ENERGY PREDICTED BY IDOCK:   -3.82 KCAL/MOL
REMARK 924 INTRA-LIGAND FREE ENERGY PREDICTED BY IDOCK:   -0.70 KCAL/MOL
REMARK 927      BINDING AFFINITY PREDICTED BY RF-SCORE:    0.00 PKD
ROOT
HETATM    1  C   UNL     1      -8.573   9.028  71.292  1.00  0.00    -0.155 C  
HETATM    2  N   UNL     1      -9.385   8.070  70.518  1.00  0.00    -0.154 NA 
ENDROOT
BRANCH   2   3
HETATM    3  C   UNL     1      -9.636   6.831  71.321  1.00  0.00    -0.169 C  
HETATM    4  C   UNL     1     -12.586   6.797  71.862  1.00  0.00    -0.328 C  
HETATM    5  C   UNL     1     -10.608   5.832  70.645  1.00  0.00    -0.346 C  
HETATM    6  C   UNL     1     -10.230   7.120  72.724  1.00  0.00    -0.243 C  
HETATM    7  C   UNL     1     -11.641   7.702  72.651  1.00  0.00    -0.371 C  
HETATM    8  C   UNL     1     -12.013   6.413  70.501  1.00  0.00    -0.217 C  
ENDBRANCH   2   3
BRANCH   2   9
HETATM    9  C   UNL     1      -8.702   7.739  69.237  1.00  0.00    -0.139 C  
BRANCH   9  10
HETATM   10  C   UNL     1      -8.550   8.867  68.223  1.00  0.00    -0.134 A  
HETATM   11  C   UNL     1      -8.177  11.018  66.433  1.00  0.00    -0.166 A  
HETATM   12 BR   UNL     1      -5.348  10.738  66.291  1.00  0.00    -0.110 Br 
HETATM   13  C   UNL     1      -7.261   9.249  67.795  1.00  0.00    -0.083 A  
HETATM   14  C   UNL     1      -7.085  10.295  66.890  1.00  0.00    -0.092 A  
HETATM   15  C   UNL     1      -9.451  10.691  66.897  1.00  0.00    -0.165 A  
HETATM   16 BR   UNL     1     -10.909  11.753  66.280  1.00  0.00    -0.337 Br 
HETATM   17  C   UNL     1      -9.670   9.603  67.772  1.00  0.00    -0.146 A  
HETATM   18  N   UNL     1     -10.943   9.424  68.356  1.00  0.00    -0.463 NA 
HETATM   19  H1  UNL     1     -11.751   9.955  68.030  1.00  0.00     0.000 HD 
HETATM   20  H2  UNL     1     -10.853   9.570  69.362  1.00  0.00     0.000 HD 
ENDBRANCH   9  10
ENDBRANCH   2   9
TORSDOF 3
ENDMDL
MODEL      147
REMARK 921   NORMALIZED FREE ENERGY PREDICTED BY IDOCK:   -3.31 KCAL/MOL
REMARK 922        TOTAL FREE ENERGY PREDICTED BY IDOCK:   -4.52 KCAL/MOL
REMARK 923 INTER-LIGAND FREE ENERGY PREDICTED BY IDOCK:   -5.21 KCAL/MOL
REMARK 924 INTRA-LIGAND FREE ENERGY PREDICTED BY IDOCK:    0.69 KCAL/MOL
REMARK 927      BINDING AFFINITY PREDICTED BY RF-SCORE:    0.00 PKD
ROOT
HETATM    1  C   UNL     1     -12.056  13.001  66.221  1.00  0.00    -0.386 C  
HETATM    2  N   UNL     1     -10.729  12.381  66.046  1.00  0.00    -0.255 NA 
ENDROOT
BRANCH   2   3
HETATM    3  C   UNL     1     -10.865  11.027  65.421  1.00  0.00    -0.098 C  
HETATM    4  C   UNL     1      -8.443  10.688  63.684  1.00  0.00    -0.077 C  
HETATM    5  C   UNL     1      -9.707  10.058  65.766  1.00  0.00    -0.321 C  
HETATM    6  C   UNL     1     -10.936  11.071  63.872  1.00  0.00    -0.103 C  
HETATM    7  C   UNL     1      -9.628  11.546  63.242  1.00  0.00    -0.366 C  
HETATM    8  C   UNL     1      -8.372  10.541  65.201  1.00  0.00    -0.150 C  
ENDBRANCH   2   3
BRANCH   2   9
HETATM    9  C   UNL     1     -10.032  12.288  67.358  1.00  0.00    -0.201 C  
BRANCH   9  10
HETATM   10  C   UNL     1     -10.886  12.460  68.609  1.00  0.00    -0.273 A  
HETATM   11  C   UNL     1     -12.562  12.690  70.869  1.00  0.00    -0.338 A  
HETATM   12 BR   UNL     1     -12.624   9.897  71.419  1.00  0.00    -0.534 Br 
HETATM   13  C   UNL     1     -11.315  11.321  69.322  1.00  0.00    -0.354 A  
HETATM   14  C   UNL     1     -12.120  11.442  70.453  1.00  0.00    -0.384 A  
HETATM   15  C   UNL     1     -12.196  13.819  70.137  1.00  0.00    -0.356 A  
HETATM   16 BR   UNL     1     -12.876  15.502  70.721  1.00  0.00    -0.455 Br 
HETATM   17  C   UNL     1     -11.338  13.737  69.018  1.00  0.00    -0.289 A  
HETATM   18  N   UNL     1     -11.144  14.874  68.203  1.00  0.00    -0.272 NA 
HETATM   19  H1  UNL     1     -11.469  15.795  68.498  1.00  0.00     0.000 HD 
HETATM   20  H2  UNL     1     -11.543  14.676  67.285  1.00  0.00     0.000 HD 
ENDBRANCH   9  10
ENDBRANCH   2   9
TORSDOF 3
ENDMDL
MODEL      148
REMARK 921   NORMALIZED FREE ENERGY PREDICTED BY IDOCK:   -3.30 KCAL/MOL
REMARK 922        TOTAL FREE ENERGY PREDICTED BY IDOCK:   -4.51 KCAL/MOL
REMARK 923 INTER-LIGAND FREE ENERGY PREDICTED BY IDOCK:   -3.96 KCAL/MOL
REMARK 924 INTRA-LIGAND FREE ENERGY PREDICTED BY IDOCK:   -0.55 KCAL/MOL
REMARK 927      BINDING AFFINITY PREDICTED BY RF-SCORE:    0.00 PKD
ROOT
HETATM    1  C   UNL     1      -8.423   6.879  72.988  1.00  0.00    -0.114 C  
HETATM    2  N   UNL     1      -9.084   5.723  72.356  1.00  0.00    -0.141 NA 
ENDROOT
BRANCH   2   3
HETATM    3  C   UNL     1      -8.175   4.532  72.368  1.00  0.00    -0.109 C  
HETATM    4  C   UNL     1      -9.691   2.371  73.793  1.00  0.00    -0.126 C  
HETATM    5  C   UNL     1      -8.759   3.292  71.646  1.00  0.00    -0.118 C  
HETATM    6  C   UNL     1      -7.807   4.058  73.798  1.00  0.00    -0.081 C  
HETATM    7  C   UNL     1      -9.012   3.506  74.559  1.00  0.00    -0.097 C  
HETATM    8  C   UNL     1     -10.004   2.755  72.350  1.00  0.00    -0.235 C  
ENDBRANCH   2   3
BRANCH   2   9
HETATM    9  C   UNL     1      -9.486   6.063  70.963  1.00  0.00    -0.168 C  
BRANCH   9  10
HETATM   10  C   UNL     1     -10.316   7.328  70.774  1.00  0.00    -0.212 A  
HETATM   11  C   UNL     1     -11.740   9.746  70.461  1.00  0.00    -0.343 A  
HETATM   12 BR   UNL     1      -9.877  10.899  68.643  1.00  0.00    -0.206 Br 
HETATM   13  C   UNL     1      -9.821   8.370  69.961  1.00  0.00    -0.182 A  
HETATM   14  C   UNL     1     -10.542   9.551  69.789  1.00  0.00    -0.236 A  
HETATM   15  C   UNL     1     -12.210   8.749  71.315  1.00  0.00    -0.287 A  
HETATM   16 BR   UNL     1     -13.832   9.091  72.256  1.00  0.00    -0.534 Br 
HETATM   17  C   UNL     1     -11.532   7.519  71.471  1.00  0.00    -0.265 A  
HETATM   18  N   UNL     1     -11.942   6.620  72.479  1.00  0.00    -0.506 NA 
HETATM   19  H1  UNL     1     -12.819   6.757  72.982  1.00  0.00     0.000 HD 
HETATM   20  H2  UNL     1     -11.191   6.551  73.166  1.00  0.00     0.000 HD 
ENDBRANCH   9  10
ENDBRANCH   2   9
TORSDOF 3
ENDMDL
MODEL      149
REMARK 921   NORMALIZED FREE ENERGY PREDICTED BY IDOCK:   -3.30 KCAL/MOL
REMARK 922        TOTAL FREE ENERGY PREDICTED BY IDOCK:   -4.51 KCAL/MOL
REMARK 923 INTER-LIGAND FREE ENERGY PREDICTED BY IDOCK:   -3.90 KCAL/MOL
REMARK 924 INTRA-LIGAND FREE ENERGY PREDICTED BY IDOCK:   -0.60 KCAL/MOL
REMARK 927      BINDING AFFINITY PREDICTED BY RF-SCORE:    0.00 PKD
ROOT
HETATM    1  C   UNL     1     -11.745  12.973  67.956  1.00  0.00    -0.355 C  
HETATM    2  N   UNL     1     -10.717  11.947  67.701  1.00  0.00    -0.208 NA 
ENDROOT
BRANCH   2   3
HETATM    3  C   UNL     1      -9.789  12.398  66.613  1.00  0.00    -0.223 C  
HETATM    4  C   UNL     1      -7.260  13.224  67.997  1.00  0.00    -0.121 C  
HETATM    5  C   UNL     1      -8.476  11.580  66.532  1.00  0.00    -0.160 C  
HETATM    6  C   UNL     1      -9.360  13.882  66.751  1.00  0.00    -0.286 C  
HETATM    7  C   UNL     1      -8.493  14.126  67.985  1.00  0.00    -0.171 C  
HETATM    8  C   UNL     1      -7.616  11.756  67.783  1.00  0.00    -0.127 C  
ENDBRANCH   2   3
BRANCH   2   9
HETATM    9  C   UNL     1     -11.363  10.656  67.340  1.00  0.00    -0.105 C  
BRANCH   9  10
HETATM   10  C   UNL     1     -10.849   9.405  68.045  1.00  0.00    -0.197 A  
HETATM   11  C   UNL     1     -10.018   7.025  69.317  1.00  0.00    -0.163 A  
HETATM   12 BR   UNL     1     -10.345   5.385  67.013  1.00  0.00    -0.313 Br 
HETATM   13  C   UNL     1     -10.840   8.173  67.359  1.00  0.00    -0.125 A  
HETATM   14  C   UNL     1     -10.403   7.006  67.983  1.00  0.00    -0.193 A  
HETATM   15  C   UNL     1     -10.082   8.225  70.024  1.00  0.00    -0.196 A  
HETATM   16 BR   UNL     1      -9.596   8.184  71.867  1.00  0.00    -0.292 Br 
HETATM   17  C   UNL     1     -10.469   9.436  69.407  1.00  0.00    -0.220 A  
HETATM   18  N   UNL     1     -10.695  10.582  70.201  1.00  0.00    -0.447 NA 
HETATM   19  H1  UNL     1     -10.420  10.604  71.183  1.00  0.00     0.000 HD 
HETATM   20  H2  UNL     1     -11.686  10.815  70.144  1.00  0.00     0.000 HD 
ENDBRANCH   9  10
ENDBRANCH   2   9
TORSDOF 3
ENDMDL
MODEL      150
REMARK 921   NORMALIZED FREE ENERGY PREDICTED BY IDOCK:   -3.29 KCAL/MOL
REMARK 922        TOTAL FREE ENERGY PREDICTED BY IDOCK:   -4.50 KCAL/MOL
REMARK 923 INTER-LIGAND FREE ENERGY PREDICTED BY IDOCK:   -4.35 KCAL/MOL
REMARK 924 INTRA-LIGAND FREE ENERGY PREDICTED BY IDOCK:   -0.14 KCAL/MOL
REMARK 927      BINDING AFFINITY PREDICTED BY RF-SCORE:    0.00 PKD
ROOT
HETATM    1  C   UNL     1     -11.099  16.179  64.350  1.00  0.00    -0.088 C  
HETATM    2  N   UNL     1     -11.358  15.019  65.224  1.00  0.00    -0.358 NA 
ENDROOT
BRANCH   2   3
HETATM    3  C   UNL     1     -12.212  14.013  64.514  1.00  0.00    -0.434 C  
HETATM    4  C   UNL     1     -10.833  11.375  64.887  1.00  0.00    -0.323 C  
HETATM    5  C   UNL     1     -12.760  12.896  65.437  1.00  0.00    -0.313 C  
HETATM    6  C   UNL     1     -11.472  13.288  63.360  1.00  0.00    -0.080 C  
HETATM    7  C   UNL     1     -10.338  12.396  63.864  1.00  0.00    -0.450 C  
HETATM    8  C   UNL     1     -11.641  12.026  66.007  1.00  0.00    -0.371 C  
ENDBRANCH   2   3
BRANCH   2   9
HETATM    9  C   UNL     1     -12.010  15.466  66.486  1.00  0.00     0.440 C  
BRANCH   9  10
HETATM   10  C   UNL     1     -11.176  15.388  67.760  1.00  0.00    -0.321 A  
HETATM   11  C   UNL     1      -9.668  15.374  70.146  1.00  0.00     0.091 A  
HETATM   12 BR   UNL     1     -11.842  16.138  71.819  1.00  0.00    -0.531 Br 
HETATM   13  C   UNL     1     -11.756  15.746  68.995  1.00  0.00    -0.405 A  
HETATM   14  C   UNL     1     -11.014  15.711  70.174  1.00  0.00    -0.339 A  
HETATM   15  C   UNL     1      -9.067  15.079  68.924  1.00  0.00    -0.202 A  
HETATM   16 BR   UNL     1      -7.204  14.677  68.936  1.00  0.00    -0.131 Br 
HETATM   17  C   UNL     1      -9.803  15.052  67.717  1.00  0.00    -0.220 A  
HETATM   18  N   UNL     1      -9.121  14.929  66.487  1.00  0.00    -0.319 NA 
HETATM   19  H1  UNL     1      -8.130  14.686  66.457  1.00  0.00     0.000 HD 
HETATM   20  H2  UNL     1      -9.250  15.796  65.966  1.00  0.00     0.000 HD 
ENDBRANCH   9  10
ENDBRANCH   2   9
TORSDOF 3
ENDMDL
MODEL      151
REMARK 921   NORMALIZED FREE ENERGY PREDICTED BY IDOCK:   -3.28 KCAL/MOL
REMARK 922        TOTAL FREE ENERGY PREDICTED BY IDOCK:   -4.48 KCAL/MOL
REMARK 923 INTER-LIGAND FREE ENERGY PREDICTED BY IDOCK:   -3.73 KCAL/MOL
REMARK 924 INTRA-LIGAND FREE ENERGY PREDICTED BY IDOCK:   -0.75 KCAL/MOL
REMARK 927      BINDING AFFINITY PREDICTED BY RF-SCORE:    0.00 PKD
ROOT
HETATM    1  C   UNL     1      -8.974   8.664  65.401  1.00  0.00    -0.130 C  
HETATM    2  N   UNL     1      -9.456   9.444  66.556  1.00  0.00    -0.175 NA 
ENDROOT
BRANCH   2   3
HETATM    3  C   UNL     1     -10.516   8.683  67.293  1.00  0.00    -0.289 C  
HETATM    4  C   UNL     1      -9.361   8.100  69.999  1.00  0.00    -0.159 C  
HETATM    5  C   UNL     1     -11.002   9.381  68.587  1.00  0.00    -0.075 C  
HETATM    6  C   UNL     1     -10.065   7.262  67.718  1.00  0.00    -0.225 C  
HETATM    7  C   UNL     1      -8.954   7.292  68.767  1.00  0.00    -0.129 C  
HETATM    8  C   UNL     1      -9.892   9.483  69.632  1.00  0.00    -0.220 C  
ENDBRANCH   2   3
BRANCH   2   9
HETATM    9  C   UNL     1      -9.976  10.763  66.101  1.00  0.00    -0.232 C  
BRANCH   9  10
HETATM   10  C   UNL     1      -9.598  11.980  66.937  1.00  0.00    -0.209 A  
HETATM   11  C   UNL     1      -8.975  14.314  68.399  1.00  0.00    -0.189 A  
HETATM   12 BR   UNL     1     -11.686  15.026  68.897  1.00  0.00    -0.348 Br 
HETATM   13  C   UNL     1     -10.612  12.822  67.441  1.00  0.00    -0.241 A  
HETATM   14  C   UNL     1     -10.299  13.957  68.185  1.00  0.00    -0.247 A  
HETATM   15  C   UNL     1      -7.963  13.525  67.854  1.00  0.00    -0.162 A  
HETATM   16 BR   UNL     1      -6.164  14.090  68.131  1.00  0.00    -0.149 Br 
HETATM   17  C   UNL     1      -8.244  12.338  67.140  1.00  0.00    -0.179 A  
HETATM   18  N   UNL     1      -7.204  11.675  66.454  1.00  0.00    -0.372 NA 
HETATM   19  H1  UNL     1      -6.228  11.932  66.601  1.00  0.00     0.000 HD 
HETATM   20  H2  UNL     1      -7.399  11.731  65.454  1.00  0.00     0.000 HD 
ENDBRANCH   9  10
ENDBRANCH   2   9
TORSDOF 3
ENDMDL
MODEL      152
REMARK 921   NORMALIZED FREE ENERGY PREDICTED BY IDOCK:   -3.28 KCAL/MOL
REMARK 922        TOTAL FREE ENERGY PREDICTED BY IDOCK:   -4.48 KCAL/MOL
REMARK 923 INTER-LIGAND FREE ENERGY PREDICTED BY IDOCK:   -3.77 KCAL/MOL
REMARK 924 INTRA-LIGAND FREE ENERGY PREDICTED BY IDOCK:   -0.71 KCAL/MOL
REMARK 927      BINDING AFFINITY PREDICTED BY RF-SCORE:    0.00 PKD
ROOT
HETATM    1  C   UNL     1      -7.725   9.034  66.488  1.00  0.00    -0.096 C  
HETATM    2  N   UNL     1      -8.679   9.486  67.518  1.00  0.00    -0.126 NA 
ENDROOT
BRANCH   2   3
HETATM    3  C   UNL     1      -8.706  10.982  67.582  1.00  0.00    -0.128 C  
HETATM    4  C   UNL     1     -11.557  11.764  67.073  1.00  0.00    -0.321 C  
HETATM    5  C   UNL     1      -9.638  11.545  68.685  1.00  0.00    -0.159 C  
HETATM    6  C   UNL     1      -9.166  11.644  66.257  1.00  0.00    -0.225 C  
HETATM    7  C   UNL     1     -10.629  11.346  65.934  1.00  0.00    -0.317 C  
HETATM    8  C   UNL     1     -11.104  11.206  68.420  1.00  0.00    -0.303 C  
ENDBRANCH   2   3
BRANCH   2   9
HETATM    9  C   UNL     1      -8.313   8.909  68.841  1.00  0.00    -0.122 C  
BRANCH   9  10
HETATM   10  C   UNL     1      -9.149   7.734  69.337  1.00  0.00    -0.146 A  
HETATM   11  C   UNL     1     -10.695   5.616  70.383  1.00  0.00    -0.352 A  
HETATM   12 BR   UNL     1     -12.755   7.293  71.407  1.00  0.00    -0.417 Br 
HETATM   13  C   UNL     1     -10.349   7.979  70.038  1.00  0.00    -0.218 A  
HETATM   14  C   UNL     1     -11.122   6.928  70.528  1.00  0.00    -0.288 A  
HETATM   15  C   UNL     1      -9.481   5.363  69.748  1.00  0.00    -0.151 A  
HETATM   16 BR   UNL     1      -8.915   3.547  69.624  1.00  0.00    -0.193 Br 
HETATM   17  C   UNL     1      -8.699   6.401  69.191  1.00  0.00    -0.127 A  
HETATM   18  N   UNL     1      -7.397   6.119  68.723  1.00  0.00    -0.084 NA 
HETATM   19  H1  UNL     1      -7.073   5.157  68.617  1.00  0.00     0.000 HD 
HETATM   20  H2  UNL     1      -6.733   6.613  69.318  1.00  0.00     0.000 HD 
ENDBRANCH   9  10
ENDBRANCH   2   9
TORSDOF 3
ENDMDL
MODEL      153
REMARK 921   NORMALIZED FREE ENERGY PREDICTED BY IDOCK:   -3.27 KCAL/MOL
REMARK 922        TOTAL FREE ENERGY PREDICTED BY IDOCK:   -4.47 KCAL/MOL
REMARK 923 INTER-LIGAND FREE ENERGY PREDICTED BY IDOCK:   -3.82 KCAL/MOL
REMARK 924 INTRA-LIGAND FREE ENERGY PREDICTED BY IDOCK:   -0.65 KCAL/MOL
REMARK 927      BINDING AFFINITY PREDICTED BY RF-SCORE:    0.00 PKD
ROOT
HETATM    1  C   UNL     1      -8.157   8.010  72.534  1.00  0.00    -0.135 C  
HETATM    2  N   UNL     1      -8.969   7.357  71.490  1.00  0.00    -0.125 NA 
ENDROOT
BRANCH   2   3
HETATM    3  C   UNL     1      -9.933   6.391  72.108  1.00  0.00    -0.165 C  
HETATM    4  C   UNL     1     -12.664   7.383  71.361  1.00  0.00    -0.408 C  
HETATM    5  C   UNL     1     -10.842   5.671  71.081  1.00  0.00    -0.288 C  
HETATM    6  C   UNL     1     -10.890   7.053  73.133  1.00  0.00    -0.350 C  
HETATM    7  C   UNL     1     -11.855   8.040  72.478  1.00  0.00    -0.419 C  
HETATM    8  C   UNL     1     -11.775   6.645  70.363  1.00  0.00    -0.446 C  
ENDBRANCH   2   3
BRANCH   2   9
HETATM    9  C   UNL     1      -8.084   6.665  70.513  1.00  0.00    -0.117 C  
BRANCH   9  10
HETATM   10  C   UNL     1      -8.467   6.768  69.041  1.00  0.00    -0.128 A  
HETATM   11  C   UNL     1      -9.046   6.920  66.282  1.00  0.00    -0.170 A  
HETATM   12 BR   UNL     1      -8.257   4.245  65.713  1.00  0.00    -0.109 Br 
HETATM   13  C   UNL     1      -8.225   5.677  68.180  1.00  0.00    -0.096 A  
HETATM   14  C   UNL     1      -8.538   5.748  66.824  1.00  0.00    -0.112 A  
HETATM   15  C   UNL     1      -9.232   8.027  67.109  1.00  0.00    -0.142 A  
HETATM   16 BR   UNL     1      -9.881   9.628  66.303  1.00  0.00    -0.337 Br 
HETATM   17  C   UNL     1      -8.977   7.972  68.498  1.00  0.00    -0.133 A  
HETATM   18  N   UNL     1      -9.004   9.160  69.260  1.00  0.00    -0.141 NA 
HETATM   19  H1  UNL     1      -9.371  10.028  68.869  1.00  0.00     0.000 HD 
HETATM   20  H2  UNL     1      -8.058   9.341  69.597  1.00  0.00     0.000 HD 
ENDBRANCH   9  10
ENDBRANCH   2   9
TORSDOF 3
ENDMDL
MODEL      154
REMARK 921   NORMALIZED FREE ENERGY PREDICTED BY IDOCK:   -3.25 KCAL/MOL
REMARK 922        TOTAL FREE ENERGY PREDICTED BY IDOCK:   -4.45 KCAL/MOL
REMARK 923 INTER-LIGAND FREE ENERGY PREDICTED BY IDOCK:   -4.98 KCAL/MOL
REMARK 924 INTRA-LIGAND FREE ENERGY PREDICTED BY IDOCK:    0.53 KCAL/MOL
REMARK 927      BINDING AFFINITY PREDICTED BY RF-SCORE:    0.00 PKD
ROOT
HETATM    1  C   UNL     1      -8.827  12.103  66.862  1.00  0.00    -0.202 C  
HETATM    2  N   UNL     1     -10.143  12.745  67.036  1.00  0.00    -0.237 NA 
ENDROOT
BRANCH   2   3
HETATM    3  C   UNL     1     -10.108  13.701  68.189  1.00  0.00    -0.245 C  
HETATM    4  C   UNL     1      -9.206  16.321  67.040  1.00  0.00    -0.230 C  
HETATM    5  C   UNL     1     -11.050  14.919  68.020  1.00  0.00    -0.301 C  
HETATM    6  C   UNL     1      -8.697  14.287  68.455  1.00  0.00    -0.181 C  
HETATM    7  C   UNL     1      -8.217  15.191  67.320  1.00  0.00    -0.234 C  
HETATM    8  C   UNL     1     -10.630  15.808  66.850  1.00  0.00    -0.317 C  
ENDBRANCH   2   3
BRANCH   2   9
HETATM    9  C   UNL     1     -11.194  11.710  67.242  1.00  0.00    -0.304 C  
BRANCH   9  10
HETATM   10  C   UNL     1     -11.481  11.295  68.681  1.00  0.00    -0.362 A  
HETATM   11  C   UNL     1     -11.950  10.644  71.388  1.00  0.00    -0.261 A  
HETATM   12 BR   UNL     1     -13.308  13.071  71.996  1.00  0.00    -0.539 Br 
HETATM   13  C   UNL     1     -12.129  12.198  69.550  1.00  0.00    -0.263 A  
HETATM   14  C   UNL     1     -12.382  11.861  70.878  1.00  0.00    -0.300 A  
HETATM   15  C   UNL     1     -11.254   9.769  70.556  1.00  0.00    -0.315 A  
HETATM   16 BR   UNL     1     -10.636   8.136  71.321  1.00  0.00    -0.271 Br 
HETATM   17  C   UNL     1     -11.028  10.056  69.191  1.00  0.00    -0.220 A  
HETATM   18  N   UNL     1     -10.165   9.230  68.438  1.00  0.00    -0.195 NA 
HETATM   19  H1  UNL     1      -9.838   8.336  68.806  1.00  0.00     0.000 HD 
HETATM   20  H2  UNL     1      -9.348   9.782  68.176  1.00  0.00     0.000 HD 
ENDBRANCH   9  10
ENDBRANCH   2   9
TORSDOF 3
ENDMDL
MODEL      155
REMARK 921   NORMALIZED FREE ENERGY PREDICTED BY IDOCK:   -3.24 KCAL/MOL
REMARK 922        TOTAL FREE ENERGY PREDICTED BY IDOCK:   -4.44 KCAL/MOL
REMARK 923 INTER-LIGAND FREE ENERGY PREDICTED BY IDOCK:   -4.05 KCAL/MOL
REMARK 924 INTRA-LIGAND FREE ENERGY PREDICTED BY IDOCK:   -0.39 KCAL/MOL
REMARK 927      BINDING AFFINITY PREDICTED BY RF-SCORE:    0.00 PKD
ROOT
HETATM    1  C   UNL     1      -9.352   8.660  67.753  1.00  0.00    -0.141 C  
HETATM    2  N   UNL     1      -8.640   9.705  68.512  1.00  0.00    -0.118 NA 
ENDROOT
BRANCH   2   3
HETATM    3  C   UNL     1      -7.342  10.041  67.843  1.00  0.00    -0.088 C  
HETATM    4  C   UNL     1      -6.806  12.915  68.510  1.00  0.00    -0.095 C  
HETATM    5  C   UNL     1      -6.230  10.487  68.825  1.00  0.00    -0.046 C  
HETATM    6  C   UNL     1      -7.468  11.178  66.796  1.00  0.00    -0.146 C  
HETATM    7  C   UNL     1      -7.816  12.522  67.434  1.00  0.00    -0.175 C  
HETATM    8  C   UNL     1      -6.580  11.799  69.526  1.00  0.00    -0.102 C  
ENDBRANCH   2   3
BRANCH   2   9
HETATM    9  C   UNL     1      -8.411   9.255  69.912  1.00  0.00    -0.156 C  
BRANCH   9  10
HETATM   10  C   UNL     1      -9.647   8.972  70.758  1.00  0.00    -0.308 A  
HETATM   11  C   UNL     1     -11.961   8.336  72.245  1.00  0.00    -0.448 A  
HETATM   12 BR   UNL     1     -11.118   5.698  72.903  1.00  0.00    -0.341 Br 
HETATM   13  C   UNL     1      -9.819   7.697  71.336  1.00  0.00    -0.195 A  
HETATM   14  C   UNL     1     -10.951   7.397  72.092  1.00  0.00    -0.245 A  
HETATM   15  C   UNL     1     -11.832   9.579  71.628  1.00  0.00    -0.397 A  
HETATM   16 BR   UNL     1     -13.273  10.812  71.825  1.00  0.00    -0.455 Br 
HETATM   17  C   UNL     1     -10.674   9.935  70.900  1.00  0.00    -0.235 A  
HETATM   18  N   UNL     1     -10.665  11.126  70.142  1.00  0.00    -0.357 NA 
HETATM   19  H1  UNL     1     -11.405  11.821  70.245  1.00  0.00     0.000 HD 
HETATM   20  H2  UNL     1     -10.602  10.874  69.156  1.00  0.00     0.000 HD 
ENDBRANCH   9  10
ENDBRANCH   2   9
TORSDOF 3
ENDMDL
MODEL      156
REMARK 921   NORMALIZED FREE ENERGY PREDICTED BY IDOCK:   -3.24 KCAL/MOL
REMARK 922        TOTAL FREE ENERGY PREDICTED BY IDOCK:   -4.43 KCAL/MOL
REMARK 923 INTER-LIGAND FREE ENERGY PREDICTED BY IDOCK:   -4.35 KCAL/MOL
REMARK 924 INTRA-LIGAND FREE ENERGY PREDICTED BY IDOCK:   -0.09 KCAL/MOL
REMARK 927      BINDING AFFINITY PREDICTED BY RF-SCORE:    0.00 PKD
ROOT
HETATM    1  C   UNL     1      -7.680   8.254  67.120  1.00  0.00    -0.097 C  
HETATM    2  N   UNL     1      -8.343   7.816  68.363  1.00  0.00    -0.124 NA 
ENDROOT
BRANCH   2   3
HETATM    3  C   UNL     1      -9.704   7.267  68.062  1.00  0.00    -0.141 C  
HETATM    4  C   UNL     1      -9.356   4.294  67.877  1.00  0.00    -0.200 C  
HETATM    5  C   UNL     1     -10.235   6.286  69.136  1.00  0.00    -0.229 C  
HETATM    6  C   UNL     1      -9.771   6.502  66.715  1.00  0.00    -0.208 C  
HETATM    7  C   UNL     1      -8.943   5.218  66.731  1.00  0.00    -0.111 C  
HETATM    8  C   UNL     1      -9.386   5.018  69.220  1.00  0.00    -0.178 C  
ENDBRANCH   2   3
BRANCH   2   9
HETATM    9  C   UNL     1      -8.433   8.952  69.321  1.00  0.00    -0.121 C  
BRANCH   9  10
HETATM   10  C   UNL     1      -9.748   9.723  69.357  1.00  0.00    -0.214 A  
HETATM   11  C   UNL     1     -12.108  11.271  69.410  1.00  0.00    -0.384 A  
HETATM   12 BR   UNL     1     -11.594  12.596  66.944  1.00  0.00    -0.453 Br 
HETATM   13  C   UNL     1     -10.035  10.658  68.339  1.00  0.00    -0.176 A  
HETATM   14  C   UNL     1     -11.214  11.399  68.357  1.00  0.00    -0.263 A  
HETATM   15  C   UNL     1     -11.807  10.397  70.454  1.00  0.00    -0.328 A  
HETATM   16 BR   UNL     1     -13.042  10.300  71.902  1.00  0.00    -0.526 Br 
HETATM   17  C   UNL     1     -10.646   9.590  70.441  1.00  0.00    -0.276 A  
HETATM   18  N   UNL     1     -10.291   8.861  71.596  1.00  0.00    -0.319 NA 
HETATM   19  H1  UNL     1     -10.940   8.765  72.378  1.00  0.00     0.000 HD 
HETATM   20  H2  UNL     1      -9.417   9.245  71.956  1.00  0.00     0.000 HD 
ENDBRANCH   9  10
ENDBRANCH   2   9
TORSDOF 3
ENDMDL
MODEL      157
REMARK 921   NORMALIZED FREE ENERGY PREDICTED BY IDOCK:   -3.23 KCAL/MOL
REMARK 922        TOTAL FREE ENERGY PREDICTED BY IDOCK:   -4.43 KCAL/MOL
REMARK 923 INTER-LIGAND FREE ENERGY PREDICTED BY IDOCK:   -4.35 KCAL/MOL
REMARK 924 INTRA-LIGAND FREE ENERGY PREDICTED BY IDOCK:   -0.08 KCAL/MOL
REMARK 927      BINDING AFFINITY PREDICTED BY RF-SCORE:    0.00 PKD
ROOT
HETATM    1  C   UNL     1      -8.192  11.021  68.186  1.00  0.00    -0.124 C  
HETATM    2  N   UNL     1      -8.868   9.954  67.425  1.00  0.00    -0.132 NA 
ENDROOT
BRANCH   2   3
HETATM    3  C   UNL     1      -8.608  10.116  65.958  1.00  0.00    -0.141 C  
HETATM    4  C   UNL     1      -6.574   8.026  65.260  1.00  0.00    -0.051 C  
HETATM    5  C   UNL     1      -8.943   8.857  65.120  1.00  0.00    -0.189 C  
HETATM    6  C   UNL     1      -7.132  10.464  65.633  1.00  0.00    -0.142 C  
HETATM    7  C   UNL     1      -6.176   9.320  65.967  1.00  0.00    -0.067 C  
HETATM    8  C   UNL     1      -8.043   7.676  65.479  1.00  0.00    -0.130 C  
ENDBRANCH   2   3
BRANCH   2   9
HETATM    9  C   UNL     1     -10.330   9.973  67.706  1.00  0.00    -0.215 C  
BRANCH   9  10
HETATM   10  C   UNL     1     -10.984  11.341  67.870  1.00  0.00    -0.302 A  
HETATM   11  C   UNL     1     -12.084  13.930  68.108  1.00  0.00    -0.317 A  
HETATM   12 BR   UNL     1     -11.978  14.504  65.322  1.00  0.00    -0.325 Br 
HETATM   13  C   UNL     1     -11.148  12.174  66.743  1.00  0.00    -0.349 A  
HETATM   14  C   UNL     1     -11.717  13.441  66.863  1.00  0.00    -0.389 A  
HETATM   15  C   UNL     1     -11.870  13.142  69.237  1.00  0.00    -0.323 A  
HETATM   16 BR   UNL     1     -12.342  13.884  70.929  1.00  0.00    -0.457 Br 
HETATM   17  C   UNL     1     -11.346  11.832  69.146  1.00  0.00    -0.279 A  
HETATM   18  N   UNL     1     -10.977  11.145  70.322  1.00  0.00    -0.414 NA 
HETATM   19  H1  UNL     1     -11.238  11.499  71.243  1.00  0.00     0.000 HD 
HETATM   20  H2  UNL     1      -9.965  11.015  70.309  1.00  0.00     0.000 HD 
ENDBRANCH   9  10
ENDBRANCH   2   9
TORSDOF 3
ENDMDL
MODEL      158
REMARK 921   NORMALIZED FREE ENERGY PREDICTED BY IDOCK:   -3.23 KCAL/MOL
REMARK 922        TOTAL FREE ENERGY PREDICTED BY IDOCK:   -4.42 KCAL/MOL
REMARK 923 INTER-LIGAND FREE ENERGY PREDICTED BY IDOCK:   -4.06 KCAL/MOL
REMARK 924 INTRA-LIGAND FREE ENERGY PREDICTED BY IDOCK:   -0.36 KCAL/MOL
REMARK 927      BINDING AFFINITY PREDICTED BY RF-SCORE:    0.00 PKD
ROOT
HETATM    1  C   UNL     1     -11.389  12.901  68.938  1.00  0.00    -0.288 C  
HETATM    2  N   UNL     1     -11.036  12.159  67.713  1.00  0.00    -0.222 NA 
ENDROOT
BRANCH   2   3
HETATM    3  C   UNL     1     -11.932  12.562  66.583  1.00  0.00    -0.281 C  
HETATM    4  C   UNL     1     -10.197  14.100  64.681  1.00  0.00    -0.195 C  
HETATM    5  C   UNL     1     -11.491  12.008  65.205  1.00  0.00    -0.358 C  
HETATM    6  C   UNL     1     -12.044  14.099  66.408  1.00  0.00    -0.475 C  
HETATM    7  C   UNL     1     -10.725  14.733  65.967  1.00  0.00    -0.314 C  
HETATM    8  C   UNL     1     -10.142  12.578  64.767  1.00  0.00    -0.251 C  
ENDBRANCH   2   3
BRANCH   2   9
HETATM    9  C   UNL     1     -11.127  10.694  67.960  1.00  0.00    -0.301 C  
BRANCH   9  10
HETATM   10  C   UNL     1      -9.829   9.968  68.299  1.00  0.00    -0.163 A  
HETATM   11  C   UNL     1      -7.356   8.726  68.858  1.00  0.00    -0.078 A  
HETATM   12 BR   UNL     1      -6.217  11.002  70.134  1.00  0.00    -0.136 Br 
HETATM   13  C   UNL     1      -8.783  10.671  68.932  1.00  0.00    -0.163 A  
HETATM   14  C   UNL     1      -7.574  10.045  69.230  1.00  0.00    -0.109 A  
HETATM   15  C   UNL     1      -8.359   8.039  68.176  1.00  0.00    -0.127 A  
HETATM   16 BR   UNL     1      -7.988   6.247  67.641  1.00  0.00    -0.114 Br 
HETATM   17  C   UNL     1      -9.616   8.626  67.906  1.00  0.00    -0.149 A  
HETATM   18  N   UNL     1     -10.529   7.961  67.059  1.00  0.00    -0.342 NA 
HETATM   19  H1  UNL     1     -10.375   6.993  66.776  1.00  0.00     0.000 HD 
HETATM   20  H2  UNL     1     -10.643   8.523  66.215  1.00  0.00     0.000 HD 
ENDBRANCH   9  10
ENDBRANCH   2   9
TORSDOF 3
ENDMDL
MODEL      159
REMARK 921   NORMALIZED FREE ENERGY PREDICTED BY IDOCK:   -3.22 KCAL/MOL
REMARK 922        TOTAL FREE ENERGY PREDICTED BY IDOCK:   -4.42 KCAL/MOL
REMARK 923 INTER-LIGAND FREE ENERGY PREDICTED BY IDOCK:   -4.27 KCAL/MOL
REMARK 924 INTRA-LIGAND FREE ENERGY PREDICTED BY IDOCK:   -0.15 KCAL/MOL
REMARK 927      BINDING AFFINITY PREDICTED BY RF-SCORE:    0.00 PKD
ROOT
HETATM    1  C   UNL     1      -9.008  14.089  66.114  1.00  0.00     0.214 C  
HETATM    2  N   UNL     1      -9.411  14.082  67.533  1.00  0.00    -0.202 NA 
ENDROOT
BRANCH   2   3
HETATM    3  C   UNL     1     -10.871  14.393  67.661  1.00  0.00    -0.273 C  
HETATM    4  C   UNL     1     -12.159  11.856  68.611  1.00  0.00    -0.155 C  
HETATM    5  C   UNL     1     -11.425  14.213  69.097  1.00  0.00    -0.338 C  
HETATM    6  C   UNL     1     -11.766  13.518  66.746  1.00  0.00    -0.430 C  
HETATM    7  C   UNL     1     -11.752  12.045  67.151  1.00  0.00    -0.344 C  
HETATM    8  C   UNL     1     -11.364  12.756  69.553  1.00  0.00    -0.223 C  
ENDBRANCH   2   3
BRANCH   2   9
HETATM    9  C   UNL     1      -8.594  15.061  68.300  1.00  0.00    -0.156 C  
BRANCH   9  10
HETATM   10  C   UNL     1      -8.365  16.424  67.657  1.00  0.00    -0.176 A  
HETATM   11  C   UNL     1      -8.048  18.922  66.380  1.00  0.00    -0.306 A  
HETATM   12 BR   UNL     1     -10.729  19.771  66.824  1.00  0.00    -0.421 Br 
HETATM   13  C   UNL     1      -9.444  17.324  67.529  1.00  0.00    -0.245 A  
HETATM   14  C   UNL     1      -9.275  18.567  66.922  1.00  0.00    -0.290 A  
HETATM   15  C   UNL     1      -6.990  18.017  66.444  1.00  0.00    -0.243 A  
HETATM   16 BR   UNL     1      -5.342  18.533  65.636  1.00  0.00    -0.218 Br 
HETATM   17  C   UNL     1      -7.112  16.771  67.101  1.00  0.00    -0.187 A  
HETATM   18  N   UNL     1      -6.078  15.817  66.982  1.00  0.00    -0.275 NA 
HETATM   19  H1  UNL     1      -5.174  16.067  66.581  1.00  0.00     0.000 HD 
HETATM   20  H2  UNL     1      -6.444  15.017  66.465  1.00  0.00     0.000 HD 
ENDBRANCH   9  10
ENDBRANCH   2   9
TORSDOF 3
ENDMDL
MODEL      160
REMARK 921   NORMALIZED FREE ENERGY PREDICTED BY IDOCK:   -3.21 KCAL/MOL
REMARK 922        TOTAL FREE ENERGY PREDICTED BY IDOCK:   -4.40 KCAL/MOL
REMARK 923 INTER-LIGAND FREE ENERGY PREDICTED BY IDOCK:   -4.37 KCAL/MOL
REMARK 924 INTRA-LIGAND FREE ENERGY PREDICTED BY IDOCK:   -0.03 KCAL/MOL
REMARK 927      BINDING AFFINITY PREDICTED BY RF-SCORE:    0.00 PKD
ROOT
HETATM    1  C   UNL     1      -8.503  12.232  66.616  1.00  0.00    -0.056 C  
HETATM    2  N   UNL     1      -9.855  12.811  66.730  1.00  0.00    -0.236 NA 
ENDROOT
BRANCH   2   3
HETATM    3  C   UNL     1      -9.982  13.590  68.004  1.00  0.00    -0.248 C  
HETATM    4  C   UNL     1     -10.065  16.474  67.185  1.00  0.00    -0.274 C  
HETATM    5  C   UNL     1     -11.264  14.454  68.084  1.00  0.00    -0.300 C  
HETATM    6  C   UNL     1      -8.798  14.561  68.248  1.00  0.00    -0.179 C  
HETATM    7  C   UNL     1      -8.752  15.694  67.224  1.00  0.00    -0.213 C  
HETATM    8  C   UNL     1     -11.275  15.558  67.028  1.00  0.00    -0.177 C  
ENDBRANCH   2   3
BRANCH   2   9
HETATM    9  C   UNL     1     -10.880  11.733  66.669  1.00  0.00    -0.276 C  
BRANCH   9  10
HETATM   10  C   UNL     1     -10.539  10.416  67.356  1.00  0.00    -0.321 A  
HETATM   11  C   UNL     1      -9.820   8.047  68.714  1.00  0.00    -0.176 A  
HETATM   12 BR   UNL     1     -10.506   9.023  71.299  1.00  0.00    -0.408 Br 
HETATM   13  C   UNL     1     -10.635  10.318  68.761  1.00  0.00    -0.231 A  
HETATM   14  C   UNL     1     -10.305   9.137  69.423  1.00  0.00    -0.216 A  
HETATM   15  C   UNL     1      -9.661   8.151  67.333  1.00  0.00    -0.170 A  
HETATM   16 BR   UNL     1      -8.940   6.644  66.416  1.00  0.00    -0.167 Br 
HETATM   17  C   UNL     1     -10.037   9.314  66.624  1.00  0.00    -0.271 A  
HETATM   18  N   UNL     1      -9.690   9.443  65.261  1.00  0.00    -0.453 NA 
HETATM   19  H1  UNL     1      -9.329   8.649  64.733  1.00  0.00     0.000 HD 
HETATM   20  H2  UNL     1      -9.023  10.210  65.177  1.00  0.00     0.000 HD 
ENDBRANCH   9  10
ENDBRANCH   2   9
TORSDOF 3
ENDMDL
MODEL      161
REMARK 921   NORMALIZED FREE ENERGY PREDICTED BY IDOCK:   -3.19 KCAL/MOL
REMARK 922        TOTAL FREE ENERGY PREDICTED BY IDOCK:   -4.38 KCAL/MOL
REMARK 923 INTER-LIGAND FREE ENERGY PREDICTED BY IDOCK:   -4.76 KCAL/MOL
REMARK 924 INTRA-LIGAND FREE ENERGY PREDICTED BY IDOCK:    0.38 KCAL/MOL
REMARK 927      BINDING AFFINITY PREDICTED BY RF-SCORE:    0.00 PKD
ROOT
HETATM    1  C   UNL     1     -12.643  13.725  65.619  1.00  0.00    -0.509 C  
HETATM    2  N   UNL     1     -11.711  13.489  66.737  1.00  0.00    -0.369 NA 
ENDROOT
BRANCH   2   3
HETATM    3  C   UNL     1     -10.309  13.824  66.327  1.00  0.00    -0.294 C  
HETATM    4  C   UNL     1     -10.216  16.816  66.132  1.00  0.00    -0.363 C  
HETATM    5  C   UNL     1      -9.555  14.714  67.346  1.00  0.00    -0.215 C  
HETATM    6  C   UNL     1     -10.231  14.569  64.969  1.00  0.00    -0.398 C  
HETATM    7  C   UNL     1     -10.851  15.965  65.033  1.00  0.00    -0.444 C  
HETATM    8  C   UNL     1     -10.192  16.097  67.477  1.00  0.00    -0.267 C  
ENDBRANCH   2   3
BRANCH   2   9
HETATM    9  C   UNL     1     -11.803  12.074  67.189  1.00  0.00    -0.178 C  
BRANCH   9  10
HETATM   10  C   UNL     1     -10.541  11.227  67.070  1.00  0.00    -0.287 A  
HETATM   11  C   UNL     1      -8.130   9.766  66.900  1.00  0.00    -0.113 A  
HETATM   12 BR   UNL     1      -7.462  10.068  69.651  1.00  0.00    -0.151 Br 
HETATM   13  C   UNL     1      -9.703  11.063  68.193  1.00  0.00    -0.180 A  
HETATM   14  C   UNL     1      -8.528  10.318  68.110  1.00  0.00    -0.123 A  
HETATM   15  C   UNL     1      -8.917   9.973  65.769  1.00  0.00    -0.157 A  
HETATM   16 BR   UNL     1      -8.297   9.241  64.122  1.00  0.00    -0.194 Br 
HETATM   17  C   UNL     1     -10.142  10.677  65.829  1.00  0.00    -0.266 A  
HETATM   18  N   UNL     1     -10.809  11.018  64.633  1.00  0.00    -0.251 NA 
HETATM   19  H1  UNL     1     -10.521  10.622  63.737  1.00  0.00     0.000 HD 
HETATM   20  H2  UNL     1     -10.802  12.035  64.545  1.00  0.00     0.000 HD 
ENDBRANCH   9  10
ENDBRANCH   2   9
TORSDOF 3
ENDMDL
MODEL      162
REMARK 921   NORMALIZED FREE ENERGY PREDICTED BY IDOCK:   -3.18 KCAL/MOL
REMARK 922        TOTAL FREE ENERGY PREDICTED BY IDOCK:   -4.37 KCAL/MOL
REMARK 923 INTER-LIGAND FREE ENERGY PREDICTED BY IDOCK:   -3.80 KCAL/MOL
REMARK 924 INTRA-LIGAND FREE ENERGY PREDICTED BY IDOCK:   -0.56 KCAL/MOL
REMARK 927      BINDING AFFINITY PREDICTED BY RF-SCORE:    0.00 PKD
ROOT
HETATM    1  C   UNL     1     -12.689  10.362  70.149  1.00  0.00    -0.083 C  
HETATM    2  N   UNL     1     -11.275   9.962  70.031  1.00  0.00    -0.264 NA 
ENDROOT
BRANCH   2   3
HETATM    3  C   UNL     1     -10.830   9.249  71.271  1.00  0.00    -0.347 C  
HETATM    4  C   UNL     1     -10.333   6.410  70.439  1.00  0.00    -0.251 C  
HETATM    5  C   UNL     1      -9.412   8.635  71.165  1.00  0.00    -0.274 C  
HETATM    6  C   UNL     1     -11.769   8.084  71.678  1.00  0.00    -0.325 C  
HETATM    7  C   UNL     1     -11.749   6.938  70.667  1.00  0.00    -0.417 C  
HETATM    8  C   UNL     1      -9.346   7.528  70.115  1.00  0.00    -0.157 C  
ENDBRANCH   2   3
BRANCH   2   9
HETATM    9  C   UNL     1     -10.426  11.159  69.778  1.00  0.00     0.167 C  
BRANCH   9  10
HETATM   10  C   UNL     1      -9.537  11.126  68.540  1.00  0.00    -0.193 A  
HETATM   11  C   UNL     1      -7.953  10.946  66.210  1.00  0.00    -0.161 A  
HETATM   12 BR   UNL     1     -10.161  10.759  64.422  1.00  0.00    -0.425 Br 
HETATM   13  C   UNL     1     -10.123  10.969  67.266  1.00  0.00    -0.222 A  
HETATM   14  C   UNL     1      -9.337  10.908  66.117  1.00  0.00    -0.186 A  
HETATM   15  C   UNL     1      -7.360  11.039  67.467  1.00  0.00    -0.101 A  
HETATM   16 BR   UNL     1      -5.455  11.032  67.542  1.00  0.00    -0.044 Br 
HETATM   17  C   UNL     1      -8.127  11.157  68.649  1.00  0.00    -0.150 A  
HETATM   18  N   UNL     1      -7.491  11.064  69.905  1.00  0.00    -0.372 NA 
HETATM   19  H1  UNL     1      -6.474  11.086  69.984  1.00  0.00     0.000 HD 
HETATM   20  H2  UNL     1      -7.825  10.217  70.367  1.00  0.00     0.000 HD 
ENDBRANCH   9  10
ENDBRANCH   2   9
TORSDOF 3
ENDMDL
MODEL      163
REMARK 921   NORMALIZED FREE ENERGY PREDICTED BY IDOCK:   -3.17 KCAL/MOL
REMARK 922        TOTAL FREE ENERGY PREDICTED BY IDOCK:   -4.35 KCAL/MOL
REMARK 923 INTER-LIGAND FREE ENERGY PREDICTED BY IDOCK:   -4.38 KCAL/MOL
REMARK 924 INTRA-LIGAND FREE ENERGY PREDICTED BY IDOCK:    0.04 KCAL/MOL
REMARK 927      BINDING AFFINITY PREDICTED BY RF-SCORE:    0.00 PKD
ROOT
HETATM    1  C   UNL     1     -10.837   6.764  69.661  1.00  0.00    -0.271 C  
HETATM    2  N   UNL     1     -11.342   8.008  70.269  1.00  0.00    -0.201 NA 
ENDROOT
BRANCH   2   3
HETATM    3  C   UNL     1     -10.345   9.113  70.098  1.00  0.00    -0.213 C  
HETATM    4  C   UNL     1     -11.360  10.776  67.817  1.00  0.00    -0.354 C  
HETATM    5  C   UNL     1     -10.942  10.530  70.286  1.00  0.00    -0.306 C  
HETATM    6  C   UNL     1      -9.668   9.117  68.703  1.00  0.00    -0.164 C  
HETATM    7  C   UNL     1     -10.651   9.444  67.579  1.00  0.00    -0.333 C  
HETATM    8  C   UNL     1     -11.977  10.860  69.210  1.00  0.00    -0.382 C  
ENDBRANCH   2   3
BRANCH   2   9
HETATM    9  C   UNL     1     -11.642   7.788  71.710  1.00  0.00    -0.272 C  
BRANCH   9  10
HETATM   10  C   UNL     1     -10.762   6.789  72.454  1.00  0.00    -0.256 A  
HETATM   11  C   UNL     1      -9.240   4.916  73.920  1.00  0.00    -0.114 A  
HETATM   12 BR   UNL     1     -11.121   2.797  73.646  1.00  0.00    -0.301 Br 
HETATM   13  C   UNL     1     -11.241   5.484  72.695  1.00  0.00    -0.348 A  
HETATM   14  C   UNL     1     -10.474   4.555  73.396  1.00  0.00    -0.201 A  
HETATM   15  C   UNL     1      -8.783   6.221  73.742  1.00  0.00    -0.123 A  
HETATM   16 BR   UNL     1      -7.108   6.680  74.529  1.00  0.00    -0.091 Br 
HETATM   17  C   UNL     1      -9.511   7.172  72.991  1.00  0.00    -0.158 A  
HETATM   18  N   UNL     1      -9.101   8.523  72.992  1.00  0.00    -0.299 NA 
HETATM   19  H1  UNL     1      -8.198   8.799  73.379  1.00  0.00     0.000 HD 
HETATM   20  H2  UNL     1      -9.825   9.072  73.456  1.00  0.00     0.000 HD 
ENDBRANCH   9  10
ENDBRANCH   2   9
TORSDOF 3
ENDMDL
MODEL      164
REMARK 921   NORMALIZED FREE ENERGY PREDICTED BY IDOCK:   -3.17 KCAL/MOL
REMARK 922        TOTAL FREE ENERGY PREDICTED BY IDOCK:   -4.35 KCAL/MOL
REMARK 923 INTER-LIGAND FREE ENERGY PREDICTED BY IDOCK:   -3.74 KCAL/MOL
REMARK 924 INTRA-LIGAND FREE ENERGY PREDICTED BY IDOCK:   -0.61 KCAL/MOL
REMARK 927      BINDING AFFINITY PREDICTED BY RF-SCORE:    0.00 PKD
ROOT
HETATM    1  C   UNL     1      -7.889   8.453  65.371  1.00  0.00    -0.108 C  
HETATM    2  N   UNL     1      -8.642   7.903  66.514  1.00  0.00    -0.135 NA 
ENDROOT
BRANCH   2   3
HETATM    3  C   UNL     1      -8.640   6.406  66.467  1.00  0.00    -0.125 C  
HETATM    4  C   UNL     1      -6.919   5.525  68.760  1.00  0.00    -0.060 C  
HETATM    5  C   UNL     1      -9.210   5.739  67.744  1.00  0.00    -0.105 C  
HETATM    6  C   UNL     1      -7.227   5.801  66.265  1.00  0.00    -0.077 C  
HETATM    7  C   UNL     1      -6.309   6.050  67.461  1.00  0.00    -0.041 C  
HETATM    8  C   UNL     1      -8.345   6.025  68.971  1.00  0.00    -0.111 C  
ENDBRANCH   2   3
BRANCH   2   9
HETATM    9  C   UNL     1     -10.035   8.429  66.508  1.00  0.00    -0.265 C  
BRANCH   9  10
HETATM   10  C   UNL     1     -10.420   9.376  67.639  1.00  0.00    -0.328 A  
HETATM   11  C   UNL     1     -11.241  11.045  69.763  1.00  0.00    -0.339 A  
HETATM   12 BR   UNL     1     -11.156   8.996  71.738  1.00  0.00    -0.432 Br 
HETATM   13  C   UNL     1     -10.602   8.867  68.943  1.00  0.00    -0.188 A  
HETATM   14  C   UNL     1     -10.981   9.701  69.993  1.00  0.00    -0.260 A  
HETATM   15  C   UNL     1     -11.125  11.548  68.468  1.00  0.00    -0.236 A  
HETATM   16 BR   UNL     1     -11.546  13.387  68.199  1.00  0.00    -0.397 Br 
HETATM   17  C   UNL     1     -10.690  10.742  67.391  1.00  0.00    -0.268 A  
HETATM   18  N   UNL     1     -10.764  11.242  66.073  1.00  0.00    -0.263 NA 
HETATM   19  H1  UNL     1     -10.958  12.228  65.894  1.00  0.00     0.000 HD 
HETATM   20  H2  UNL     1     -11.449  10.686  65.561  1.00  0.00     0.000 HD 
ENDBRANCH   9  10
ENDBRANCH   2   9
TORSDOF 3
ENDMDL
MODEL      165
REMARK 921   NORMALIZED FREE ENERGY PREDICTED BY IDOCK:   -3.16 KCAL/MOL
REMARK 922        TOTAL FREE ENERGY PREDICTED BY IDOCK:   -4.34 KCAL/MOL
REMARK 923 INTER-LIGAND FREE ENERGY PREDICTED BY IDOCK:   -3.78 KCAL/MOL
REMARK 924 INTRA-LIGAND FREE ENERGY PREDICTED BY IDOCK:   -0.56 KCAL/MOL
REMARK 927      BINDING AFFINITY PREDICTED BY RF-SCORE:    0.00 PKD
ROOT
HETATM    1  C   UNL     1     -10.608   5.973  66.844  1.00  0.00    -0.315 C  
HETATM    2  N   UNL     1      -9.381   6.791  66.853  1.00  0.00    -0.145 NA 
ENDROOT
BRANCH   2   3
HETATM    3  C   UNL     1      -8.183   5.936  66.569  1.00  0.00    -0.110 C  
HETATM    4  C   UNL     1      -6.386   7.606  64.844  1.00  0.00    -0.038 C  
HETATM    5  C   UNL     1      -6.849   6.540  67.075  1.00  0.00    -0.066 C  
HETATM    6  C   UNL     1      -7.977   5.652  65.059  1.00  0.00    -0.115 C  
HETATM    7  C   UNL     1      -7.621   6.913  64.272  1.00  0.00    -0.108 C  
HETATM    8  C   UNL     1      -6.499   7.838  66.348  1.00  0.00    -0.047 C  
ENDBRANCH   2   3
BRANCH   2   9
HETATM    9  C   UNL     1      -9.237   7.481  68.164  1.00  0.00    -0.137 C  
BRANCH   9  10
HETATM   10  C   UNL     1     -10.078   8.733  68.382  1.00  0.00    -0.217 A  
HETATM   11  C   UNL     1     -11.747  10.969  68.815  1.00  0.00    -0.383 A  
HETATM   12 BR   UNL     1     -12.519  10.199  71.444  1.00  0.00    -0.556 Br 
HETATM   13  C   UNL     1     -10.807   8.883  69.581  1.00  0.00    -0.186 A  
HETATM   14  C   UNL     1     -11.607  10.003  69.800  1.00  0.00    -0.134 A  
HETATM   15  C   UNL     1     -11.082  10.803  67.601  1.00  0.00    -0.319 A  
HETATM   16 BR   UNL     1     -11.351  12.132  66.262  1.00  0.00    -0.424 Br 
HETATM   17  C   UNL     1     -10.219   9.708  67.366  1.00  0.00    -0.227 A  
HETATM   18  N   UNL     1      -9.715   9.483  66.067  1.00  0.00    -0.253 NA 
HETATM   19  H1  UNL     1      -9.817  10.186  65.334  1.00  0.00     0.000 HD 
HETATM   20  H2  UNL     1     -10.109   8.608  65.722  1.00  0.00     0.000 HD 
ENDBRANCH   9  10
ENDBRANCH   2   9
TORSDOF 3
ENDMDL
MODEL      166
REMARK 921   NORMALIZED FREE ENERGY PREDICTED BY IDOCK:   -3.16 KCAL/MOL
REMARK 922        TOTAL FREE ENERGY PREDICTED BY IDOCK:   -4.34 KCAL/MOL
REMARK 923 INTER-LIGAND FREE ENERGY PREDICTED BY IDOCK:   -3.67 KCAL/MOL
REMARK 924 INTRA-LIGAND FREE ENERGY PREDICTED BY IDOCK:   -0.67 KCAL/MOL
REMARK 927      BINDING AFFINITY PREDICTED BY RF-SCORE:    0.00 PKD
ROOT
HETATM    1  C   UNL     1      -8.530   8.232  66.248  1.00  0.00    -0.129 C  
HETATM    2  N   UNL     1      -8.484   7.654  67.604  1.00  0.00    -0.117 NA 
ENDROOT
BRANCH   2   3
HETATM    3  C   UNL     1      -7.639   6.416  67.614  1.00  0.00    -0.101 C  
HETATM    4  C   UNL     1      -5.433   6.955  69.573  1.00  0.00    -0.015 C  
HETATM    5  C   UNL     1      -7.553   5.729  69.000  1.00  0.00    -0.089 C  
HETATM    6  C   UNL     1      -6.175   6.670  67.172  1.00  0.00    -0.036 C  
HETATM    7  C   UNL     1      -5.409   7.545  68.164  1.00  0.00    -0.026 C  
HETATM    8  C   UNL     1      -6.847   6.609  70.030  1.00  0.00    -0.054 C  
ENDBRANCH   2   3
BRANCH   2   9
HETATM    9  C   UNL     1      -9.862   7.355  68.080  1.00  0.00    -0.148 C  
BRANCH   9  10
HETATM   10  C   UNL     1     -10.335   8.087  69.331  1.00  0.00    -0.217 A  
HETATM   11  C   UNL     1     -11.296   9.333  71.676  1.00  0.00    -0.467 A  
HETATM   12 BR   UNL     1     -10.638   7.164  73.398  1.00  0.00    -0.409 Br 
HETATM   13  C   UNL     1     -10.303   7.426  70.578  1.00  0.00    -0.220 A  
HETATM   14  C   UNL     1     -10.754   8.057  71.736  1.00  0.00    -0.240 A  
HETATM   15  C   UNL     1     -11.391   9.972  70.441  1.00  0.00    -0.320 A  
HETATM   16 BR   UNL     1     -12.194  11.701  70.406  1.00  0.00    -0.406 Br 
HETATM   17  C   UNL     1     -10.894   9.384  69.255  1.00  0.00    -0.172 A  
HETATM   18  N   UNL     1     -11.175   9.984  68.008  1.00  0.00    -0.508 NA 
HETATM   19  H1  UNL     1     -11.578  10.920  67.953  1.00  0.00     0.000 HD 
HETATM   20  H2  UNL     1     -11.775   9.350  67.480  1.00  0.00     0.000 HD 
ENDBRANCH   9  10
ENDBRANCH   2   9
TORSDOF 3
ENDMDL
MODEL      167
REMARK 921   NORMALIZED FREE ENERGY PREDICTED BY IDOCK:   -3.16 KCAL/MOL
REMARK 922        TOTAL FREE ENERGY PREDICTED BY IDOCK:   -4.34 KCAL/MOL
REMARK 923 INTER-LIGAND FREE ENERGY PREDICTED BY IDOCK:   -4.14 KCAL/MOL
REMARK 924 INTRA-LIGAND FREE ENERGY PREDICTED BY IDOCK:   -0.20 KCAL/MOL
REMARK 927      BINDING AFFINITY PREDICTED BY RF-SCORE:    0.00 PKD
ROOT
HETATM    1  C   UNL     1      -9.499  12.855  67.831  1.00  0.00    -0.208 C  
HETATM    2  N   UNL     1      -9.654  12.102  66.572  1.00  0.00    -0.222 NA 
ENDROOT
BRANCH   2   3
HETATM    3  C   UNL     1     -11.099  12.023  66.186  1.00  0.00    -0.322 C  
HETATM    4  C   UNL     1     -11.294  13.340  63.498  1.00  0.00    -0.100 C  
HETATM    5  C   UNL     1     -11.355  11.236  64.876  1.00  0.00    -0.023 C  
HETATM    6  C   UNL     1     -11.756  13.413  65.984  1.00  0.00    -0.398 C  
HETATM    7  C   UNL     1     -11.180  14.161  64.782  1.00  0.00    -0.379 C  
HETATM    8  C   UNL     1     -10.735  11.930  63.664  1.00  0.00    -0.502 C  
ENDBRANCH   2   3
BRANCH   2   9
HETATM    9  C   UNL     1      -9.072  10.739  66.717  1.00  0.00    -0.154 C  
BRANCH   9  10
HETATM   10  C   UNL     1      -8.839  10.235  68.137  1.00  0.00    -0.123 A  
HETATM   11  C   UNL     1      -8.312   9.213  70.716  1.00  0.00    -0.248 A  
HETATM   12 BR   UNL     1      -5.522   9.776  70.641  1.00  0.00    -0.059 Br 
HETATM   13  C   UNL     1      -7.530  10.213  68.663  1.00  0.00    -0.084 A  
HETATM   14  C   UNL     1      -7.279   9.732  69.947  1.00  0.00    -0.116 A  
HETATM   15  C   UNL     1      -9.600   9.172  70.184  1.00  0.00    -0.206 A  
HETATM   16 BR   UNL     1     -10.969   8.398  71.261  1.00  0.00    -0.327 Br 
HETATM   17  C   UNL     1      -9.898   9.700  68.908  1.00  0.00    -0.174 A  
HETATM   18  N   UNL     1     -11.170   9.472  68.339  1.00  0.00    -0.489 NA 
HETATM   19  H1  UNL     1     -11.934   9.086  68.895  1.00  0.00     0.000 HD 
HETATM   20  H2  UNL     1     -11.047   8.881  67.517  1.00  0.00     0.000 HD 
ENDBRANCH   9  10
ENDBRANCH   2   9
TORSDOF 3
ENDMDL
MODEL      168
REMARK 921   NORMALIZED FREE ENERGY PREDICTED BY IDOCK:   -3.15 KCAL/MOL
REMARK 922        TOTAL FREE ENERGY PREDICTED BY IDOCK:   -4.34 KCAL/MOL
REMARK 923 INTER-LIGAND FREE ENERGY PREDICTED BY IDOCK:   -3.97 KCAL/MOL
REMARK 924 INTRA-LIGAND FREE ENERGY PREDICTED BY IDOCK:   -0.36 KCAL/MOL
REMARK 927      BINDING AFFINITY PREDICTED BY RF-SCORE:    0.00 PKD
ROOT
HETATM    1  C   UNL     1     -10.197   7.702  68.820  1.00  0.00    -0.199 C  
HETATM    2  N   UNL     1      -9.950   7.351  70.231  1.00  0.00    -0.187 NA 
ENDROOT
BRANCH   2   3
HETATM    3  C   UNL     1      -9.778   8.592  71.054  1.00  0.00    -0.193 C  
HETATM    4  C   UNL     1     -12.480   9.171  72.220  1.00  0.00    -0.403 C  
HETATM    5  C   UNL     1     -10.109   8.398  72.554  1.00  0.00    -0.362 C  
HETATM    6  C   UNL     1     -10.659   9.773  70.572  1.00  0.00    -0.376 C  
HETATM    7  C   UNL     1     -12.151   9.506  70.766  1.00  0.00    -0.305 C  
HETATM    8  C   UNL     1     -11.585   8.066  72.774  1.00  0.00    -0.390 C  
ENDBRANCH   2   3
BRANCH   2   9
HETATM    9  C   UNL     1      -8.749   6.478  70.337  1.00  0.00    -0.147 C  
BRANCH   9  10
HETATM   10  C   UNL     1      -8.989   4.973  70.371  1.00  0.00    -0.159 A  
HETATM   11  C   UNL     1      -9.529   2.202  70.330  1.00  0.00    -0.146 A  
HETATM   12 BR   UNL     1      -8.937   1.874  67.564  1.00  0.00    -0.176 Br 
HETATM   13  C   UNL     1      -8.894   4.226  69.178  1.00  0.00    -0.134 A  
HETATM   14  C   UNL     1      -9.135   2.853  69.169  1.00  0.00    -0.135 A  
HETATM   15  C   UNL     1      -9.687   2.940  71.501  1.00  0.00    -0.154 A  
HETATM   16 BR   UNL     1     -10.283   2.007  73.053  1.00  0.00    -0.217 Br 
HETATM   17  C   UNL     1      -9.399   4.323  71.558  1.00  0.00    -0.141 A  
HETATM   18  N   UNL     1      -9.747   5.061  72.710  1.00  0.00    -0.148 NA 
HETATM   19  H1  UNL     1     -10.042   4.592  73.567  1.00  0.00     0.000 HD 
HETATM   20  H2  UNL     1     -10.472   5.730  72.450  1.00  0.00     0.000 HD 
ENDBRANCH   9  10
ENDBRANCH   2   9
TORSDOF 3
ENDMDL
MODEL      169
REMARK 921   NORMALIZED FREE ENERGY PREDICTED BY IDOCK:   -3.14 KCAL/MOL
REMARK 922        TOTAL FREE ENERGY PREDICTED BY IDOCK:   -4.32 KCAL/MOL
REMARK 923 INTER-LIGAND FREE ENERGY PREDICTED BY IDOCK:   -3.77 KCAL/MOL
REMARK 924 INTRA-LIGAND FREE ENERGY PREDICTED BY IDOCK:   -0.55 KCAL/MOL
REMARK 927      BINDING AFFINITY PREDICTED BY RF-SCORE:    0.00 PKD
ROOT
HETATM    1  C   UNL     1      -8.013   9.192  70.427  1.00  0.00    -0.145 C  
HETATM    2  N   UNL     1      -8.479   8.560  69.178  1.00  0.00    -0.124 NA 
ENDROOT
BRANCH   2   3
HETATM    3  C   UNL     1      -8.454   7.068  69.309  1.00  0.00    -0.133 C  
HETATM    4  C   UNL     1     -11.307   6.243  69.731  1.00  0.00    -0.506 C  
HETATM    5  C   UNL     1      -9.289   6.331  68.232  1.00  0.00    -0.112 C  
HETATM    6  C   UNL     1      -8.984   6.564  70.676  1.00  0.00    -0.148 C  
HETATM    7  C   UNL     1     -10.475   6.841  70.863  1.00  0.00    -0.239 C  
HETATM    8  C   UNL     1     -10.780   6.641  68.355  1.00  0.00    -0.314 C  
ENDBRANCH   2   3
BRANCH   2   9
HETATM    9  C   UNL     1      -7.635   9.003  68.035  1.00  0.00    -0.092 C  
BRANCH   9  10
HETATM   10  C   UNL     1      -8.361   9.531  66.803  1.00  0.00    -0.116 A  
HETATM   11  C   UNL     1      -9.828  10.472  64.582  1.00  0.00    -0.404 A  
HETATM   12 BR   UNL     1     -11.477  12.228  66.098  1.00  0.00    -0.437 Br 
HETATM   13  C   UNL     1      -9.413  10.458  66.959  1.00  0.00    -0.189 A  
HETATM   14  C   UNL     1     -10.116  10.940  65.856  1.00  0.00    -0.252 A  
HETATM   15  C   UNL     1      -8.832   9.509  64.421  1.00  0.00    -0.216 A  
HETATM   16 BR   UNL     1      -8.515   8.861  62.656  1.00  0.00    -0.175 Br 
HETATM   17  C   UNL     1      -8.064   9.040  65.510  1.00  0.00    -0.110 A  
HETATM   18  N   UNL     1      -7.199   7.939  65.330  1.00  0.00    -0.063 NA 
HETATM   19  H1  UNL     1      -6.985   7.584  64.398  1.00  0.00     0.000 HD 
HETATM   20  H2  UNL     1      -7.554   7.163  65.890  1.00  0.00     0.000 HD 
ENDBRANCH   9  10
ENDBRANCH   2   9
TORSDOF 3
ENDMDL
MODEL      170
REMARK 921   NORMALIZED FREE ENERGY PREDICTED BY IDOCK:   -3.14 KCAL/MOL
REMARK 922        TOTAL FREE ENERGY PREDICTED BY IDOCK:   -4.32 KCAL/MOL
REMARK 923 INTER-LIGAND FREE ENERGY PREDICTED BY IDOCK:   -4.20 KCAL/MOL
REMARK 924 INTRA-LIGAND FREE ENERGY PREDICTED BY IDOCK:   -0.12 KCAL/MOL
REMARK 927      BINDING AFFINITY PREDICTED BY RF-SCORE:    0.00 PKD
ROOT
HETATM    1  C   UNL     1     -11.321  10.966  67.499  1.00  0.00    -0.232 C  
HETATM    2  N   UNL     1     -10.478  11.990  66.855  1.00  0.00    -0.219 NA 
ENDROOT
BRANCH   2   3
HETATM    3  C   UNL     1     -10.751  12.038  65.382  1.00  0.00    -0.287 C  
HETATM    4  C   UNL     1     -11.743  14.815  64.832  1.00  0.00    -0.390 C  
HETATM    5  C   UNL     1      -9.915  13.099  64.625  1.00  0.00    -0.145 C  
HETATM    6  C   UNL     1     -12.234  12.343  65.044  1.00  0.00    -0.465 C  
HETATM    7  C   UNL     1     -12.648  13.754  65.457  1.00  0.00    -0.551 C  
HETATM    8  C   UNL     1     -10.264  14.521  65.064  1.00  0.00    -0.398 C  
ENDBRANCH   2   3
BRANCH   2   9
HETATM    9  C   UNL     1      -9.040  11.706  67.114  1.00  0.00    -0.171 C  
BRANCH   9  10
HETATM   10  C   UNL     1      -8.660  10.255  67.384  1.00  0.00    -0.125 A  
HETATM   11  C   UNL     1      -8.069   7.527  67.812  1.00  0.00    -0.119 A  
HETATM   12 BR   UNL     1      -8.019   6.847  65.047  1.00  0.00    -0.120 Br 
HETATM   13  C   UNL     1      -8.545   9.352  66.306  1.00  0.00    -0.142 A  
HETATM   14  C   UNL     1      -8.226   8.013  66.521  1.00  0.00    -0.115 A  
HETATM   15  C   UNL     1      -8.242   8.394  68.889  1.00  0.00    -0.115 A  
HETATM   16 BR   UNL     1      -8.069   7.664  70.641  1.00  0.00    -0.109 Br 
HETATM   17  C   UNL     1      -8.511   9.770  68.705  1.00  0.00    -0.122 A  
HETATM   18  N   UNL     1      -8.858  10.567  69.817  1.00  0.00    -0.378 NA 
HETATM   19  H1  UNL     1      -8.751  10.217  70.770  1.00  0.00     0.000 HD 
HETATM   20  H2  UNL     1      -9.824  10.871  69.699  1.00  0.00     0.000 HD 
ENDBRANCH   9  10
ENDBRANCH   2   9
TORSDOF 3
ENDMDL
MODEL      171
REMARK 921   NORMALIZED FREE ENERGY PREDICTED BY IDOCK:   -3.13 KCAL/MOL
REMARK 922        TOTAL FREE ENERGY PREDICTED BY IDOCK:   -4.31 KCAL/MOL
REMARK 923 INTER-LIGAND FREE ENERGY PREDICTED BY IDOCK:   -3.58 KCAL/MOL
REMARK 924 INTRA-LIGAND FREE ENERGY PREDICTED BY IDOCK:   -0.73 KCAL/MOL
REMARK 927      BINDING AFFINITY PREDICTED BY RF-SCORE:    0.00 PKD
ROOT
HETATM    1  C   UNL     1      -9.117   4.881  65.031  1.00  0.00    -0.131 C  
HETATM    2  N   UNL     1      -9.141   4.904  66.505  1.00  0.00    -0.121 NA 
ENDROOT
BRANCH   2   3
HETATM    3  C   UNL     1      -8.692   3.584  67.054  1.00  0.00    -0.119 C  
HETATM    4  C   UNL     1      -6.275   4.180  68.726  1.00  0.00    -0.032 C  
HETATM    5  C   UNL     1      -8.697   3.514  68.601  1.00  0.00    -0.139 C  
HETATM    6  C   UNL     1      -7.257   3.194  66.614  1.00  0.00    -0.062 C  
HETATM    7  C   UNL     1      -6.195   4.123  67.201  1.00  0.00    -0.036 C  
HETATM    8  C   UNL     1      -7.688   4.481  69.219  1.00  0.00    -0.055 C  
ENDBRANCH   2   3
BRANCH   2   9
HETATM    9  C   UNL     1     -10.509   5.237  66.989  1.00  0.00    -0.229 C  
BRANCH   9  10
HETATM   10  C   UNL     1     -10.619   6.320  68.056  1.00  0.00    -0.326 A  
HETATM   11  C   UNL     1     -10.958   8.291  70.050  1.00  0.00    -0.197 A  
HETATM   12 BR   UNL     1     -11.914   6.481  72.029  1.00  0.00    -0.345 Br 
HETATM   13  C   UNL     1     -11.136   5.995  69.328  1.00  0.00    -0.424 A  
HETATM   14  C   UNL     1     -11.276   6.967  70.317  1.00  0.00    -0.316 A  
HETATM   15  C   UNL     1     -10.505   8.637  68.778  1.00  0.00    -0.185 A  
HETATM   16 BR   UNL     1     -10.135  10.478  68.448  1.00  0.00    -0.192 Br 
HETATM   17  C   UNL     1     -10.300   7.668  67.769  1.00  0.00    -0.219 A  
HETATM   18  N   UNL     1     -10.018   8.085  66.450  1.00  0.00    -0.449 NA 
HETATM   19  H1  UNL     1      -9.788   9.057  66.242  1.00  0.00     0.000 HD 
HETATM   20  H2  UNL     1     -10.803   7.812  65.858  1.00  0.00     0.000 HD 
ENDBRANCH   9  10
ENDBRANCH   2   9
TORSDOF 3
ENDMDL
MODEL      172
REMARK 921   NORMALIZED FREE ENERGY PREDICTED BY IDOCK:   -3.11 KCAL/MOL
REMARK 922        TOTAL FREE ENERGY PREDICTED BY IDOCK:   -4.28 KCAL/MOL
REMARK 923 INTER-LIGAND FREE ENERGY PREDICTED BY IDOCK:   -3.81 KCAL/MOL
REMARK 924 INTRA-LIGAND FREE ENERGY PREDICTED BY IDOCK:   -0.47 KCAL/MOL
REMARK 927      BINDING AFFINITY PREDICTED BY RF-SCORE:    0.00 PKD
ROOT
HETATM    1  C   UNL     1     -11.137   6.410  66.864  1.00  0.00    -0.272 C  
HETATM    2  N   UNL     1      -9.881   7.142  66.619  1.00  0.00    -0.189 NA 
ENDROOT
BRANCH   2   3
HETATM    3  C   UNL     1      -8.729   6.188  66.540  1.00  0.00    -0.133 C  
HETATM    4  C   UNL     1      -6.849   7.353  64.514  1.00  0.00    -0.047 C  
HETATM    5  C   UNL     1      -7.366   6.820  66.917  1.00  0.00    -0.082 C  
HETATM    6  C   UNL     1      -8.538   5.573  65.129  1.00  0.00    -0.141 C  
HETATM    7  C   UNL     1      -8.118   6.614  64.092  1.00  0.00    -0.031 C  
HETATM    8  C   UNL     1      -6.950   7.910  65.930  1.00  0.00    -0.057 C  
ENDBRANCH   2   3
BRANCH   2   9
HETATM    9  C   UNL     1      -9.659   8.149  67.693  1.00  0.00    -0.152 C  
BRANCH   9  10
HETATM   10  C   UNL     1     -10.215   9.548  67.454  1.00  0.00    -0.285 A  
HETATM   11  C   UNL     1     -11.118  12.177  66.962  1.00  0.00    -0.347 A  
HETATM   12 BR   UNL     1     -10.427  12.165  64.200  1.00  0.00    -0.438 Br 
HETATM   13  C   UNL     1     -10.087  10.140  66.180  1.00  0.00    -0.314 A  
HETATM   14  C   UNL     1     -10.559  11.429  65.936  1.00  0.00    -0.263 A  
HETATM   15  C   UNL     1     -11.194  11.627  68.240  1.00  0.00    -0.260 A  
HETATM   16 BR   UNL     1     -11.919  12.719  69.625  1.00  0.00    -0.311 Br 
HETATM   17  C   UNL     1     -10.774  10.305  68.511  1.00  0.00    -0.227 A  
HETATM   18  N   UNL     1     -10.699   9.857  69.847  1.00  0.00    -0.259 NA 
HETATM   19  H1  UNL     1     -11.102  10.402  70.609  1.00  0.00     0.000 HD 
HETATM   20  H2  UNL     1      -9.718   9.683  70.067  1.00  0.00     0.000 HD 
ENDBRANCH   9  10
ENDBRANCH   2   9
TORSDOF 3
ENDMDL
MODEL      173
REMARK 921   NORMALIZED FREE ENERGY PREDICTED BY IDOCK:   -3.11 KCAL/MOL
REMARK 922        TOTAL FREE ENERGY PREDICTED BY IDOCK:   -4.28 KCAL/MOL
REMARK 923 INTER-LIGAND FREE ENERGY PREDICTED BY IDOCK:   -4.04 KCAL/MOL
REMARK 924 INTRA-LIGAND FREE ENERGY PREDICTED BY IDOCK:   -0.24 KCAL/MOL
REMARK 927      BINDING AFFINITY PREDICTED BY RF-SCORE:    0.00 PKD
ROOT
HETATM    1  C   UNL     1     -11.863  13.201  69.217  1.00  0.00    -0.323 C  
HETATM    2  N   UNL     1     -11.379  12.646  67.939  1.00  0.00    -0.268 NA 
ENDROOT
BRANCH   2   3
HETATM    3  C   UNL     1     -12.241  13.117  66.807  1.00  0.00    -0.243 C  
HETATM    4  C   UNL     1     -10.380  14.450  64.870  1.00  0.00    -0.419 C  
HETATM    5  C   UNL     1     -11.866  12.501  65.436  1.00  0.00    -0.479 C  
HETATM    6  C   UNL     1     -12.205  14.654  66.608  1.00  0.00    -0.141 C  
HETATM    7  C   UNL     1     -10.835  15.151  66.148  1.00  0.00    -0.330 C  
HETATM    8  C   UNL     1     -10.472  12.930  64.980  1.00  0.00    -0.337 C  
ENDBRANCH   2   3
BRANCH   2   9
HETATM    9  C   UNL     1     -11.359  11.159  68.002  1.00  0.00    -0.312 C  
BRANCH   9  10
HETATM   10  C   UNL     1      -9.991  10.488  68.038  1.00  0.00    -0.177 A  
HETATM   11  C   UNL     1      -7.495   9.180  68.222  1.00  0.00    -0.083 A  
HETATM   12 BR   UNL     1      -8.596   6.558  68.341  1.00  0.00    -0.118 Br 
HETATM   13  C   UNL     1      -9.906   9.085  68.167  1.00  0.00    -0.191 A  
HETATM   14  C   UNL     1      -8.671   8.443  68.230  1.00  0.00    -0.143 A  
HETATM   15  C   UNL     1      -7.566  10.571  68.157  1.00  0.00    -0.091 A  
HETATM   16 BR   UNL     1      -5.924  11.537  68.204  1.00  0.00    -0.046 Br 
HETATM   17  C   UNL     1      -8.799  11.251  68.037  1.00  0.00    -0.148 A  
HETATM   18  N   UNL     1      -8.835  12.657  68.159  1.00  0.00    -0.192 NA 
HETATM   19  H1  UNL     1      -7.976  13.207  68.159  1.00  0.00     0.000 HD 
HETATM   20  H2  UNL     1      -9.358  12.888  69.004  1.00  0.00     0.000 HD 
ENDBRANCH   9  10
ENDBRANCH   2   9
TORSDOF 3
ENDMDL
MODEL      174
REMARK 921   NORMALIZED FREE ENERGY PREDICTED BY IDOCK:   -3.10 KCAL/MOL
REMARK 922        TOTAL FREE ENERGY PREDICTED BY IDOCK:   -4.28 KCAL/MOL
REMARK 923 INTER-LIGAND FREE ENERGY PREDICTED BY IDOCK:   -3.70 KCAL/MOL
REMARK 924 INTRA-LIGAND FREE ENERGY PREDICTED BY IDOCK:   -0.58 KCAL/MOL
REMARK 927      BINDING AFFINITY PREDICTED BY RF-SCORE:    0.00 PKD
ROOT
HETATM    1  C   UNL     1     -10.445  10.512  66.086  1.00  0.00    -0.168 C  
HETATM    2  N   UNL     1     -10.162  10.581  67.532  1.00  0.00    -0.195 NA 
ENDROOT
BRANCH   2   3
HETATM    3  C   UNL     1     -10.762   9.403  68.237  1.00  0.00    -0.171 C  
HETATM    4  C   UNL     1      -8.501   8.110  69.724  1.00  0.00    -0.125 C  
HETATM    5  C   UNL     1     -10.623   9.459  69.779  1.00  0.00    -0.247 C  
HETATM    6  C   UNL     1     -10.144   8.049  67.802  1.00  0.00    -0.250 C  
HETATM    7  C   UNL     1      -8.680   7.915  68.219  1.00  0.00    -0.130 C  
HETATM    8  C   UNL     1      -9.163   9.391  70.223  1.00  0.00    -0.285 C  
ENDBRANCH   2   3
BRANCH   2   9
HETATM    9  C   UNL     1     -10.687  11.855  68.095  1.00  0.00    -0.215 C  
BRANCH   9  10
HETATM   10  C   UNL     1      -9.860  13.112  67.848  1.00  0.00    -0.231 A  
HETATM   11  C   UNL     1      -8.321  15.458  67.528  1.00  0.00    -0.190 A  
HETATM   12 BR   UNL     1      -6.145  14.547  69.122  1.00  0.00    -0.101 Br 
HETATM   13  C   UNL     1      -8.610  13.261  68.485  1.00  0.00    -0.065 A  
HETATM   14  C   UNL     1      -7.843  14.410  68.302  1.00  0.00    -0.138 A  
HETATM   15  C   UNL     1      -9.582  15.349  66.943  1.00  0.00    -0.226 A  
HETATM   16 BR   UNL     1     -10.214  16.840  65.937  1.00  0.00    -0.304 Br 
HETATM   17  C   UNL     1     -10.363  14.178  67.064  1.00  0.00    -0.267 A  
HETATM   18  N   UNL     1     -11.701  14.182  66.613  1.00  0.00    -0.384 NA 
HETATM   19  H1  UNL     1     -12.063  14.950  66.048  1.00  0.00     0.000 HD 
HETATM   20  H2  UNL     1     -12.308  14.073  67.425  1.00  0.00     0.000 HD 
ENDBRANCH   9  10
ENDBRANCH   2   9
TORSDOF 3
ENDMDL
MODEL      175
REMARK 921   NORMALIZED FREE ENERGY PREDICTED BY IDOCK:   -3.10 KCAL/MOL
REMARK 922        TOTAL FREE ENERGY PREDICTED BY IDOCK:   -4.28 KCAL/MOL
REMARK 923 INTER-LIGAND FREE ENERGY PREDICTED BY IDOCK:   -4.00 KCAL/MOL
REMARK 924 INTRA-LIGAND FREE ENERGY PREDICTED BY IDOCK:   -0.28 KCAL/MOL
REMARK 927      BINDING AFFINITY PREDICTED BY RF-SCORE:    0.00 PKD
ROOT
HETATM    1  C   UNL     1      -7.668   9.264  66.459  1.00  0.00    -0.093 C  
HETATM    2  N   UNL     1      -8.732   9.738  67.363  1.00  0.00    -0.132 NA 
ENDROOT
BRANCH   2   3
HETATM    3  C   UNL     1      -8.790  11.235  67.359  1.00  0.00    -0.145 C  
HETATM    4  C   UNL     1     -11.678  11.933  66.948  1.00  0.00    -0.291 C  
HETATM    5  C   UNL     1      -9.683  11.830  68.477  1.00  0.00    -0.181 C  
HETATM    6  C   UNL     1      -9.325  11.824  66.028  1.00  0.00    -0.231 C  
HETATM    7  C   UNL     1     -10.794  11.481  65.787  1.00  0.00    -0.319 C  
HETATM    8  C   UNL     1     -11.152  11.449  68.296  1.00  0.00    -0.300 C  
ENDBRANCH   2   3
BRANCH   2   9
HETATM    9  C   UNL     1      -8.498   9.224  68.741  1.00  0.00    -0.129 C  
BRANCH   9  10
HETATM   10  C   UNL     1      -9.272   7.977  69.153  1.00  0.00    -0.151 A  
HETATM   11  C   UNL     1     -10.742   5.650  69.782  1.00  0.00    -0.401 A  
HETATM   12 BR   UNL     1      -9.367   3.978  67.932  1.00  0.00    -0.223 Br 
HETATM   13  C   UNL     1      -9.040   6.759  68.480  1.00  0.00    -0.129 A  
HETATM   14  C   UNL     1      -9.749   5.606  68.813  1.00  0.00    -0.137 A  
HETATM   15  C   UNL     1     -11.025   6.861  70.411  1.00  0.00    -0.274 A  
HETATM   16 BR   UNL     1     -12.435   6.877  71.693  1.00  0.00    -0.401 Br 
HETATM   17  C   UNL     1     -10.288   8.035  70.135  1.00  0.00    -0.215 A  
HETATM   18  N   UNL     1     -10.727   9.272  70.657  1.00  0.00    -0.246 NA 
HETATM   19  H1  UNL     1     -11.459   9.314  71.366  1.00  0.00     0.000 HD 
HETATM   20  H2  UNL     1     -11.009   9.863  69.874  1.00  0.00     0.000 HD 
ENDBRANCH   9  10
ENDBRANCH   2   9
TORSDOF 3
ENDMDL
MODEL      176
REMARK 921   NORMALIZED FREE ENERGY PREDICTED BY IDOCK:   -3.10 KCAL/MOL
REMARK 922        TOTAL FREE ENERGY PREDICTED BY IDOCK:   -4.27 KCAL/MOL
REMARK 923 INTER-LIGAND FREE ENERGY PREDICTED BY IDOCK:   -4.24 KCAL/MOL
REMARK 924 INTRA-LIGAND FREE ENERGY PREDICTED BY IDOCK:   -0.04 KCAL/MOL
REMARK 927      BINDING AFFINITY PREDICTED BY RF-SCORE:    0.00 PKD
ROOT
HETATM    1  C   UNL     1     -11.824  11.283  70.417  1.00  0.00    -0.350 C  
HETATM    2  N   UNL     1     -11.873   9.823  70.219  1.00  0.00    -0.196 NA 
ENDROOT
BRANCH   2   3
HETATM    3  C   UNL     1     -11.758   9.114  71.534  1.00  0.00    -0.363 C  
HETATM    4  C   UNL     1     -14.037   7.166  71.608  1.00  0.00    -0.477 C  
HETATM    5  C   UNL     1     -11.565   7.582  71.404  1.00  0.00    -0.302 C  
HETATM    6  C   UNL     1     -12.995   9.312  72.447  1.00  0.00    -0.450 C  
HETATM    7  C   UNL     1     -14.251   8.654  71.878  1.00  0.00    -0.507 C  
HETATM    8  C   UNL     1     -12.783   6.905  70.778  1.00  0.00    -0.112 C  
ENDBRANCH   2   3
BRANCH   2   9
HETATM    9  C   UNL     1     -10.788   9.396  69.293  1.00  0.00    -0.172 C  
BRANCH   9  10
HETATM   10  C   UNL     1      -9.535  10.264  69.252  1.00  0.00    -0.230 A  
HETATM   11  C   UNL     1      -7.216  11.860  69.036  1.00  0.00    -0.068 A  
HETATM   12 BR   UNL     1      -8.405  13.794  67.317  1.00  0.00    -0.160 Br 
HETATM   13  C   UNL     1      -9.514  11.420  68.443  1.00  0.00    -0.194 A  
HETATM   14  C   UNL     1      -8.375  12.219  68.362  1.00  0.00    -0.144 A  
HETATM   15  C   UNL     1      -7.204  10.687  69.788  1.00  0.00    -0.131 A  
HETATM   16 BR   UNL     1      -5.570  10.213  70.649  1.00  0.00    -0.087 Br 
HETATM   17  C   UNL     1      -8.357   9.883  69.936  1.00  0.00    -0.183 A  
HETATM   18  N   UNL     1      -8.249   8.617  70.552  1.00  0.00    -0.111 NA 
HETATM   19  H1  UNL     1      -7.400   8.342  71.046  1.00  0.00     0.000 HD 
HETATM   20  H2  UNL     1      -8.451   7.905  69.850  1.00  0.00     0.000 HD 
ENDBRANCH   9  10
ENDBRANCH   2   9
TORSDOF 3
ENDMDL
MODEL      177
REMARK 921   NORMALIZED FREE ENERGY PREDICTED BY IDOCK:   -3.10 KCAL/MOL
REMARK 922        TOTAL FREE ENERGY PREDICTED BY IDOCK:   -4.27 KCAL/MOL
REMARK 923 INTER-LIGAND FREE ENERGY PREDICTED BY IDOCK:   -4.15 KCAL/MOL
REMARK 924 INTRA-LIGAND FREE ENERGY PREDICTED BY IDOCK:   -0.12 KCAL/MOL
REMARK 927      BINDING AFFINITY PREDICTED BY RF-SCORE:    0.00 PKD
ROOT
HETATM    1  C   UNL     1     -10.273   5.475  72.095  1.00  0.00    -0.199 C  
HETATM    2  N   UNL     1     -10.296   4.885  70.743  1.00  0.00    -0.199 NA 
ENDROOT
BRANCH   2   3
HETATM    3  C   UNL     1      -8.900   4.636  70.260  1.00  0.00    -0.083 C  
HETATM    4  C   UNL     1      -8.912   1.851  69.147  1.00  0.00    -0.152 C  
HETATM    5  C   UNL     1      -8.807   4.332  68.744  1.00  0.00    -0.138 C  
HETATM    6  C   UNL     1      -8.207   3.448  70.977  1.00  0.00    -0.080 C  
HETATM    7  C   UNL     1      -8.864   2.107  70.652  1.00  0.00    -0.131 C  
HETATM    8  C   UNL     1      -9.512   3.026  68.380  1.00  0.00    -0.211 C  
ENDBRANCH   2   3
BRANCH   2   9
HETATM    9  C   UNL     1     -11.025   5.783  69.806  1.00  0.00    -0.327 C  
BRANCH   9  10
HETATM   10  C   UNL     1     -10.866   7.284  70.023  1.00  0.00    -0.271 A  
HETATM   11  C   UNL     1     -10.458  10.036  70.502  1.00  0.00    -0.265 A  
HETATM   12 BR   UNL     1      -7.806  10.078  69.469  1.00  0.00    -0.173 Br 
HETATM   13  C   UNL     1      -9.635   7.905  69.725  1.00  0.00    -0.167 A  
HETATM   14  C   UNL     1      -9.448   9.270  69.938  1.00  0.00    -0.197 A  
HETATM   15  C   UNL     1     -11.658   9.423  70.859  1.00  0.00    -0.312 A  
HETATM   16 BR   UNL     1     -12.990  10.511  71.680  1.00  0.00    -0.575 Br 
HETATM   17  C   UNL     1     -11.900   8.053  70.607  1.00  0.00    -0.093 A  
HETATM   18  N   UNL     1     -13.049   7.438  71.148  1.00  0.00    -0.574 NA 
HETATM   19  H1  UNL     1     -13.795   7.992  71.569  1.00  0.00     0.000 HD 
HETATM   20  H2  UNL     1     -12.745   6.746  71.833  1.00  0.00     0.000 HD 
ENDBRANCH   9  10
ENDBRANCH   2   9
TORSDOF 3
ENDMDL
MODEL      178
REMARK 921   NORMALIZED FREE ENERGY PREDICTED BY IDOCK:   -3.09 KCAL/MOL
REMARK 922        TOTAL FREE ENERGY PREDICTED BY IDOCK:   -4.26 KCAL/MOL
REMARK 923 INTER-LIGAND FREE ENERGY PREDICTED BY IDOCK:   -3.73 KCAL/MOL
REMARK 924 INTRA-LIGAND FREE ENERGY PREDICTED BY IDOCK:   -0.53 KCAL/MOL
REMARK 927      BINDING AFFINITY PREDICTED BY RF-SCORE:    0.00 PKD
ROOT
HETATM    1  C   UNL     1     -10.071  10.416  64.374  1.00  0.00    -0.272 C  
HETATM    2  N   UNL     1      -9.680  11.525  65.263  1.00  0.00    -0.236 NA 
ENDROOT
BRANCH   2   3
HETATM    3  C   UNL     1      -9.980  12.843  64.615  1.00  0.00    -0.129 C  
HETATM    4  C   UNL     1     -12.641  13.696  65.705  1.00  0.00    -0.531 C  
HETATM    5  C   UNL     1     -10.147  14.010  65.619  1.00  0.00    -0.342 C  
HETATM    6  C   UNL     1     -11.275  12.825  63.762  1.00  0.00    -0.496 C  
HETATM    7  C   UNL     1     -12.530  12.633  64.612  1.00  0.00    -0.538 C  
HETATM    8  C   UNL     1     -11.360  13.814  66.526  1.00  0.00    -0.336 C  
ENDBRANCH   2   3
BRANCH   2   9
HETATM    9  C   UNL     1      -8.235  11.422  65.603  1.00  0.00     0.231 C  
BRANCH   9  10
HETATM   10  C   UNL     1      -7.874  11.383  67.084  1.00  0.00    -0.156 A  
HETATM   11  C   UNL     1      -7.072  11.302  69.789  1.00  0.00     0.045 A  
HETATM   12 BR   UNL     1      -5.336  13.551  69.602  1.00  0.00    -0.091 Br 
HETATM   13  C   UNL     1      -6.930  12.297  67.596  1.00  0.00    -0.128 A  
HETATM   14  C   UNL     1      -6.557  12.270  68.938  1.00  0.00    -0.094 A  
HETATM   15  C   UNL     1      -7.958  10.354  69.282  1.00  0.00    -0.157 A  
HETATM   16 BR   UNL     1      -8.591   9.013  70.481  1.00  0.00    -0.255 Br 
HETATM   17  C   UNL     1      -8.398  10.385  67.939  1.00  0.00    -0.114 A  
HETATM   18  N   UNL     1      -9.147   9.305  67.425  1.00  0.00    -0.126 NA 
HETATM   19  H1  UNL     1      -9.526   8.585  68.042  1.00  0.00     0.000 HD 
HETATM   20  H2  UNL     1      -8.586   8.844  66.709  1.00  0.00     0.000 HD 
ENDBRANCH   9  10
ENDBRANCH   2   9
TORSDOF 3
ENDMDL
MODEL      179
REMARK 921   NORMALIZED FREE ENERGY PREDICTED BY IDOCK:   -3.09 KCAL/MOL
REMARK 922        TOTAL FREE ENERGY PREDICTED BY IDOCK:   -4.26 KCAL/MOL
REMARK 923 INTER-LIGAND FREE ENERGY PREDICTED BY IDOCK:   -4.73 KCAL/MOL
REMARK 924 INTRA-LIGAND FREE ENERGY PREDICTED BY IDOCK:    0.47 KCAL/MOL
REMARK 927      BINDING AFFINITY PREDICTED BY RF-SCORE:    0.00 PKD
ROOT
HETATM    1  C   UNL     1      -9.934  12.087  66.066  1.00  0.00    -0.234 C  
HETATM    2  N   UNL     1      -9.837  11.243  67.271  1.00  0.00    -0.181 NA 
ENDROOT
BRANCH   2   3
HETATM    3  C   UNL     1      -8.873  10.119  67.043  1.00  0.00    -0.135 C  
HETATM    4  C   UNL     1      -8.497   8.819  69.720  1.00  0.00    -0.129 C  
HETATM    5  C   UNL     1      -9.445   8.722  67.392  1.00  0.00    -0.183 C  
HETATM    6  C   UNL     1      -7.564  10.260  67.863  1.00  0.00    -0.089 C  
HETATM    7  C   UNL     1      -7.801  10.132  69.367  1.00  0.00    -0.150 C  
HETATM    8  C   UNL     1      -9.752   8.588  68.883  1.00  0.00    -0.172 C  
ENDBRANCH   2   3
BRANCH   2   9
HETATM    9  C   UNL     1     -11.181  10.717  67.636  1.00  0.00    -0.299 C  
BRANCH   9  10
HETATM   10  C   UNL     1     -11.766  11.179  68.966  1.00  0.00    -0.408 A  
HETATM   11  C   UNL     1     -12.965  11.961  71.399  1.00  0.00    -0.385 A  
HETATM   12 BR   UNL     1     -13.478   9.306  72.289  1.00  0.00    -0.547 Br 
HETATM   13  C   UNL     1     -12.285  10.225  69.867  1.00  0.00    -0.130 A  
HETATM   14  C   UNL     1     -12.851  10.616  71.079  1.00  0.00    -0.402 A  
HETATM   15  C   UNL     1     -12.513  12.916  70.490  1.00  0.00    -0.217 A  
HETATM   16 BR   UNL     1     -12.744  14.750  70.955  1.00  0.00    -0.443 Br 
HETATM   17  C   UNL     1     -11.885  12.554  69.277  1.00  0.00    -0.304 A  
HETATM   18  N   UNL     1     -11.611  13.545  68.310  1.00  0.00    -0.323 NA 
HETATM   19  H1  UNL     1     -11.697  14.537  68.534  1.00  0.00     0.000 HD 
HETATM   20  H2  UNL     1     -12.188  13.355  67.490  1.00  0.00     0.000 HD 
ENDBRANCH   9  10
ENDBRANCH   2   9
TORSDOF 3
ENDMDL
MODEL      180
REMARK 921   NORMALIZED FREE ENERGY PREDICTED BY IDOCK:   -3.07 KCAL/MOL
REMARK 922        TOTAL FREE ENERGY PREDICTED BY IDOCK:   -4.24 KCAL/MOL
REMARK 923 INTER-LIGAND FREE ENERGY PREDICTED BY IDOCK:   -4.08 KCAL/MOL
REMARK 924 INTRA-LIGAND FREE ENERGY PREDICTED BY IDOCK:   -0.15 KCAL/MOL
REMARK 927      BINDING AFFINITY PREDICTED BY RF-SCORE:    0.00 PKD
ROOT
HETATM    1  C   UNL     1     -11.023   6.230  67.541  1.00  0.00    -0.350 C  
HETATM    2  N   UNL     1      -9.566   6.457  67.533  1.00  0.00    -0.119 NA 
ENDROOT
BRANCH   2   3
HETATM    3  C   UNL     1      -8.836   5.160  67.709  1.00  0.00    -0.105 C  
HETATM    4  C   UNL     1      -7.342   4.717  65.146  1.00  0.00    -0.072 C  
HETATM    5  C   UNL     1      -7.296   5.288  67.595  1.00  0.00    -0.076 C  
HETATM    6  C   UNL     1      -9.251   4.079  66.677  1.00  0.00    -0.173 C  
HETATM    7  C   UNL     1      -8.842   4.445  65.251  1.00  0.00    -0.135 C  
HETATM    8  C   UNL     1      -6.862   5.716  66.194  1.00  0.00    -0.058 C  
ENDBRANCH   2   3
BRANCH   2   9
HETATM    9  C   UNL     1      -9.193   7.420  68.605  1.00  0.00    -0.143 C  
BRANCH   9  10
HETATM   10  C   UNL     1     -10.082   7.455  69.843  1.00  0.00    -0.195 A  
HETATM   11  C   UNL     1     -11.784   7.397  72.094  1.00  0.00    -0.328 A  
HETATM   12 BR   UNL     1     -10.899   4.851  73.011  1.00  0.00    -0.357 Br 
HETATM   13  C   UNL     1     -10.111   6.343  70.711  1.00  0.00    -0.220 A  
HETATM   14  C   UNL     1     -10.934   6.332  71.836  1.00  0.00    -0.256 A  
HETATM   15  C   UNL     1     -11.811   8.475  71.210  1.00  0.00    -0.291 A  
HETATM   16 BR   UNL     1     -13.038   9.886  71.582  1.00  0.00    -0.563 Br 
HETATM   17  C   UNL     1     -10.952   8.543  70.090  1.00  0.00    -0.216 A  
HETATM   18  N   UNL     1     -11.141   9.558  69.127  1.00  0.00    -0.425 NA 
HETATM   19  H1  UNL     1     -11.768  10.343  69.306  1.00  0.00     0.000 HD 
HETATM   20  H2  UNL     1     -11.428   9.116  68.254  1.00  0.00     0.000 HD 
ENDBRANCH   9  10
ENDBRANCH   2   9
TORSDOF 3
ENDMDL
MODEL      181
REMARK 921   NORMALIZED FREE ENERGY PREDICTED BY IDOCK:   -3.06 KCAL/MOL
REMARK 922        TOTAL FREE ENERGY PREDICTED BY IDOCK:   -4.23 KCAL/MOL
REMARK 923 INTER-LIGAND FREE ENERGY PREDICTED BY IDOCK:   -3.79 KCAL/MOL
REMARK 924 INTRA-LIGAND FREE ENERGY PREDICTED BY IDOCK:   -0.43 KCAL/MOL
REMARK 927      BINDING AFFINITY PREDICTED BY RF-SCORE:    0.00 PKD
ROOT
HETATM    1  C   UNL     1     -10.568   5.900  67.308  1.00  0.00    -0.291 C  
HETATM    2  N   UNL     1      -9.581   6.978  67.508  1.00  0.00    -0.128 NA 
ENDROOT
BRANCH   2   3
HETATM    3  C   UNL     1      -8.536   6.934  66.435  1.00  0.00    -0.134 C  
HETATM    4  C   UNL     1      -7.528   9.746  66.170  1.00  0.00    -0.101 C  
HETATM    5  C   UNL     1      -7.131   7.376  66.912  1.00  0.00    -0.083 C  
HETATM    6  C   UNL     1      -8.873   7.830  65.215  1.00  0.00     0.073 C  
HETATM    7  C   UNL     1      -8.862   9.318  65.562  1.00  0.00    -0.224 C  
HETATM    8  C   UNL     1      -7.105   8.846  67.327  1.00  0.00    -0.083 C  
ENDBRANCH   2   3
BRANCH   2   9
HETATM    9  C   UNL     1      -8.959   6.857  68.855  1.00  0.00    -0.131 C  
BRANCH   9  10
HETATM   10  C   UNL     1      -9.858   7.118  70.058  1.00  0.00    -0.178 A  
HETATM   11  C   UNL     1     -11.596   7.485  72.252  1.00  0.00    -0.354 A  
HETATM   12 BR   UNL     1     -11.111   4.920  73.386  1.00  0.00    -0.415 Br 
HETATM   13  C   UNL     1     -10.067   6.095  71.006  1.00  0.00    -0.231 A  
HETATM   14  C   UNL     1     -10.905   6.291  72.103  1.00  0.00    -0.242 A  
HETATM   15  C   UNL     1     -11.448   8.481  71.289  1.00  0.00    -0.277 A  
HETATM   16 BR   UNL     1     -12.462  10.079  71.513  1.00  0.00    -0.539 Br 
HETATM   17  C   UNL     1     -10.565   8.336  70.194  1.00  0.00    -0.233 A  
HETATM   18  N   UNL     1     -10.584   9.288  69.152  1.00  0.00    -0.222 NA 
HETATM   19  H1  UNL     1     -11.094  10.167  69.250  1.00  0.00     0.000 HD 
HETATM   20  H2  UNL     1     -10.915   8.824  68.306  1.00  0.00     0.000 HD 
ENDBRANCH   9  10
ENDBRANCH   2   9
TORSDOF 3
ENDMDL
MODEL      182
REMARK 921   NORMALIZED FREE ENERGY PREDICTED BY IDOCK:   -3.06 KCAL/MOL
REMARK 922        TOTAL FREE ENERGY PREDICTED BY IDOCK:   -4.23 KCAL/MOL
REMARK 923 INTER-LIGAND FREE ENERGY PREDICTED BY IDOCK:   -3.72 KCAL/MOL
REMARK 924 INTRA-LIGAND FREE ENERGY PREDICTED BY IDOCK:   -0.51 KCAL/MOL
REMARK 927      BINDING AFFINITY PREDICTED BY RF-SCORE:    0.00 PKD
ROOT
HETATM    1  C   UNL     1     -11.174  12.924  65.623  1.00  0.00    -0.295 C  
HETATM    2  N   UNL     1     -10.078  13.166  66.579  1.00  0.00    -0.273 NA 
ENDROOT
BRANCH   2   3
HETATM    3  C   UNL     1      -9.581  14.575  66.456  1.00  0.00    -0.293 C  
HETATM    4  C   UNL     1      -9.595  15.685  69.242  1.00  0.00    -0.268 C  
HETATM    5  C   UNL     1      -8.287  14.855  67.260  1.00  0.00    -0.233 C  
HETATM    6  C   UNL     1     -10.614  15.631  66.928  1.00  0.00    -0.311 C  
HETATM    7  C   UNL     1     -10.883  15.554  68.430  1.00  0.00    -0.273 C  
HETATM    8  C   UNL     1      -8.512  14.722  68.766  1.00  0.00    -0.170 C  
ENDBRANCH   2   3
BRANCH   2   9
HETATM    9  C   UNL     1      -8.973  12.196  66.347  1.00  0.00    -0.138 C  
BRANCH   9  10
HETATM   10  C   UNL     1      -8.942  10.958  67.236  1.00  0.00    -0.139 A  
HETATM   11  C   UNL     1      -8.746   8.661  68.865  1.00  0.00    -0.131 A  
HETATM   12 BR   UNL     1      -6.869   9.800  70.678  1.00  0.00    -0.072 Br 
HETATM   13  C   UNL     1      -8.072  10.919  68.346  1.00  0.00    -0.131 A  
HETATM   14  C   UNL     1      -8.000   9.792  69.163  1.00  0.00    -0.104 A  
HETATM   15  C   UNL     1      -9.562   8.664  67.735  1.00  0.00    -0.148 A  
HETATM   16 BR   UNL     1     -10.522   7.065  67.342  1.00  0.00    -0.379 Br 
HETATM   17  C   UNL     1      -9.700   9.808  66.917  1.00  0.00    -0.192 A  
HETATM   18  N   UNL     1     -10.390   9.707  65.689  1.00  0.00    -0.167 NA 
HETATM   19  H1  UNL     1     -10.937   8.877  65.458  1.00  0.00     0.000 HD 
HETATM   20  H2  UNL     1      -9.719   9.862  64.936  1.00  0.00     0.000 HD 
ENDBRANCH   9  10
ENDBRANCH   2   9
TORSDOF 3
ENDMDL
MODEL      183
REMARK 921   NORMALIZED FREE ENERGY PREDICTED BY IDOCK:   -3.06 KCAL/MOL
REMARK 922        TOTAL FREE ENERGY PREDICTED BY IDOCK:   -4.22 KCAL/MOL
REMARK 923 INTER-LIGAND FREE ENERGY PREDICTED BY IDOCK:   -4.41 KCAL/MOL
REMARK 924 INTRA-LIGAND FREE ENERGY PREDICTED BY IDOCK:    0.19 KCAL/MOL
REMARK 927      BINDING AFFINITY PREDICTED BY RF-SCORE:    0.00 PKD
ROOT
HETATM    1  C   UNL     1     -12.224  14.087  68.738  1.00  0.00    -0.202 C  
HETATM    2  N   UNL     1     -11.814  14.921  69.883  1.00  0.00    -0.292 NA 
ENDROOT
BRANCH   2   3
HETATM    3  C   UNL     1     -13.012  15.336  70.681  1.00  0.00    -0.391 C  
HETATM    4  C   UNL     1     -12.635  14.126  73.399  1.00  0.00     0.114 C  
HETATM    5  C   UNL     1     -12.668  16.173  71.938  1.00  0.00    -0.210 C  
HETATM    6  C   UNL     1     -13.857  14.137  71.185  1.00  0.00    -0.148 C  
HETATM    7  C   UNL     1     -13.111  13.288  72.213  1.00  0.00    -0.474 C  
HETATM    8  C   UNL     1     -11.865  15.367  72.958  1.00  0.00    -0.532 C  
ENDBRANCH   2   3
BRANCH   2   9
HETATM    9  C   UNL     1     -11.062  16.113  69.404  1.00  0.00    -0.335 C  
BRANCH   9  10
HETATM   10  C   UNL     1      -9.816  15.852  68.564  1.00  0.00    -0.210 A  
HETATM   11  C   UNL     1      -7.454  15.302  67.119  1.00  0.00    -0.202 A  
HETATM   12 BR   UNL     1      -7.573  12.485  67.509  1.00  0.00    -0.163 Br 
HETATM   13  C   UNL     1      -9.322  14.536  68.441  1.00  0.00    -0.208 A  
HETATM   14  C   UNL     1      -8.170  14.267  67.704  1.00  0.00    -0.185 A  
HETATM   15  C   UNL     1      -7.897  16.613  67.286  1.00  0.00    -0.166 A  
HETATM   16 BR   UNL     1      -6.845  18.001  66.509  1.00  0.00    -0.277 Br 
HETATM   17  C   UNL     1      -9.089  16.916  67.981  1.00  0.00    -0.234 A  
HETATM   18  N   UNL     1      -9.400  18.260  68.281  1.00  0.00    -0.298 NA 
HETATM   19  H1  UNL     1      -8.876  19.028  67.860  1.00  0.00     0.000 HD 
HETATM   20  H2  UNL     1      -9.368  18.374  69.294  1.00  0.00     0.000 HD 
ENDBRANCH   9  10
ENDBRANCH   2   9
TORSDOF 3
ENDMDL
MODEL      184
REMARK 921   NORMALIZED FREE ENERGY PREDICTED BY IDOCK:   -3.05 KCAL/MOL
REMARK 922        TOTAL FREE ENERGY PREDICTED BY IDOCK:   -4.21 KCAL/MOL
REMARK 923 INTER-LIGAND FREE ENERGY PREDICTED BY IDOCK:   -4.66 KCAL/MOL
REMARK 924 INTRA-LIGAND FREE ENERGY PREDICTED BY IDOCK:    0.45 KCAL/MOL
REMARK 927      BINDING AFFINITY PREDICTED BY RF-SCORE:    0.00 PKD
ROOT
HETATM    1  C   UNL     1      -9.234  16.754  65.786  1.00  0.00     0.034 C  
HETATM    2  N   UNL     1      -9.573  16.456  67.190  1.00  0.00    -0.231 NA 
ENDROOT
BRANCH   2   3
HETATM    3  C   UNL     1      -8.616  15.452  67.756  1.00  0.00    -0.157 C  
HETATM    4  C   UNL     1      -6.207  17.022  68.611  1.00  0.00    -0.153 C  
HETATM    5  C   UNL     1      -8.253  15.702  69.241  1.00  0.00    -0.253 C  
HETATM    6  C   UNL     1      -7.268  15.394  66.992  1.00  0.00    -0.072 C  
HETATM    7  C   UNL     1      -6.455  16.679  67.143  1.00  0.00    -0.223 C  
HETATM    8  C   UNL     1      -7.494  17.014  69.431  1.00  0.00     0.033 C  
ENDBRANCH   2   3
BRANCH   2   9
HETATM    9  C   UNL     1     -10.973  15.960  67.283  1.00  0.00    -0.234 C  
BRANCH   9  10
HETATM   10  C   UNL     1     -11.216  14.502  66.906  1.00  0.00    -0.340 A  
HETATM   11  C   UNL     1     -11.533  11.776  66.247  1.00  0.00    -0.296 A  
HETATM   12 BR   UNL     1     -10.790  10.809  68.819  1.00  0.00    -0.293 Br 
HETATM   13  C   UNL     1     -10.934  13.485  67.842  1.00  0.00    -0.275 A  
HETATM   14  C   UNL     1     -11.119  12.141  67.519  1.00  0.00    -0.275 A  
HETATM   15  C   UNL     1     -11.755  12.768  65.293  1.00  0.00    -0.368 A  
HETATM   16 BR   UNL     1     -12.270  12.208  63.545  1.00  0.00    -0.644 Br 
HETATM   17  C   UNL     1     -11.630  14.142  65.602  1.00  0.00    -0.339 A  
HETATM   18  N   UNL     1     -11.685  15.098  64.565  1.00  0.00    -0.578 NA 
HETATM   19  H1  UNL     1     -11.984  14.838  63.625  1.00  0.00     0.000 HD 
HETATM   20  H2  UNL     1     -10.769  15.540  64.494  1.00  0.00     0.000 HD 
ENDBRANCH   9  10
ENDBRANCH   2   9
TORSDOF 3
ENDMDL
MODEL      185
REMARK 921   NORMALIZED FREE ENERGY PREDICTED BY IDOCK:   -3.03 KCAL/MOL
REMARK 922        TOTAL FREE ENERGY PREDICTED BY IDOCK:   -4.19 KCAL/MOL
REMARK 923 INTER-LIGAND FREE ENERGY PREDICTED BY IDOCK:   -4.05 KCAL/MOL
REMARK 924 INTRA-LIGAND FREE ENERGY PREDICTED BY IDOCK:   -0.14 KCAL/MOL
REMARK 927      BINDING AFFINITY PREDICTED BY RF-SCORE:    0.00 PKD
ROOT
HETATM    1  C   UNL     1     -11.297  10.970  69.785  1.00  0.00    -0.292 C  
HETATM    2  N   UNL     1     -11.261   9.608  69.223  1.00  0.00    -0.114 NA 
ENDROOT
BRANCH   2   3
HETATM    3  C   UNL     1     -10.218   8.785  69.917  1.00  0.00    -0.200 C  
HETATM    4  C   UNL     1     -11.728   6.814  71.600  1.00  0.00    -0.357 C  
HETATM    5  C   UNL     1     -10.291   7.274  69.587  1.00  0.00    -0.227 C  
HETATM    6  C   UNL     1     -10.286   8.888  71.462  1.00  0.00    -0.394 C  
HETATM    7  C   UNL     1     -11.562   8.270  72.033  1.00  0.00    -0.403 C  
HETATM    8  C   UNL     1     -11.588   6.642  70.090  1.00  0.00    -0.446 C  
ENDBRANCH   2   3
BRANCH   2   9
HETATM    9  C   UNL     1     -10.998   9.666  67.759  1.00  0.00    -0.139 C  
BRANCH   9  10
HETATM   10  C   UNL     1      -9.588  10.053  67.325  1.00  0.00    -0.188 A  
HETATM   11  C   UNL     1      -7.032  10.883  66.459  1.00  0.00    -0.139 A  
HETATM   12 BR   UNL     1      -7.192  13.464  67.650  1.00  0.00    -0.163 Br 
HETATM   13  C   UNL     1      -9.104  11.348  67.607  1.00  0.00    -0.155 A  
HETATM   14  C   UNL     1      -7.831  11.743  67.200  1.00  0.00    -0.166 A  
HETATM   15  C   UNL     1      -7.523   9.623  66.121  1.00  0.00    -0.098 A  
HETATM   16 BR   UNL     1      -6.408   8.503  65.055  1.00  0.00    -0.060 Br 
HETATM   17  C   UNL     1      -8.788   9.171  66.563  1.00  0.00    -0.134 A  
HETATM   18  N   UNL     1      -9.317   7.968  66.046  1.00  0.00    -0.378 NA 
HETATM   19  H1  UNL     1      -8.740   7.332  65.496  1.00  0.00     0.000 HD 
HETATM   20  H2  UNL     1     -10.146   8.198  65.497  1.00  0.00     0.000 HD 
ENDBRANCH   9  10
ENDBRANCH   2   9
TORSDOF 3
ENDMDL
MODEL      186
REMARK 921   NORMALIZED FREE ENERGY PREDICTED BY IDOCK:   -3.02 KCAL/MOL
REMARK 922        TOTAL FREE ENERGY PREDICTED BY IDOCK:   -4.18 KCAL/MOL
REMARK 923 INTER-LIGAND FREE ENERGY PREDICTED BY IDOCK:   -3.70 KCAL/MOL
REMARK 924 INTRA-LIGAND FREE ENERGY PREDICTED BY IDOCK:   -0.48 KCAL/MOL
REMARK 927      BINDING AFFINITY PREDICTED BY RF-SCORE:    0.00 PKD
ROOT
HETATM    1  C   UNL     1      -7.301   7.814  71.943  1.00  0.00    -0.070 C  
HETATM    2  N   UNL     1      -8.575   7.228  71.488  1.00  0.00    -0.118 NA 
ENDROOT
BRANCH   2   3
HETATM    3  C   UNL     1      -8.567   5.743  71.688  1.00  0.00    -0.132 C  
HETATM    4  C   UNL     1     -11.243   5.066  72.861  1.00  0.00    -0.344 C  
HETATM    5  C   UNL     1      -9.672   4.998  70.898  1.00  0.00    -0.256 C  
HETATM    6  C   UNL     1      -8.745   5.323  73.170  1.00  0.00    -0.120 C  
HETATM    7  C   UNL     1     -10.130   5.675  73.713  1.00  0.00    -0.220 C  
HETATM    8  C   UNL     1     -11.071   5.380  71.378  1.00  0.00    -0.077 C  
ENDBRANCH   2   3
BRANCH   2   9
HETATM    9  C   UNL     1      -8.811   7.565  70.058  1.00  0.00    -0.144 C  
BRANCH   9  10
HETATM   10  C   UNL     1      -9.522   8.882  69.767  1.00  0.00    -0.174 A  
HETATM   11  C   UNL     1     -10.718  11.388  69.253  1.00  0.00    -0.195 A  
HETATM   12 BR   UNL     1      -8.869  12.134  67.221  1.00  0.00    -0.194 Br 
HETATM   13  C   UNL     1      -8.980   9.772  68.816  1.00  0.00    -0.133 A  
HETATM   14  C   UNL     1      -9.590  10.996  68.547  1.00  0.00    -0.187 A  
HETATM   15  C   UNL     1     -11.228  10.546  70.240  1.00  0.00    -0.313 A  
HETATM   16 BR   UNL     1     -12.746  11.157  71.217  1.00  0.00    -0.501 Br 
HETATM   17  C   UNL     1     -10.667   9.275  70.500  1.00  0.00    -0.257 A  
HETATM   18  N   UNL     1     -11.099   8.539  71.625  1.00  0.00    -0.269 NA 
HETATM   19  H1  UNL     1     -11.925   8.822  72.154  1.00  0.00     0.000 HD 
HETATM   20  H2  UNL     1     -10.317   8.467  72.275  1.00  0.00     0.000 HD 
ENDBRANCH   9  10
ENDBRANCH   2   9
TORSDOF 3
ENDMDL
MODEL      187
REMARK 921   NORMALIZED FREE ENERGY PREDICTED BY IDOCK:   -3.01 KCAL/MOL
REMARK 922        TOTAL FREE ENERGY PREDICTED BY IDOCK:   -4.16 KCAL/MOL
REMARK 923 INTER-LIGAND FREE ENERGY PREDICTED BY IDOCK:   -4.14 KCAL/MOL
REMARK 924 INTRA-LIGAND FREE ENERGY PREDICTED BY IDOCK:   -0.02 KCAL/MOL
REMARK 927      BINDING AFFINITY PREDICTED BY RF-SCORE:    0.00 PKD
ROOT
HETATM    1  C   UNL     1     -12.013  11.884  70.647  1.00  0.00    -0.191 C  
HETATM    2  N   UNL     1     -11.420  10.732  69.942  1.00  0.00    -0.294 NA 
ENDROOT
BRANCH   2   3
HETATM    3  C   UNL     1     -11.514  10.924  68.459  1.00  0.00    -0.310 C  
HETATM    4  C   UNL     1      -9.024  12.399  67.672  1.00  0.00    -0.183 C  
HETATM    5  C   UNL     1     -10.357  10.265  67.668  1.00  0.00    -0.264 C  
HETATM    6  C   UNL     1     -11.527  12.415  68.034  1.00  0.00    -0.377 C  
HETATM    7  C   UNL     1     -10.202  13.117  68.328  1.00  0.00    -0.250 C  
HETATM    8  C   UNL     1      -9.008  10.907  67.991  1.00  0.00    -0.145 C  
ENDBRANCH   2   3
BRANCH   2   9
HETATM    9  C   UNL     1     -12.101   9.474  70.355  1.00  0.00    -0.004 C  
BRANCH   9  10
HETATM   10  C   UNL     1     -11.219   8.251  70.574  1.00  0.00    -0.247 A  
HETATM   11  C   UNL     1      -9.666   5.914  70.891  1.00  0.00    -0.211 A  
HETATM   12 BR   UNL     1      -9.114   5.603  68.116  1.00  0.00    -0.115 Br 
HETATM   13  C   UNL     1     -10.670   7.578  69.461  1.00  0.00    -0.222 A  
HETATM   14  C   UNL     1      -9.882   6.441  69.626  1.00  0.00    -0.159 A  
HETATM   15  C   UNL     1     -10.254   6.532  71.994  1.00  0.00    -0.193 A  
HETATM   16 BR   UNL     1      -9.970   5.735  73.702  1.00  0.00    -0.212 Br 
HETATM   17  C   UNL     1     -11.013   7.718  71.869  1.00  0.00    -0.249 A  
HETATM   18  N   UNL     1     -11.737   8.203  72.979  1.00  0.00    -0.513 NA 
HETATM   19  H1  UNL     1     -11.589   7.818  73.913  1.00  0.00     0.000 HD 
HETATM   20  H2  UNL     1     -12.731   8.134  72.763  1.00  0.00     0.000 HD 
ENDBRANCH   9  10
ENDBRANCH   2   9
TORSDOF 3
ENDMDL
MODEL      188
REMARK 921   NORMALIZED FREE ENERGY PREDICTED BY IDOCK:   -3.00 KCAL/MOL
REMARK 922        TOTAL FREE ENERGY PREDICTED BY IDOCK:   -4.15 KCAL/MOL
REMARK 923 INTER-LIGAND FREE ENERGY PREDICTED BY IDOCK:   -3.77 KCAL/MOL
REMARK 924 INTRA-LIGAND FREE ENERGY PREDICTED BY IDOCK:   -0.39 KCAL/MOL
REMARK 927      BINDING AFFINITY PREDICTED BY RF-SCORE:    0.00 PKD
ROOT
HETATM    1  C   UNL     1     -11.278  12.604  65.905  1.00  0.00    -0.314 C  
HETATM    2  N   UNL     1     -10.132  13.001  66.744  1.00  0.00    -0.242 NA 
ENDROOT
BRANCH   2   3
HETATM    3  C   UNL     1      -9.761  14.428  66.478  1.00  0.00    -0.290 C  
HETATM    4  C   UNL     1     -10.505  15.936  68.961  1.00  0.00    -0.234 C  
HETATM    5  C   UNL     1      -8.713  14.997  67.467  1.00  0.00    -0.194 C  
HETATM    6  C   UNL     1     -10.970  15.396  66.535  1.00  0.00    -0.271 C  
HETATM    7  C   UNL     1     -11.559  15.513  67.940  1.00  0.00    -0.231 C  
HETATM    8  C   UNL     1      -9.254  15.065  68.894  1.00  0.00    -0.206 C  
ENDBRANCH   2   3
BRANCH   2   9
HETATM    9  C   UNL     1      -8.975  12.099  66.490  1.00  0.00    -0.179 C  
BRANCH   9  10
HETATM   10  C   UNL     1      -8.930  10.794  67.277  1.00  0.00    -0.143 A  
HETATM   11  C   UNL     1      -8.986   8.382  68.743  1.00  0.00    -0.140 A  
HETATM   12 BR   UNL     1     -10.742   7.040  66.948  1.00  0.00    -0.292 Br 
HETATM   13  C   UNL     1      -9.719   9.701  66.859  1.00  0.00    -0.240 A  
HETATM   14  C   UNL     1      -9.721   8.504  67.572  1.00  0.00    -0.162 A  
HETATM   15  C   UNL     1      -8.252   9.475  69.200  1.00  0.00    -0.111 A  
HETATM   16 BR   UNL     1      -7.305   9.272  70.842  1.00  0.00    -0.091 Br 
HETATM   17  C   UNL     1      -8.184  10.686  68.474  1.00  0.00    -0.128 A  
HETATM   18  N   UNL     1      -7.582  11.819  69.062  1.00  0.00    -0.299 NA 
HETATM   19  H1  UNL     1      -7.044  11.741  69.926  1.00  0.00     0.000 HD 
HETATM   20  H2  UNL     1      -8.306  12.524  69.204  1.00  0.00     0.000 HD 
ENDBRANCH   9  10
ENDBRANCH   2   9
TORSDOF 3
ENDMDL
MODEL      189
REMARK 921   NORMALIZED FREE ENERGY PREDICTED BY IDOCK:   -2.98 KCAL/MOL
REMARK 922        TOTAL FREE ENERGY PREDICTED BY IDOCK:   -4.13 KCAL/MOL
REMARK 923 INTER-LIGAND FREE ENERGY PREDICTED BY IDOCK:   -3.89 KCAL/MOL
REMARK 924 INTRA-LIGAND FREE ENERGY PREDICTED BY IDOCK:   -0.24 KCAL/MOL
REMARK 927      BINDING AFFINITY PREDICTED BY RF-SCORE:    0.00 PKD
ROOT
HETATM    1  C   UNL     1     -10.836  14.029  65.366  1.00  0.00    -0.328 C  
HETATM    2  N   UNL     1     -10.024  13.429  66.440  1.00  0.00    -0.287 NA 
ENDROOT
BRANCH   2   3
HETATM    3  C   UNL     1     -10.459  12.018  66.695  1.00  0.00    -0.215 C  
HETATM    4  C   UNL     1      -8.136  10.686  68.046  1.00  0.00    -0.112 C  
HETATM    5  C   UNL     1     -10.464  11.626  68.194  1.00  0.00    -0.217 C  
HETATM    6  C   UNL     1      -9.571  10.965  65.983  1.00  0.00    -0.248 C  
HETATM    7  C   UNL     1      -8.148  10.930  66.538  1.00  0.00    -0.154 C  
HETATM    8  C   UNL     1      -9.059  11.644  68.793  1.00  0.00    -0.029 C  
ENDBRANCH   2   3
BRANCH   2   9
HETATM    9  C   UNL     1     -10.132  14.246  67.680  1.00  0.00    -0.229 C  
BRANCH   9  10
HETATM   10  C   UNL     1      -9.242  15.480  67.774  1.00  0.00    -0.179 A  
HETATM   11  C   UNL     1      -7.532  17.708  68.059  1.00  0.00    -0.223 A  
HETATM   12 BR   UNL     1      -5.125  16.193  67.931  1.00  0.00    -0.143 Br 
HETATM   13  C   UNL     1      -7.840  15.327  67.821  1.00  0.00    -0.161 A  
HETATM   14  C   UNL     1      -7.000  16.432  67.934  1.00  0.00    -0.139 A  
HETATM   15  C   UNL     1      -8.916  17.868  68.076  1.00  0.00    -0.267 A  
HETATM   16 BR   UNL     1      -9.594  19.635  68.305  1.00  0.00    -0.492 Br 
HETATM   17  C   UNL     1      -9.797  16.775  67.909  1.00  0.00    -0.257 A  
HETATM   18  N   UNL     1     -11.181  16.956  68.116  1.00  0.00    -0.211 NA 
HETATM   19  H1  UNL     1     -11.581  17.890  68.214  1.00  0.00     0.000 HD 
HETATM   20  H2  UNL     1     -11.453  16.409  68.933  1.00  0.00     0.000 HD 
ENDBRANCH   9  10
ENDBRANCH   2   9
TORSDOF 3
ENDMDL
MODEL      190
REMARK 921   NORMALIZED FREE ENERGY PREDICTED BY IDOCK:   -2.98 KCAL/MOL
REMARK 922        TOTAL FREE ENERGY PREDICTED BY IDOCK:   -4.13 KCAL/MOL
REMARK 923 INTER-LIGAND FREE ENERGY PREDICTED BY IDOCK:   -4.00 KCAL/MOL
REMARK 924 INTRA-LIGAND FREE ENERGY PREDICTED BY IDOCK:   -0.13 KCAL/MOL
REMARK 927      BINDING AFFINITY PREDICTED BY RF-SCORE:    0.00 PKD
ROOT
HETATM    1  C   UNL     1      -9.209   7.085  72.596  1.00  0.00    -0.134 C  
HETATM    2  N   UNL     1     -10.060   5.897  72.396  1.00  0.00    -0.175 NA 
ENDROOT
BRANCH   2   3
HETATM    3  C   UNL     1      -9.225   4.718  71.998  1.00  0.00    -0.136 C  
HETATM    4  C   UNL     1      -9.520   2.728  74.222  1.00  0.00    -0.110 C  
HETATM    5  C   UNL     1     -10.029   3.402  71.853  1.00  0.00    -0.210 C  
HETATM    6  C   UNL     1      -8.082   4.412  73.000  1.00  0.00    -0.095 C  
HETATM    7  C   UNL     1      -8.605   3.944  74.357  1.00  0.00    -0.095 C  
HETATM    8  C   UNL     1     -10.619   2.944  73.186  1.00  0.00    -0.261 C  
ENDBRANCH   2   3
BRANCH   2   9
HETATM    9  C   UNL     1     -11.098   6.179  71.367  1.00  0.00    -0.288 C  
BRANCH   9  10
HETATM   10  C   UNL     1     -11.139   7.592  70.796  1.00  0.00    -0.276 A  
HETATM   11  C   UNL     1     -11.354  10.199  69.733  1.00  0.00    -0.312 A  
HETATM   12 BR   UNL     1     -13.119  11.148  71.756  1.00  0.00    -0.432 Br 
HETATM   13  C   UNL     1     -11.966   8.563  71.399  1.00  0.00    -0.345 A  
HETATM   14  C   UNL     1     -12.048   9.856  70.886  1.00  0.00    -0.341 A  
HETATM   15  C   UNL     1     -10.582   9.231  69.093  1.00  0.00    -0.212 A  
HETATM   16 BR   UNL     1      -9.695   9.740  67.484  1.00  0.00    -0.205 Br 
HETATM   17  C   UNL     1     -10.434   7.927  69.616  1.00  0.00    -0.226 A  
HETATM   18  N   UNL     1      -9.797   6.933  68.842  1.00  0.00    -0.146 NA 
HETATM   19  H1  UNL     1      -9.288   7.174  67.991  1.00  0.00     0.000 HD 
HETATM   20  H2  UNL     1     -10.490   6.223  68.606  1.00  0.00     0.000 HD 
ENDBRANCH   9  10
ENDBRANCH   2   9
TORSDOF 3
ENDMDL
MODEL      191
REMARK 921   NORMALIZED FREE ENERGY PREDICTED BY IDOCK:   -2.96 KCAL/MOL
REMARK 922        TOTAL FREE ENERGY PREDICTED BY IDOCK:   -4.11 KCAL/MOL
REMARK 923 INTER-LIGAND FREE ENERGY PREDICTED BY IDOCK:   -3.43 KCAL/MOL
REMARK 924 INTRA-LIGAND FREE ENERGY PREDICTED BY IDOCK:   -0.68 KCAL/MOL
REMARK 927      BINDING AFFINITY PREDICTED BY RF-SCORE:    0.00 PKD
ROOT
HETATM    1  C   UNL     1      -8.998   5.618  65.956  1.00  0.00    -0.154 C  
HETATM    2  N   UNL     1      -9.177   5.693  67.418  1.00  0.00    -0.110 NA 
ENDROOT
BRANCH   2   3
HETATM    3  C   UNL     1      -9.058   4.330  68.028  1.00  0.00    -0.131 C  
HETATM    4  C   UNL     1      -7.014   4.591  70.207  1.00  0.00    -0.044 C  
HETATM    5  C   UNL     1      -9.418   4.284  69.534  1.00  0.00    -0.257 C  
HETATM    6  C   UNL     1      -7.634   3.729  67.912  1.00  0.00    -0.066 C  
HETATM    7  C   UNL     1      -6.606   4.501  68.738  1.00  0.00    -0.045 C  
HETATM    8  C   UNL     1      -8.442   5.102  70.379  1.00  0.00    -0.112 C  
ENDBRANCH   2   3
BRANCH   2   9
HETATM    9  C   UNL     1     -10.497   6.301  67.741  1.00  0.00    -0.232 C  
BRANCH   9  10
HETATM   10  C   UNL     1     -10.483   7.594  68.548  1.00  0.00    -0.206 A  
HETATM   11  C   UNL     1     -10.318   9.974  70.059  1.00  0.00    -0.323 A  
HETATM   12 BR   UNL     1      -8.378  11.203  68.377  1.00  0.00    -0.155 Br 
HETATM   13  C   UNL     1      -9.594   8.630  68.190  1.00  0.00    -0.162 A  
HETATM   14  C   UNL     1      -9.537   9.813  68.923  1.00  0.00    -0.167 A  
HETATM   15  C   UNL     1     -11.155   8.934  70.459  1.00  0.00    -0.251 A  
HETATM   16 BR   UNL     1     -12.166   9.185  72.056  1.00  0.00    -0.424 Br 
HETATM   17  C   UNL     1     -11.278   7.743  69.709  1.00  0.00    -0.007 A  
HETATM   18  N   UNL     1     -11.993   6.650  70.247  1.00  0.00    -0.583 NA 
HETATM   19  H1  UNL     1     -12.567   6.757  71.084  1.00  0.00     0.000 HD 
HETATM   20  H2  UNL     1     -11.332   5.890  70.411  1.00  0.00     0.000 HD 
ENDBRANCH   9  10
ENDBRANCH   2   9
TORSDOF 3
ENDMDL
MODEL      192
REMARK 921   NORMALIZED FREE ENERGY PREDICTED BY IDOCK:   -2.96 KCAL/MOL
REMARK 922        TOTAL FREE ENERGY PREDICTED BY IDOCK:   -4.11 KCAL/MOL
REMARK 923 INTER-LIGAND FREE ENERGY PREDICTED BY IDOCK:   -5.38 KCAL/MOL
REMARK 924 INTRA-LIGAND FREE ENERGY PREDICTED BY IDOCK:    1.27 KCAL/MOL
REMARK 927      BINDING AFFINITY PREDICTED BY RF-SCORE:    0.00 PKD
ROOT
HETATM    1  C   UNL     1     -11.343  11.933  64.012  1.00  0.00    -0.397 C  
HETATM    2  N   UNL     1     -11.258  11.651  65.457  1.00  0.00    -0.253 NA 
ENDROOT
BRANCH   2   3
HETATM    3  C   UNL     1     -11.881  12.764  66.243  1.00  0.00    -0.423 C  
HETATM    4  C   UNL     1     -10.822  15.298  65.038  1.00  0.00    -0.457 C  
HETATM    5  C   UNL     1     -12.750  13.722  65.391  1.00  0.00    -0.513 C  
HETATM    6  C   UNL     1     -10.841  13.660  66.965  1.00  0.00    -0.291 C  
HETATM    7  C   UNL     1      -9.974  14.452  65.986  1.00  0.00    -0.337 C  
HETATM    8  C   UNL     1     -11.918  14.482  64.359  1.00  0.00    -0.467 C  
ENDBRANCH   2   3
BRANCH   2   9
HETATM    9  C   UNL     1      -9.838  11.454  65.857  1.00  0.00    -0.226 C  
BRANCH   9  10
HETATM   10  C   UNL     1      -9.329  10.019  65.916  1.00  0.00    -0.236 A  
HETATM   11  C   UNL     1      -8.411   7.360  66.162  1.00  0.00    -0.147 A  
HETATM   12 BR   UNL     1     -10.806   6.379  67.349  1.00  0.00    -0.480 Br 
HETATM   13  C   UNL     1     -10.128   9.019  66.509  1.00  0.00    -0.354 A  
HETATM   14  C   UNL     1      -9.681   7.703  66.604  1.00  0.00    -0.213 A  
HETATM   15  C   UNL     1      -7.587   8.350  65.630  1.00  0.00    -0.089 A  
HETATM   16 BR   UNL     1      -5.833   7.835  65.089  1.00  0.00    -0.038 Br 
HETATM   17  C   UNL     1      -8.029   9.683  65.470  1.00  0.00    -0.115 A  
HETATM   18  N   UNL     1      -7.104  10.684  65.100  1.00  0.00    -0.345 NA 
HETATM   19  H1  UNL     1      -6.167  10.442  64.778  1.00  0.00     0.000 HD 
HETATM   20  H2  UNL     1      -7.013  11.334  65.881  1.00  0.00     0.000 HD 
ENDBRANCH   9  10
ENDBRANCH   2   9
TORSDOF 3
ENDMDL
MODEL      193
REMARK 921   NORMALIZED FREE ENERGY PREDICTED BY IDOCK:   -2.95 KCAL/MOL
REMARK 922        TOTAL FREE ENERGY PREDICTED BY IDOCK:   -4.10 KCAL/MOL
REMARK 923 INTER-LIGAND FREE ENERGY PREDICTED BY IDOCK:   -3.55 KCAL/MOL
REMARK 924 INTRA-LIGAND FREE ENERGY PREDICTED BY IDOCK:   -0.55 KCAL/MOL
REMARK 927      BINDING AFFINITY PREDICTED BY RF-SCORE:    0.00 PKD
ROOT
HETATM    1  C   UNL     1      -7.343  12.302  67.740  1.00  0.00    -0.118 C  
HETATM    2  N   UNL     1      -8.515  11.477  68.088  1.00  0.00    -0.147 NA 
ENDROOT
BRANCH   2   3
HETATM    3  C   UNL     1      -9.682  12.351  68.434  1.00  0.00    -0.189 C  
HETATM    4  C   UNL     1     -11.486  12.279  66.039  1.00  0.00    -0.434 C  
HETATM    5  C   UNL     1     -11.042  11.610  68.422  1.00  0.00    -0.285 C  
HETATM    6  C   UNL     1      -9.847  13.560  67.477  1.00  0.00    -0.227 C  
HETATM    7  C   UNL     1     -10.220  13.135  66.058  1.00  0.00    -0.287 C  
HETATM    8  C   UNL     1     -11.412  11.117  67.024  1.00  0.00    -0.109 C  
ENDBRANCH   2   3
BRANCH   2   9
HETATM    9  C   UNL     1      -8.183  10.569  69.219  1.00  0.00    -0.145 C  
BRANCH   9  10
HETATM   10  C   UNL     1      -8.619   9.114  69.089  1.00  0.00    -0.133 A  
HETATM   11  C   UNL     1      -9.501   6.456  68.732  1.00  0.00    -0.127 A  
HETATM   12 BR   UNL     1      -8.518   6.222  66.071  1.00  0.00    -0.147 Br 
HETATM   13  C   UNL     1      -8.431   8.437  67.865  1.00  0.00    -0.131 A  
HETATM   14  C   UNL     1      -8.844   7.116  67.704  1.00  0.00    -0.119 A  
HETATM   15  C   UNL     1      -9.749   7.134  69.925  1.00  0.00    -0.170 A  
HETATM   16 BR   UNL     1     -10.704   6.199  71.284  1.00  0.00    -0.324 Br 
HETATM   17  C   UNL     1      -9.297   8.455  70.141  1.00  0.00    -0.163 A  
HETATM   18  N   UNL     1      -9.727   9.161  71.285  1.00  0.00    -0.294 NA 
HETATM   19  H1  UNL     1     -10.216   8.686  72.045  1.00  0.00     0.000 HD 
HETATM   20  H2  UNL     1     -10.308   9.941  70.976  1.00  0.00     0.000 HD 
ENDBRANCH   9  10
ENDBRANCH   2   9
TORSDOF 3
ENDMDL
MODEL      194
REMARK 921   NORMALIZED FREE ENERGY PREDICTED BY IDOCK:   -2.95 KCAL/MOL
REMARK 922        TOTAL FREE ENERGY PREDICTED BY IDOCK:   -4.09 KCAL/MOL
REMARK 923 INTER-LIGAND FREE ENERGY PREDICTED BY IDOCK:   -3.79 KCAL/MOL
REMARK 924 INTRA-LIGAND FREE ENERGY PREDICTED BY IDOCK:   -0.30 KCAL/MOL
REMARK 927      BINDING AFFINITY PREDICTED BY RF-SCORE:    0.00 PKD
ROOT
HETATM    1  C   UNL     1     -13.264  10.370  70.657  1.00  0.00    -0.127 C  
HETATM    2  N   UNL     1     -11.980  10.010  70.028  1.00  0.00    -0.136 NA 
ENDROOT
BRANCH   2   3
HETATM    3  C   UNL     1     -11.333   8.882  70.772  1.00  0.00    -0.278 C  
HETATM    4  C   UNL     1      -9.638   7.446  68.757  1.00  0.00    -0.147 C  
HETATM    5  C   UNL     1      -9.785   8.940  70.775  1.00  0.00    -0.281 C  
HETATM    6  C   UNL     1     -11.706   7.485  70.212  1.00  0.00    -0.047 C  
HETATM    7  C   UNL     1     -11.153   7.253  68.807  1.00  0.00     0.048 C  
HETATM    8  C   UNL     1      -9.205   8.775  69.371  1.00  0.00    -0.146 C  
ENDBRANCH   2   3
BRANCH   2   9
HETATM    9  C   UNL     1     -11.082  11.196  69.985  1.00  0.00    -0.098 C  
BRANCH   9  10
HETATM   10  C   UNL     1     -11.300  12.187  68.847  1.00  0.00    -0.335 A  
HETATM   11  C   UNL     1     -11.606  13.956  66.668  1.00  0.00    -0.392 A  
HETATM   12 BR   UNL     1     -12.127  11.910  64.758  1.00  0.00    -0.061 Br 
HETATM   13  C   UNL     1     -11.552  11.708  67.544  1.00  0.00    -0.345 A  
HETATM   14  C   UNL     1     -11.729  12.587  66.477  1.00  0.00    -0.391 A  
HETATM   15  C   UNL     1     -11.295  14.440  67.937  1.00  0.00    -0.301 A  
HETATM   16 BR   UNL     1     -11.083  16.324  68.132  1.00  0.00    -0.292 Br 
HETATM   17  C   UNL     1     -11.163  13.580  69.052  1.00  0.00    -0.269 A  
HETATM   18  N   UNL     1     -10.670  14.092  70.272  1.00  0.00    -0.193 NA 
HETATM   19  H1  UNL     1     -10.571  15.097  70.420  1.00  0.00     0.000 HD 
HETATM   20  H2  UNL     1      -9.767  13.655  70.457  1.00  0.00     0.000 HD 
ENDBRANCH   9  10
ENDBRANCH   2   9
TORSDOF 3
ENDMDL
MODEL      195
REMARK 921   NORMALIZED FREE ENERGY PREDICTED BY IDOCK:   -2.90 KCAL/MOL
REMARK 922        TOTAL FREE ENERGY PREDICTED BY IDOCK:   -4.03 KCAL/MOL
REMARK 923 INTER-LIGAND FREE ENERGY PREDICTED BY IDOCK:   -4.21 KCAL/MOL
REMARK 924 INTRA-LIGAND FREE ENERGY PREDICTED BY IDOCK:    0.18 KCAL/MOL
REMARK 927      BINDING AFFINITY PREDICTED BY RF-SCORE:    0.00 PKD
ROOT
HETATM    1  C   UNL     1      -9.362  12.246  66.311  1.00  0.00    -0.206 C  
HETATM    2  N   UNL     1     -10.373  13.268  66.640  1.00  0.00    -0.270 NA 
ENDROOT
BRANCH   2   3
HETATM    3  C   UNL     1      -9.874  14.161  67.734  1.00  0.00    -0.231 C  
HETATM    4  C   UNL     1      -8.932  16.662  66.371  1.00  0.00    -0.326 C  
HETATM    5  C   UNL     1     -10.626  15.512  67.832  1.00  0.00    -0.274 C  
HETATM    6  C   UNL     1      -8.372  14.520  67.594  1.00  0.00    -0.188 C  
HETATM    7  C   UNL     1      -8.091  15.387  66.367  1.00  0.00     0.139 C  
HETATM    8  C   UNL     1     -10.415  16.374  66.589  1.00  0.00    -0.274 C  
ENDBRANCH   2   3
BRANCH   2   9
HETATM    9  C   UNL     1     -11.650  12.613  67.037  1.00  0.00    -0.365 C  
BRANCH   9  10
HETATM   10  C   UNL     1     -11.731  12.059  68.455  1.00  0.00    -0.390 A  
HETATM   11  C   UNL     1     -11.950  10.920  71.029  1.00  0.00    -0.375 A  
HETATM   12 BR   UNL     1     -10.724   8.452  70.315  1.00  0.00    -0.247 Br 
HETATM   13  C   UNL     1     -11.293  10.743  68.714  1.00  0.00    -0.352 A  
HETATM   14  C   UNL     1     -11.379  10.196  69.993  1.00  0.00    -0.287 A  
HETATM   15  C   UNL     1     -12.444  12.198  70.772  1.00  0.00    -0.271 A  
HETATM   16 BR   UNL     1     -13.268  13.128  72.218  1.00  0.00    -0.499 Br 
HETATM   17  C   UNL     1     -12.324  12.804  69.501  1.00  0.00     0.040 A  
HETATM   18  N   UNL     1     -12.997  14.017  69.240  1.00  0.00     0.169 NA 
HETATM   19  H1  UNL     1     -13.425  14.555  69.995  1.00  0.00     0.000 HD 
HETATM   20  H2  UNL     1     -13.712  13.837  68.535  1.00  0.00     0.000 HD 
ENDBRANCH   9  10
ENDBRANCH   2   9
TORSDOF 3
ENDMDL
MODEL      196
REMARK 921   NORMALIZED FREE ENERGY PREDICTED BY IDOCK:   -2.89 KCAL/MOL
REMARK 922        TOTAL FREE ENERGY PREDICTED BY IDOCK:   -4.03 KCAL/MOL
REMARK 923 INTER-LIGAND FREE ENERGY PREDICTED BY IDOCK:   -4.07 KCAL/MOL
REMARK 924 INTRA-LIGAND FREE ENERGY PREDICTED BY IDOCK:    0.04 KCAL/MOL
REMARK 927      BINDING AFFINITY PREDICTED BY RF-SCORE:    0.00 PKD
ROOT
HETATM    1  C   UNL     1     -11.120   6.349  67.591  1.00  0.00    -0.289 C  
HETATM    2  N   UNL     1      -9.655   6.512  67.555  1.00  0.00    -0.123 NA 
ENDROOT
BRANCH   2   3
HETATM    3  C   UNL     1      -8.983   5.173  67.522  1.00  0.00    -0.109 C  
HETATM    4  C   UNL     1      -8.417   4.619  64.629  1.00  0.00    -0.135 C  
HETATM    5  C   UNL     1      -7.556   5.203  66.920  1.00  0.00    -0.088 C  
HETATM    6  C   UNL     1      -9.768   4.113  66.707  1.00  0.00    -0.234 C  
HETATM    7  C   UNL     1      -9.817   4.444  65.215  1.00  0.00    -0.209 C  
HETATM    8  C   UNL     1      -7.569   5.593  65.443  1.00  0.00    -0.083 C  
ENDBRANCH   2   3
BRANCH   2   9
HETATM    9  C   UNL     1      -9.199   7.301  68.731  1.00  0.00    -0.137 C  
BRANCH   9  10
HETATM   10  C   UNL     1     -10.146   7.373  69.924  1.00  0.00    -0.195 A  
HETATM   11  C   UNL     1     -11.832   7.621  72.175  1.00  0.00    -0.352 A  
HETATM   12 BR   UNL     1     -12.673  10.271  71.566  1.00  0.00    -0.588 Br 
HETATM   13  C   UNL     1     -10.849   8.568  70.185  1.00  0.00    -0.238 A  
HETATM   14  C   UNL     1     -11.701   8.675  71.283  1.00  0.00    -0.289 A  
HETATM   15  C   UNL     1     -11.095   6.456  71.963  1.00  0.00    -0.265 A  
HETATM   16 BR   UNL     1     -11.271   5.060  73.249  1.00  0.00    -0.389 Br 
HETATM   17  C   UNL     1     -10.264   6.294  70.832  1.00  0.00    -0.193 A  
HETATM   18  N   UNL     1      -9.401   5.179  70.754  1.00  0.00    -0.154 NA 
HETATM   19  H1  UNL     1      -9.487   4.401  71.409  1.00  0.00     0.000 HD 
HETATM   20  H2  UNL     1      -8.441   5.520  70.792  1.00  0.00     0.000 HD 
ENDBRANCH   9  10
ENDBRANCH   2   9
TORSDOF 3
ENDMDL
MODEL      197
REMARK 921   NORMALIZED FREE ENERGY PREDICTED BY IDOCK:   -2.85 KCAL/MOL
REMARK 922        TOTAL FREE ENERGY PREDICTED BY IDOCK:   -3.98 KCAL/MOL
REMARK 923 INTER-LIGAND FREE ENERGY PREDICTED BY IDOCK:   -3.53 KCAL/MOL
REMARK 924 INTRA-LIGAND FREE ENERGY PREDICTED BY IDOCK:   -0.45 KCAL/MOL
REMARK 927      BINDING AFFINITY PREDICTED BY RF-SCORE:    0.00 PKD
ROOT
HETATM    1  C   UNL     1      -8.002   8.227  72.622  1.00  0.00    -0.137 C  
HETATM    2  N   UNL     1      -8.504   7.096  71.820  1.00  0.00    -0.113 NA 
ENDROOT
BRANCH   2   3
HETATM    3  C   UNL     1      -8.332   5.809  72.568  1.00  0.00    -0.117 C  
HETATM    4  C   UNL     1     -11.077   5.041  73.502  1.00  0.00    -0.386 C  
HETATM    5  C   UNL     1      -9.129   4.624  71.967  1.00  0.00    -0.155 C  
HETATM    6  C   UNL     1      -8.764   5.903  74.054  1.00  0.00    -0.119 C  
HETATM    7  C   UNL     1     -10.268   6.125  74.212  1.00  0.00    -0.326 C  
HETATM    8  C   UNL     1     -10.638   4.849  72.053  1.00  0.00    -0.210 C  
ENDBRANCH   2   3
BRANCH   2   9
HETATM    9  C   UNL     1      -7.796   7.043  70.511  1.00  0.00    -0.101 C  
BRANCH   9  10
HETATM   10  C   UNL     1      -8.650   7.195  69.257  1.00  0.00    -0.137 A  
HETATM   11  C   UNL     1     -10.335   7.523  67.016  1.00  0.00    -0.395 A  
HETATM   12 BR   UNL     1     -10.878  10.273  67.512  1.00  0.00    -0.340 Br 
HETATM   13  C   UNL     1      -9.285   8.426  68.992  1.00  0.00    -0.147 A  
HETATM   14  C   UNL     1     -10.094   8.590  67.869  1.00  0.00    -0.207 A  
HETATM   15  C   UNL     1      -9.764   6.284  67.301  1.00  0.00    -0.129 A  
HETATM   16 BR   UNL     1     -10.173   4.838  66.127  1.00  0.00    -0.322 Br 
HETATM   17  C   UNL     1      -8.896   6.096  68.400  1.00  0.00    -0.113 A  
HETATM   18  N   UNL     1      -8.490   4.791  68.754  1.00  0.00    -0.082 NA 
HETATM   19  H1  UNL     1      -8.667   3.999  68.135  1.00  0.00     0.000 HD 
HETATM   20  H2  UNL     1      -8.887   4.574  69.668  1.00  0.00     0.000 HD 
ENDBRANCH   9  10
ENDBRANCH   2   9
TORSDOF 3
ENDMDL
MODEL      198
REMARK 921   NORMALIZED FREE ENERGY PREDICTED BY IDOCK:   -2.79 KCAL/MOL
REMARK 922        TOTAL FREE ENERGY PREDICTED BY IDOCK:   -3.91 KCAL/MOL
REMARK 923 INTER-LIGAND FREE ENERGY PREDICTED BY IDOCK:   -3.59 KCAL/MOL
REMARK 924 INTRA-LIGAND FREE ENERGY PREDICTED BY IDOCK:   -0.31 KCAL/MOL
REMARK 927      BINDING AFFINITY PREDICTED BY RF-SCORE:    0.00 PKD
ROOT
HETATM    1  C   UNL     1     -10.746  15.707  66.142  1.00  0.00    -0.303 C  
HETATM    2  N   UNL     1      -9.594  16.262  66.875  1.00  0.00    -0.226 NA 
ENDROOT
BRANCH   2   3
HETATM    3  C   UNL     1      -9.571  15.742  68.280  1.00  0.00    -0.201 C  
HETATM    4  C   UNL     1      -7.466  13.607  68.321  1.00  0.00    -0.124 C  
HETATM    5  C   UNL     1      -8.206  15.915  68.990  1.00  0.00    -0.234 C  
HETATM    6  C   UNL     1      -9.915  14.233  68.380  1.00  0.00    -0.240 C  
HETATM    7  C   UNL     1      -8.852  13.348  67.732  1.00  0.00    -0.199 C  
HETATM    8  C   UNL     1      -7.107  15.090  68.323  1.00  0.00    -0.115 C  
ENDBRANCH   2   3
BRANCH   2   9
HETATM    9  C   UNL     1      -9.649  17.750  66.865  1.00  0.00    -0.288 C  
BRANCH   9  10
HETATM   10  C   UNL     1      -8.323  18.490  66.736  1.00  0.00    -0.279 A  
HETATM   11  C   UNL     1      -5.806  19.739  66.461  1.00  0.00    -0.174 A  
HETATM   12 BR   UNL     1      -5.376  18.849  63.791  1.00  0.00    -0.170 Br 
HETATM   13  C   UNL     1      -7.564  18.358  65.553  1.00  0.00     0.276 A  
HETATM   14  C   UNL     1      -6.335  18.999  65.413  1.00  0.00    -0.277 A  
HETATM   15  C   UNL     1      -6.516  19.826  67.657  1.00  0.00    -0.218 A  
HETATM   16 BR   UNL     1      -5.719  20.809  69.083  1.00  0.00    -0.356 Br 
HETATM   17  C   UNL     1      -7.790  19.234  67.814  1.00  0.00    -0.275 A  
HETATM   18  N   UNL     1      -8.387  19.192  69.093  1.00  0.00    -0.192 NA 
HETATM   19  H1  UNL     1      -8.002  19.729  69.871  1.00  0.00     0.000 HD 
HETATM   20  H2  UNL     1      -8.447  18.216  69.382  1.00  0.00     0.000 HD 
ENDBRANCH   9  10
ENDBRANCH   2   9
TORSDOF 3
ENDMDL
MODEL      199
REMARK 921   NORMALIZED FREE ENERGY PREDICTED BY IDOCK:   -2.77 KCAL/MOL
REMARK 922        TOTAL FREE ENERGY PREDICTED BY IDOCK:   -3.89 KCAL/MOL
REMARK 923 INTER-LIGAND FREE ENERGY PREDICTED BY IDOCK:   -3.72 KCAL/MOL
REMARK 924 INTRA-LIGAND FREE ENERGY PREDICTED BY IDOCK:   -0.17 KCAL/MOL
REMARK 927      BINDING AFFINITY PREDICTED BY RF-SCORE:    0.00 PKD
ROOT
HETATM    1  C   UNL     1      -7.697   7.307  68.863  1.00  0.00    -0.116 C  
HETATM    2  N   UNL     1      -8.479   6.131  68.439  1.00  0.00    -0.114 NA 
ENDROOT
BRANCH   2   3
HETATM    3  C   UNL     1      -9.311   6.464  67.238  1.00  0.00    -0.119 C  
HETATM    4  C   UNL     1      -8.401   4.594  65.077  1.00  0.00    -0.127 C  
HETATM    5  C   UNL     1     -10.172   5.282  66.725  1.00  0.00    -0.287 C  
HETATM    6  C   UNL     1      -8.472   6.938  66.024  1.00  0.00    -0.140 C  
HETATM    7  C   UNL     1      -7.586   5.829  65.458  1.00  0.00    -0.083 C  
HETATM    8  C   UNL     1      -9.310   4.130  66.211  1.00  0.00    -0.173 C  
ENDBRANCH   2   3
BRANCH   2   9
HETATM    9  C   UNL     1      -9.337   5.656  69.559  1.00  0.00    -0.133 C  
BRANCH   9  10
HETATM   10  C   UNL     1      -9.644   6.658  70.666  1.00  0.00    -0.177 A  
HETATM   11  C   UNL     1     -10.203   8.409  72.810  1.00  0.00    -0.254 A  
HETATM   12 BR   UNL     1      -7.849   7.765  74.277  1.00  0.00    -0.260 Br 
HETATM   13  C   UNL     1      -8.787   6.746  71.784  1.00  0.00    -0.128 A  
HETATM   14  C   UNL     1      -9.053   7.631  72.826  1.00  0.00    -0.165 A  
HETATM   15  C   UNL     1     -11.090   8.287  71.741  1.00  0.00    -0.278 A  
HETATM   16 BR   UNL     1     -12.679   9.338  71.796  1.00  0.00    -0.498 Br 
HETATM   17  C   UNL     1     -10.823   7.439  70.642  1.00  0.00    -0.242 A  
HETATM   18  N   UNL     1     -11.829   7.210  69.679  1.00  0.00    -0.422 NA 
HETATM   19  H1  UNL     1     -12.680   7.774  69.661  1.00  0.00     0.000 HD 
HETATM   20  H2  UNL     1     -12.101   6.229  69.732  1.00  0.00     0.000 HD 
ENDBRANCH   9  10
ENDBRANCH   2   9
TORSDOF 3
ENDMDL
MODEL      200
REMARK 921   NORMALIZED FREE ENERGY PREDICTED BY IDOCK:   -2.76 KCAL/MOL
REMARK 922        TOTAL FREE ENERGY PREDICTED BY IDOCK:   -3.87 KCAL/MOL
REMARK 923 INTER-LIGAND FREE ENERGY PREDICTED BY IDOCK:   -3.12 KCAL/MOL
REMARK 924 INTRA-LIGAND FREE ENERGY PREDICTED BY IDOCK:   -0.75 KCAL/MOL
REMARK 927      BINDING AFFINITY PREDICTED BY RF-SCORE:    0.00 PKD
ROOT
HETATM    1  C   UNL     1      -9.799   4.341  65.776  1.00  0.00    -0.223 C  
HETATM    2  N   UNL     1      -9.694   5.281  66.907  1.00  0.00    -0.143 NA 
ENDROOT
BRANCH   2   3
HETATM    3  C   UNL     1      -9.714   4.537  68.207  1.00  0.00    -0.123 C  
HETATM    4  C   UNL     1      -7.160   5.267  69.599  1.00  0.00    -0.059 C  
HETATM    5  C   UNL     1      -9.664   5.454  69.454  1.00  0.00    -0.226 C  
HETATM    6  C   UNL     1      -8.535   3.542  68.361  1.00  0.00    -0.107 C  
HETATM    7  C   UNL     1      -7.184   4.250  68.459  1.00  0.00    -0.056 C  
HETATM    8  C   UNL     1      -8.347   6.224  69.543  1.00  0.00    -0.118 C  
ENDBRANCH   2   3
BRANCH   2   9
HETATM    9  C   UNL     1     -10.802   6.273  66.851  1.00  0.00    -0.354 C  
BRANCH   9  10
HETATM   10  C   UNL     1     -10.418   7.745  66.958  1.00  0.00    -0.419 A  
HETATM   11  C   UNL     1      -9.842  10.503  67.135  1.00  0.00    -0.213 A  
HETATM   12 BR   UNL     1     -11.742  11.024  69.190  1.00  0.00    -0.421 Br 
HETATM   13  C   UNL     1     -11.124   8.586  67.845  1.00  0.00     0.307 A  
HETATM   14  C   UNL     1     -10.817   9.942  67.947  1.00  0.00    -0.258 A  
HETATM   15  C   UNL     1      -9.181   9.696  66.211  1.00  0.00    -0.168 A  
HETATM   16 BR   UNL     1      -7.890  10.530  65.082  1.00  0.00    -0.017 Br 
HETATM   17  C   UNL     1      -9.429   8.308  66.118  1.00  0.00    -0.171 A  
HETATM   18  N   UNL     1      -8.874   7.569  65.051  1.00  0.00    -0.348 NA 
HETATM   19  H1  UNL     1      -8.160   7.975  64.445  1.00  0.00     0.000 HD 
HETATM   20  H2  UNL     1      -9.639   7.241  64.462  1.00  0.00     0.000 HD 
ENDBRANCH   9  10
ENDBRANCH   2   9
TORSDOF 3
ENDMDL
MODEL      201
REMARK 921   NORMALIZED FREE ENERGY PREDICTED BY IDOCK:   -2.75 KCAL/MOL
REMARK 922        TOTAL FREE ENERGY PREDICTED BY IDOCK:   -3.87 KCAL/MOL
REMARK 923 INTER-LIGAND FREE ENERGY PREDICTED BY IDOCK:   -5.07 KCAL/MOL
REMARK 924 INTRA-LIGAND FREE ENERGY PREDICTED BY IDOCK:    1.20 KCAL/MOL
REMARK 927      BINDING AFFINITY PREDICTED BY RF-SCORE:    0.00 PKD
ROOT
HETATM    1  C   UNL     1      -9.315  11.213  68.228  1.00  0.00    -0.176 C  
HETATM    2  N   UNL     1     -10.523  11.257  69.072  1.00  0.00    -0.212 NA 
ENDROOT
BRANCH   2   3
HETATM    3  C   UNL     1     -11.084   9.879  69.252  1.00  0.00    -0.181 C  
HETATM    4  C   UNL     1      -9.099   8.412  70.955  1.00  0.00    -0.201 C  
HETATM    5  C   UNL     1     -11.355   9.502  70.729  1.00  0.00    -0.387 C  
HETATM    6  C   UNL     1     -10.164   8.766  68.689  1.00  0.00    -0.214 C  
HETATM    7  C   UNL     1      -8.853   8.644  69.465  1.00  0.00    -0.144 C  
HETATM    8  C   UNL     1     -10.065   9.435  71.547  1.00  0.00    -0.183 C  
ENDBRANCH   2   3
BRANCH   2   9
HETATM    9  C   UNL     1     -11.537  12.163  68.466  1.00  0.00    -0.315 C  
BRANCH   9  10
HETATM   10  C   UNL     1     -11.275  12.637  67.040  1.00  0.00    -0.348 A  
HETATM   11  C   UNL     1     -10.663  13.458  64.409  1.00  0.00    -0.423 A  
HETATM   12 BR   UNL     1     -10.000  10.850  63.482  1.00  0.00    -0.422 Br 
HETATM   13  C   UNL     1     -10.821  11.717  66.072  1.00  0.00    -0.339 A  
HETATM   14  C   UNL     1     -10.546  12.123  64.768  1.00  0.00    -0.296 A  
HETATM   15  C   UNL     1     -11.050  14.388  65.372  1.00  0.00    -0.331 A  
HETATM   16 BR   UNL     1     -11.141  16.217  64.841  1.00  0.00    -0.223 Br 
HETATM   17  C   UNL     1     -11.389  14.003  66.690  1.00  0.00    -0.335 A  
HETATM   18  N   UNL     1     -11.597  14.993  67.674  1.00  0.00    -0.336 NA 
HETATM   19  H1  UNL     1     -11.679  15.978  67.421  1.00  0.00     0.000 HD 
HETATM   20  H2  UNL     1     -10.857  14.906  68.371  1.00  0.00     0.000 HD 
ENDBRANCH   9  10
ENDBRANCH   2   9
TORSDOF 3
ENDMDL
MODEL      202
REMARK 921   NORMALIZED FREE ENERGY PREDICTED BY IDOCK:   -2.74 KCAL/MOL
REMARK 922        TOTAL FREE ENERGY PREDICTED BY IDOCK:   -3.85 KCAL/MOL
REMARK 923 INTER-LIGAND FREE ENERGY PREDICTED BY IDOCK:   -3.21 KCAL/MOL
REMARK 924 INTRA-LIGAND FREE ENERGY PREDICTED BY IDOCK:   -0.65 KCAL/MOL
REMARK 927      BINDING AFFINITY PREDICTED BY RF-SCORE:    0.00 PKD
ROOT
HETATM    1  C   UNL     1      -9.009   5.350  65.616  1.00  0.00    -0.156 C  
HETATM    2  N   UNL     1      -9.104   5.063  67.059  1.00  0.00    -0.115 NA 
ENDROOT
BRANCH   2   3
HETATM    3  C   UNL     1      -9.428   3.617  67.283  1.00  0.00    -0.196 C  
HETATM    4  C   UNL     1      -6.996   2.432  68.578  1.00  0.00    -0.044 C  
HETATM    5  C   UNL     1      -9.386   3.190  68.771  1.00  0.00    -0.231 C  
HETATM    6  C   UNL     1      -8.471   2.653  66.536  1.00  0.00    -0.104 C  
HETATM    7  C   UNL     1      -7.043   2.712  67.076  1.00  0.00    -0.049 C  
HETATM    8  C   UNL     1      -7.980   3.299  69.358  1.00  0.00    -0.058 C  
ENDBRANCH   2   3
BRANCH   2   9
HETATM    9  C   UNL     1     -10.132   5.936  67.688  1.00  0.00    -0.163 C  
BRANCH   9  10
HETATM   10  C   UNL     1      -9.716   6.704  68.938  1.00  0.00    -0.136 A  
HETATM   11  C   UNL     1      -8.861   8.020  71.285  1.00  0.00    -0.163 A  
HETATM   12 BR   UNL     1      -6.091   7.916  70.634  1.00  0.00    -0.033 Br 
HETATM   13  C   UNL     1      -8.346   6.919  69.200  1.00  0.00    -0.125 A  
HETATM   14  C   UNL     1      -7.931   7.593  70.347  1.00  0.00    -0.097 A  
HETATM   15  C   UNL     1     -10.213   7.759  71.069  1.00  0.00    -0.197 A  
HETATM   16 BR   UNL     1     -11.442   8.318  72.415  1.00  0.00    -0.454 Br 
HETATM   17  C   UNL     1     -10.672   7.127  69.891  1.00  0.00    -0.239 A  
HETATM   18  N   UNL     1     -12.021   6.721  69.798  1.00  0.00    -0.647 NA 
HETATM   19  H1  UNL     1     -12.711   7.025  70.486  1.00  0.00     0.000 HD 
HETATM   20  H2  UNL     1     -12.043   5.702  69.759  1.00  0.00     0.000 HD 
ENDBRANCH   9  10
ENDBRANCH   2   9
TORSDOF 3
ENDMDL
MODEL      203
REMARK 921   NORMALIZED FREE ENERGY PREDICTED BY IDOCK:   -2.73 KCAL/MOL
REMARK 922        TOTAL FREE ENERGY PREDICTED BY IDOCK:   -3.84 KCAL/MOL
REMARK 923 INTER-LIGAND FREE ENERGY PREDICTED BY IDOCK:   -3.97 KCAL/MOL
REMARK 924 INTRA-LIGAND FREE ENERGY PREDICTED BY IDOCK:    0.13 KCAL/MOL
REMARK 927      BINDING AFFINITY PREDICTED BY RF-SCORE:    0.00 PKD
ROOT
HETATM    1  C   UNL     1     -12.631  10.886  70.174  1.00  0.00    -0.234 C  
HETATM    2  N   UNL     1     -11.892   9.726  70.705  1.00  0.00    -0.302 NA 
ENDROOT
BRANCH   2   3
HETATM    3  C   UNL     1     -12.430   9.335  72.048  1.00  0.00    -0.378 C  
HETATM    4  C   UNL     1     -13.700   6.646  71.660  1.00  0.00    -0.033 C  
HETATM    5  C   UNL     1     -11.823   8.025  72.609  1.00  0.00    -0.380 C  
HETATM    6  C   UNL     1     -13.967   9.129  72.055  1.00  0.00    -0.434 C  
HETATM    7  C   UNL     1     -14.399   7.929  71.214  1.00  0.00    -0.407 C  
HETATM    8  C   UNL     1     -12.186   6.814  71.750  1.00  0.00    -0.402 C  
ENDBRANCH   2   3
BRANCH   2   9
HETATM    9  C   UNL     1     -10.440  10.041  70.792  1.00  0.00    -0.064 C  
BRANCH   9  10
HETATM   10  C   UNL     1      -9.668  10.107  69.479  1.00  0.00    -0.251 A  
HETATM   11  C   UNL     1      -8.120  10.202  67.119  1.00  0.00    -0.120 A  
HETATM   12 BR   UNL     1      -7.006   7.603  67.447  1.00  0.00    -0.086 Br 
HETATM   13  C   UNL     1      -8.821   9.039  69.114  1.00  0.00    -0.142 A  
HETATM   14  C   UNL     1      -8.080   9.080  67.934  1.00  0.00    -0.106 A  
HETATM   15  C   UNL     1      -8.904  11.290  67.500  1.00  0.00    -0.140 A  
HETATM   16 BR   UNL     1      -8.879  12.828  66.373  1.00  0.00     0.133 Br 
HETATM   17  C   UNL     1      -9.709  11.261  68.661  1.00  0.00    -0.195 A  
HETATM   18  N   UNL     1     -10.339  12.444  69.103  1.00  0.00    -0.424 NA 
HETATM   19  H1  UNL     1     -10.370  13.277  68.513  1.00  0.00     0.000 HD 
HETATM   20  H2  UNL     1      -9.928  12.707  69.998  1.00  0.00     0.000 HD 
ENDBRANCH   9  10
ENDBRANCH   2   9
TORSDOF 3
ENDMDL
MODEL      204
REMARK 921   NORMALIZED FREE ENERGY PREDICTED BY IDOCK:   -2.70 KCAL/MOL
REMARK 922        TOTAL FREE ENERGY PREDICTED BY IDOCK:   -3.80 KCAL/MOL
REMARK 923 INTER-LIGAND FREE ENERGY PREDICTED BY IDOCK:   -4.76 KCAL/MOL
REMARK 924 INTRA-LIGAND FREE ENERGY PREDICTED BY IDOCK:    0.96 KCAL/MOL
REMARK 927      BINDING AFFINITY PREDICTED BY RF-SCORE:    0.00 PKD
ROOT
HETATM    1  C   UNL     1      -9.661   7.422  73.582  1.00  0.00    -0.287 C  
HETATM    2  N   UNL     1     -10.882   6.604  73.466  1.00  0.00    -0.256 NA 
ENDROOT
BRANCH   2   3
HETATM    3  C   UNL     1     -10.585   5.173  73.797  1.00  0.00    -0.283 C  
HETATM    4  C   UNL     1      -8.659   4.239  71.696  1.00  0.00    -0.124 C  
HETATM    5  C   UNL     1      -9.088   4.896  74.086  1.00  0.00    -0.111 C  
HETATM    6  C   UNL     1     -10.991   4.187  72.672  1.00  0.00    -0.030 C  
HETATM    7  C   UNL     1     -10.153   4.367  71.407  1.00  0.00    -0.210 C  
HETATM    8  C   UNL     1      -8.216   5.130  72.853  1.00  0.00    -0.109 C  
ENDBRANCH   2   3
BRANCH   2   9
HETATM    9  C   UNL     1     -11.447   6.720  72.093  1.00  0.00    -0.282 C  
BRANCH   9  10
HETATM   10  C   UNL     1     -11.409   8.100  71.445  1.00  0.00    -0.299 A  
HETATM   11  C   UNL     1     -11.202  10.662  70.278  1.00  0.00    -0.365 A  
HETATM   12 BR   UNL     1      -9.090   9.958  68.504  1.00  0.00    -0.128 Br 
HETATM   13  C   UNL     1     -10.440   8.379  70.459  1.00  0.00    -0.227 A  
HETATM   14  C   UNL     1     -10.360   9.638  69.866  1.00  0.00    -0.249 A  
HETATM   15  C   UNL     1     -12.122  10.416  71.295  1.00  0.00    -0.362 A  
HETATM   16 BR   UNL     1     -13.216  11.872  71.860  1.00  0.00    -0.313 Br 
HETATM   17  C   UNL     1     -12.266   9.137  71.880  1.00  0.00    -0.379 A  
HETATM   18  N   UNL     1     -13.076   8.981  73.025  1.00  0.00    -0.746 NA 
HETATM   19  H1  UNL     1     -13.695   9.730  73.338  1.00  0.00     0.000 HD 
HETATM   20  H2  UNL     1     -12.473   8.722  73.806  1.00  0.00     0.000 HD 
ENDBRANCH   9  10
ENDBRANCH   2   9
TORSDOF 3
ENDMDL
MODEL      205
REMARK 921   NORMALIZED FREE ENERGY PREDICTED BY IDOCK:   -2.66 KCAL/MOL
REMARK 922        TOTAL FREE ENERGY PREDICTED BY IDOCK:   -3.75 KCAL/MOL
REMARK 923 INTER-LIGAND FREE ENERGY PREDICTED BY IDOCK:   -3.93 KCAL/MOL
REMARK 924 INTRA-LIGAND FREE ENERGY PREDICTED BY IDOCK:    0.18 KCAL/MOL
REMARK 927      BINDING AFFINITY PREDICTED BY RF-SCORE:    0.00 PKD
ROOT
HETATM    1  C   UNL     1      -8.585   8.397  66.985  1.00  0.00    -0.122 C  
HETATM    2  N   UNL     1      -9.185   9.719  67.240  1.00  0.00    -0.134 NA 
ENDROOT
BRANCH   2   3
HETATM    3  C   UNL     1      -8.647  10.731  66.275  1.00  0.00    -0.162 C  
HETATM    4  C   UNL     1     -10.729  10.995  64.132  1.00  0.00    -0.344 C  
HETATM    5  C   UNL     1      -9.543  11.985  66.118  1.00  0.00    -0.252 C  
HETATM    6  C   UNL     1      -8.448  10.167  64.844  1.00  0.00    -0.178 C  
HETATM    7  C   UNL     1      -9.771   9.806  64.170  1.00  0.00     0.087 C  
HETATM    8  C   UNL     1     -10.900  11.643  65.504  1.00  0.00    -0.334 C  
ENDBRANCH   2   3
BRANCH   2   9
HETATM    9  C   UNL     1      -8.921  10.138  68.644  1.00  0.00    -0.136 C  
BRANCH   9  10
HETATM   10  C   UNL     1     -10.132  10.494  69.499  1.00  0.00    -0.208 A  
HETATM   11  C   UNL     1     -12.450  11.060  71.008  1.00  0.00    -0.512 A  
HETATM   12 BR   UNL     1     -12.884   8.365  71.818  1.00  0.00    -0.393 Br 
HETATM   13  C   UNL     1     -10.853   9.469  70.147  1.00  0.00    -0.300 A  
HETATM   14  C   UNL     1     -11.980   9.757  70.913  1.00  0.00    -0.328 A  
HETATM   15  C   UNL     1     -11.783  12.074  70.322  1.00  0.00    -0.179 A  
HETATM   16 BR   UNL     1     -12.501  13.835  70.442  1.00  0.00    -0.349 Br 
HETATM   17  C   UNL     1     -10.606  11.824  69.581  1.00  0.00     0.335 A  
HETATM   18  N   UNL     1     -10.072  12.840  68.758  1.00  0.00    -0.421 NA 
HETATM   19  H1  UNL     1     -10.414  13.799  68.817  1.00  0.00     0.000 HD 
HETATM   20  H2  UNL     1     -10.152  12.535  67.787  1.00  0.00     0.000 HD 
ENDBRANCH   9  10
ENDBRANCH   2   9
TORSDOF 3
ENDMDL
MODEL      206
REMARK 921   NORMALIZED FREE ENERGY PREDICTED BY IDOCK:   -2.65 KCAL/MOL
REMARK 922        TOTAL FREE ENERGY PREDICTED BY IDOCK:   -3.75 KCAL/MOL
REMARK 923 INTER-LIGAND FREE ENERGY PREDICTED BY IDOCK:   -4.80 KCAL/MOL
REMARK 924 INTRA-LIGAND FREE ENERGY PREDICTED BY IDOCK:    1.05 KCAL/MOL
REMARK 927      BINDING AFFINITY PREDICTED BY RF-SCORE:    0.00 PKD
ROOT
HETATM    1  C   UNL     1     -10.930  12.106  67.932  1.00  0.00    -0.229 C  
HETATM    2  N   UNL     1     -10.113  11.791  66.746  1.00  0.00    -0.207 NA 
ENDROOT
BRANCH   2   3
HETATM    3  C   UNL     1      -9.984  12.998  65.867  1.00  0.00    -0.267 C  
HETATM    4  C   UNL     1     -12.789  13.916  65.334  1.00  0.00    -0.466 C  
HETATM    5  C   UNL     1     -10.583  14.287  66.483  1.00  0.00    -0.286 C  
HETATM    6  C   UNL     1     -10.670  12.826  64.487  1.00  0.00    -0.380 C  
HETATM    7  C   UNL     1     -12.190  12.717  64.600  1.00  0.00    -0.510 C  
HETATM    8  C   UNL     1     -12.096  14.182  66.667  1.00  0.00    -0.480 C  
ENDBRANCH   2   3
BRANCH   2   9
HETATM    9  C   UNL     1     -10.718  10.656  65.996  1.00  0.00    -0.057 C  
BRANCH   9  10
HETATM   10  C   UNL     1     -10.125   9.272  66.241  1.00  0.00    -0.322 A  
HETATM   11  C   UNL     1      -9.013   6.745  66.830  1.00  0.00    -0.141 A  
HETATM   12 BR   UNL     1     -10.900   6.110  68.864  1.00  0.00    -0.420 Br 
HETATM   13  C   UNL     1     -10.657   8.458  67.262  1.00  0.00    -0.328 A  
HETATM   14  C   UNL     1     -10.121   7.199  67.530  1.00  0.00    -0.188 A  
HETATM   15  C   UNL     1      -8.439   7.566  65.861  1.00  0.00    -0.147 A  
HETATM   16 BR   UNL     1      -6.885   6.917  64.967  1.00  0.00    -0.052 Br 
HETATM   17  C   UNL     1      -8.990   8.824  65.526  1.00  0.00    -0.181 A  
HETATM   18  N   UNL     1      -8.274   9.695  64.675  1.00  0.00    -0.139 NA 
HETATM   19  H1  UNL     1      -7.455   9.372  64.160  1.00  0.00     0.000 HD 
HETATM   20  H2  UNL     1      -8.003  10.515  65.218  1.00  0.00     0.000 HD 
ENDBRANCH   9  10
ENDBRANCH   2   9
TORSDOF 3
ENDMDL
MODEL      207
REMARK 921   NORMALIZED FREE ENERGY PREDICTED BY IDOCK:   -2.61 KCAL/MOL
REMARK 922        TOTAL FREE ENERGY PREDICTED BY IDOCK:   -3.69 KCAL/MOL
REMARK 923 INTER-LIGAND FREE ENERGY PREDICTED BY IDOCK:   -4.22 KCAL/MOL
REMARK 924 INTRA-LIGAND FREE ENERGY PREDICTED BY IDOCK:    0.53 KCAL/MOL
REMARK 927      BINDING AFFINITY PREDICTED BY RF-SCORE:    0.00 PKD
ROOT
HETATM    1  C   UNL     1     -11.573  13.916  64.169  1.00  0.00    -0.298 C  
HETATM    2  N   UNL     1     -10.331  13.957  64.964  1.00  0.00    -0.392 NA 
ENDROOT
BRANCH   2   3
HETATM    3  C   UNL     1     -10.430  13.026  66.133  1.00  0.00    -0.279 C  
HETATM    4  C   UNL     1      -9.886  10.288  65.036  1.00  0.00    -0.397 C  
HETATM    5  C   UNL     1      -9.124  12.244  66.422  1.00  0.00    -0.158 C  
HETATM    6  C   UNL     1     -11.541  11.956  65.972  1.00  0.00    -0.296 C  
HETATM    7  C   UNL     1     -11.240  10.968  64.845  1.00  0.00     0.096 C  
HETATM    8  C   UNL     1      -8.764  11.293  65.281  1.00  0.00     0.047 C  
ENDBRANCH   2   3
BRANCH   2   9
HETATM    9  C   UNL     1     -10.063  15.349  65.421  1.00  0.00    -0.359 C  
BRANCH   9  10
HETATM   10  C   UNL     1      -9.777  15.546  66.905  1.00  0.00    -0.243 A  
HETATM   11  C   UNL     1      -9.161  15.799  69.649  1.00  0.00    -0.109 A  
HETATM   12 BR   UNL     1      -6.347  15.975  69.257  1.00  0.00    -0.169 Br 
HETATM   13  C   UNL     1      -8.442  15.639  67.351  1.00  0.00    -0.191 A  
HETATM   14  C   UNL     1      -8.145  15.791  68.704  1.00  0.00    -0.161 A  
HETATM   15  C   UNL     1     -10.481  15.646  69.228  1.00  0.00    -0.247 A  
HETATM   16 BR   UNL     1     -11.833  15.609  70.571  1.00  0.00    -0.437 Br 
HETATM   17  C   UNL     1     -10.821  15.543  67.860  1.00  0.00    -0.307 A  
HETATM   18  N   UNL     1     -12.142  15.207  67.493  1.00  0.00    -0.321 NA 
HETATM   19  H1  UNL     1     -12.896  15.205  68.181  1.00  0.00     0.000 HD 
HETATM   20  H2  UNL     1     -12.122  14.291  67.044  1.00  0.00     0.000 HD 
ENDBRANCH   9  10
ENDBRANCH   2   9
TORSDOF 3
ENDMDL
MODEL      208
REMARK 921   NORMALIZED FREE ENERGY PREDICTED BY IDOCK:   -2.61 KCAL/MOL
REMARK 922        TOTAL FREE ENERGY PREDICTED BY IDOCK:   -3.69 KCAL/MOL
REMARK 923 INTER-LIGAND FREE ENERGY PREDICTED BY IDOCK:   -4.13 KCAL/MOL
REMARK 924 INTRA-LIGAND FREE ENERGY PREDICTED BY IDOCK:    0.44 KCAL/MOL
REMARK 927      BINDING AFFINITY PREDICTED BY RF-SCORE:    0.00 PKD
ROOT
HETATM    1  C   UNL     1     -11.548  10.190  70.827  1.00  0.00    -0.357 C  
HETATM    2  N   UNL     1     -11.115   9.047  70.002  1.00  0.00    -0.220 NA 
ENDROOT
BRANCH   2   3
HETATM    3  C   UNL     1      -9.942   8.363  70.634  1.00  0.00    -0.185 C  
HETATM    4  C   UNL     1     -11.100   6.439  72.623  1.00  0.00    -0.294 C  
HETATM    5  C   UNL     1      -9.929   6.827  70.431  1.00  0.00    -0.193 C  
HETATM    6  C   UNL     1      -9.852   8.591  72.165  1.00  0.00    -0.388 C  
HETATM    7  C   UNL     1     -11.007   7.935  72.922  1.00  0.00    -0.452 C  
HETATM    8  C   UNL     1     -11.110   6.150  71.125  1.00  0.00    -0.360 C  
ENDBRANCH   2   3
BRANCH   2   9
HETATM    9  C   UNL     1     -10.778   9.508  68.627  1.00  0.00    -0.184 C  
BRANCH   9  10
HETATM   10  C   UNL     1      -9.928   8.573  67.774  1.00  0.00    -0.241 A  
HETATM   11  C   UNL     1      -8.378   6.740  66.288  1.00  0.00    -0.126 A  
HETATM   12 BR   UNL     1     -10.446   4.798  66.052  1.00  0.00    -0.260 Br 
HETATM   13  C   UNL     1     -10.451   7.325  67.376  1.00  0.00    -0.359 A  
HETATM   14  C   UNL     1      -9.690   6.435  66.619  1.00  0.00    -0.153 A  
HETATM   15  C   UNL     1      -7.828   7.943  66.728  1.00  0.00    -0.103 A  
HETATM   16 BR   UNL     1      -6.005   8.288  66.292  1.00  0.00    -0.041 Br 
HETATM   17  C   UNL     1      -8.588   8.891  67.450  1.00  0.00    -0.119 A  
HETATM   18  N   UNL     1      -7.944  10.006  68.030  1.00  0.00    -0.100 NA 
HETATM   19  H1  UNL     1      -6.977  10.235  67.796  1.00  0.00     0.000 HD 
HETATM   20  H2  UNL     1      -8.012   9.918  69.044  1.00  0.00     0.000 HD 
ENDBRANCH   9  10
ENDBRANCH   2   9
TORSDOF 3
ENDMDL
MODEL      209
REMARK 921   NORMALIZED FREE ENERGY PREDICTED BY IDOCK:   -2.60 KCAL/MOL
REMARK 922        TOTAL FREE ENERGY PREDICTED BY IDOCK:   -3.68 KCAL/MOL
REMARK 923 INTER-LIGAND FREE ENERGY PREDICTED BY IDOCK:   -3.30 KCAL/MOL
REMARK 924 INTRA-LIGAND FREE ENERGY PREDICTED BY IDOCK:   -0.39 KCAL/MOL
REMARK 927      BINDING AFFINITY PREDICTED BY RF-SCORE:    0.00 PKD
ROOT
HETATM    1  C   UNL     1      -9.535   5.842  66.030  1.00  0.00    -0.060 C  
HETATM    2  N   UNL     1      -9.872   6.460  67.326  1.00  0.00    -0.130 NA 
ENDROOT
BRANCH   2   3
HETATM    3  C   UNL     1     -10.656   5.503  68.171  1.00  0.00    -0.134 C  
HETATM    4  C   UNL     1      -8.994   5.043  70.625  1.00  0.00    -0.164 C  
HETATM    5  C   UNL     1     -11.033   6.064  69.565  1.00  0.00    -0.467 C  
HETATM    6  C   UNL     1      -9.911   4.169  68.436  1.00  0.00    -0.082 C  
HETATM    7  C   UNL     1      -8.664   4.358  69.300  1.00  0.00    -0.120 C  
HETATM    8  C   UNL     1      -9.800   6.323  70.429  1.00  0.00    -0.207 C  
ENDBRANCH   2   3
BRANCH   2   9
HETATM    9  C   UNL     1     -10.637   7.719  67.108  1.00  0.00    -0.331 C  
BRANCH   9  10
HETATM   10  C   UNL     1     -10.137   8.965  67.829  1.00  0.00    -0.263 A  
HETATM   11  C   UNL     1      -9.242  11.348  69.051  1.00  0.00     0.055 A  
HETATM   12 BR   UNL     1     -11.687  12.756  68.672  1.00  0.00    -0.365 Br 
HETATM   13  C   UNL     1     -10.965  10.105  67.906  1.00  0.00    -0.335 A  
HETATM   14  C   UNL     1     -10.528  11.270  68.534  1.00  0.00    -0.197 A  
HETATM   15  C   UNL     1      -8.393  10.250  68.927  1.00  0.00    -0.136 A  
HETATM   16 BR   UNL     1      -6.620  10.430  69.605  1.00  0.00    -0.102 Br 
HETATM   17  C   UNL     1      -8.822   9.036  68.344  1.00  0.00    -0.134 A  
HETATM   18  N   UNL     1      -7.879   8.020  68.076  1.00  0.00    -0.124 NA 
HETATM   19  H1  UNL     1      -6.930   8.071  68.447  1.00  0.00     0.000 HD 
HETATM   20  H2  UNL     1      -7.816   7.906  67.064  1.00  0.00     0.000 HD 
ENDBRANCH   9  10
ENDBRANCH   2   9
TORSDOF 3
ENDMDL
MODEL      210
REMARK 921   NORMALIZED FREE ENERGY PREDICTED BY IDOCK:   -2.60 KCAL/MOL
REMARK 922        TOTAL FREE ENERGY PREDICTED BY IDOCK:   -3.68 KCAL/MOL
REMARK 923 INTER-LIGAND FREE ENERGY PREDICTED BY IDOCK:   -4.91 KCAL/MOL
REMARK 924 INTRA-LIGAND FREE ENERGY PREDICTED BY IDOCK:    1.23 KCAL/MOL
REMARK 927      BINDING AFFINITY PREDICTED BY RF-SCORE:    0.00 PKD
ROOT
HETATM    1  C   UNL     1     -12.731  14.539  68.976  1.00  0.00     0.489 C  
HETATM    2  N   UNL     1     -11.520  14.801  69.775  1.00  0.00    -0.277 NA 
ENDROOT
BRANCH   2   3
HETATM    3  C   UNL     1     -11.662  14.209  71.145  1.00  0.00     0.001 C  
HETATM    4  C   UNL     1     -13.908  15.710  72.447  1.00  0.00    -0.616 C  
HETATM    5  C   UNL     1     -13.053  13.582  71.414  1.00  0.00    -0.385 C  
HETATM    6  C   UNL     1     -11.430  15.236  72.283  1.00  0.00    -0.480 C  
HETATM    7  C   UNL     1     -12.511  16.315  72.325  1.00  0.00    -0.356 C  
HETATM    8  C   UNL     1     -14.164  14.631  71.399  1.00  0.00    -0.462 C  
ENDBRANCH   2   3
BRANCH   2   9
HETATM    9  C   UNL     1     -11.269  16.266  69.858  1.00  0.00    -0.317 C  
BRANCH   9  10
HETATM   10  C   UNL     1     -10.100  16.813  69.046  1.00  0.00    -0.283 A  
HETATM   11  C   UNL     1      -8.027  17.854  67.437  1.00  0.00    -0.221 A  
HETATM   12 BR   UNL     1      -9.282  20.373  67.011  1.00  0.00    -0.455 Br 
HETATM   13  C   UNL     1     -10.191  18.101  68.477  1.00  0.00    -0.399 A  
HETATM   14  C   UNL     1      -9.152  18.620  67.706  1.00  0.00    -0.285 A  
HETATM   15  C   UNL     1      -7.952  16.557  67.942  1.00  0.00    -0.158 A  
HETATM   16 BR   UNL     1      -6.410  15.528  67.498  1.00  0.00    -0.113 Br 
HETATM   17  C   UNL     1      -8.962  16.019  68.772  1.00  0.00    -0.226 A  
HETATM   18  N   UNL     1      -8.933  14.648  69.107  1.00  0.00    -0.370 NA 
HETATM   19  H1  UNL     1      -8.112  14.075  68.909  1.00  0.00     0.000 HD 
HETATM   20  H2  UNL     1      -9.742  14.200  68.676  1.00  0.00     0.000 HD 
ENDBRANCH   9  10
ENDBRANCH   2   9
TORSDOF 3
ENDMDL
MODEL      211
REMARK 921   NORMALIZED FREE ENERGY PREDICTED BY IDOCK:   -2.56 KCAL/MOL
REMARK 922        TOTAL FREE ENERGY PREDICTED BY IDOCK:   -3.64 KCAL/MOL
REMARK 923 INTER-LIGAND FREE ENERGY PREDICTED BY IDOCK:   -4.09 KCAL/MOL
REMARK 924 INTRA-LIGAND FREE ENERGY PREDICTED BY IDOCK:    0.45 KCAL/MOL
REMARK 927      BINDING AFFINITY PREDICTED BY RF-SCORE:    0.00 PKD
ROOT
HETATM    1  C   UNL     1      -8.607  14.809  68.930  1.00  0.00    -0.160 C  
HETATM    2  N   UNL     1      -9.305  14.886  67.634  1.00  0.00    -0.190 NA 
ENDROOT
BRANCH   2   3
HETATM    3  C   UNL     1     -10.109  16.148  67.549  1.00  0.00    -0.256 C  
HETATM    4  C   UNL     1      -8.122  18.345  67.083  1.00  0.00    -0.244 C  
HETATM    5  C   UNL     1      -9.971  16.888  66.196  1.00  0.00    -0.332 C  
HETATM    6  C   UNL     1      -9.740  17.184  68.642  1.00  0.00    -0.293 C  
HETATM    7  C   UNL     1      -8.325  17.735  68.469  1.00  0.00    -0.298 C  
HETATM    8  C   UNL     1      -8.548  17.396  65.966  1.00  0.00    -0.108 C  
ENDBRANCH   2   3
BRANCH   2   9
HETATM    9  C   UNL     1     -10.177  13.693  67.451  1.00  0.00    -0.241 C  
BRANCH   9  10
HETATM   10  C   UNL     1      -9.481  12.344  67.309  1.00  0.00    -0.191 A  
HETATM   11  C   UNL     1      -8.148   9.886  66.919  1.00  0.00    -0.113 A  
HETATM   12 BR   UNL     1      -5.606  11.061  66.405  1.00  0.00    -0.139 Br 
HETATM   13  C   UNL     1      -8.113  12.299  66.967  1.00  0.00    -0.141 A  
HETATM   14  C   UNL     1      -7.453  11.082  66.802  1.00  0.00    -0.139 A  
HETATM   15  C   UNL     1      -9.513   9.918  67.195  1.00  0.00    -0.158 A  
HETATM   16 BR   UNL     1     -10.430   8.249  67.290  1.00  0.00    -0.339 Br 
HETATM   17  C   UNL     1     -10.201  11.132  67.421  1.00  0.00    -0.190 A  
HETATM   18  N   UNL     1     -11.610  11.128  67.515  1.00  0.00    -0.561 NA 
HETATM   19  H1  UNL     1     -12.130  10.254  67.597  1.00  0.00     0.000 HD 
HETATM   20  H2  UNL     1     -11.982  11.644  66.718  1.00  0.00     0.000 HD 
ENDBRANCH   9  10
ENDBRANCH   2   9
TORSDOF 3
ENDMDL
MODEL      212
REMARK 921   NORMALIZED FREE ENERGY PREDICTED BY IDOCK:   -2.56 KCAL/MOL
REMARK 922        TOTAL FREE ENERGY PREDICTED BY IDOCK:   -3.63 KCAL/MOL
REMARK 923 INTER-LIGAND FREE ENERGY PREDICTED BY IDOCK:   -3.45 KCAL/MOL
REMARK 924 INTRA-LIGAND FREE ENERGY PREDICTED BY IDOCK:   -0.18 KCAL/MOL
REMARK 927      BINDING AFFINITY PREDICTED BY RF-SCORE:    0.00 PKD
ROOT
HETATM    1  C   UNL     1     -10.880   7.473  72.451  1.00  0.00    -0.276 C  
HETATM    2  N   UNL     1     -10.517   6.207  71.788  1.00  0.00    -0.211 NA 
ENDROOT
BRANCH   2   3
HETATM    3  C   UNL     1      -9.446   5.501  72.562  1.00  0.00    -0.145 C  
HETATM    4  C   UNL     1     -10.500   2.739  73.070  1.00  0.00    -0.251 C  
HETATM    5  C   UNL     1      -8.889   4.241  71.854  1.00  0.00    -0.137 C  
HETATM    6  C   UNL     1      -9.914   5.031  73.964  1.00  0.00    -0.205 C  
HETATM    7  C   UNL     1     -10.979   3.937  73.888  1.00  0.00    -0.285 C  
HETATM    8  C   UNL     1      -9.952   3.152  71.707  1.00  0.00    -0.192 C  
ENDBRANCH   2   3
BRANCH   2   9
HETATM    9  C   UNL     1     -10.071   6.471  70.392  1.00  0.00    -0.184 C  
BRANCH   9  10
HETATM   10  C   UNL     1      -9.655   7.899  70.058  1.00  0.00    -0.168 A  
HETATM   11  C   UNL     1      -8.934  10.524  69.309  1.00  0.00    -0.148 A  
HETATM   12 BR   UNL     1     -11.539  11.256  68.426  1.00  0.00    -0.367 Br 
HETATM   13  C   UNL     1     -10.594   8.781  69.481  1.00  0.00    -0.224 A  
HETATM   14  C   UNL     1     -10.239  10.084  69.139  1.00  0.00    -0.210 A  
HETATM   15  C   UNL     1      -7.982   9.643  69.820  1.00  0.00    -0.151 A  
HETATM   16 BR   UNL     1      -6.193  10.281  69.981  1.00  0.00    -0.103 Br 
HETATM   17  C   UNL     1      -8.319   8.333  70.228  1.00  0.00    -0.123 A  
HETATM   18  N   UNL     1      -7.295   7.421  70.565  1.00  0.00    -0.075 NA 
HETATM   19  H1  UNL     1      -6.331   7.734  70.687  1.00  0.00     0.000 HD 
HETATM   20  H2  UNL     1      -7.299   6.672  69.873  1.00  0.00     0.000 HD 
ENDBRANCH   9  10
ENDBRANCH   2   9
TORSDOF 3
ENDMDL
MODEL      213
REMARK 921   NORMALIZED FREE ENERGY PREDICTED BY IDOCK:   -2.55 KCAL/MOL
REMARK 922        TOTAL FREE ENERGY PREDICTED BY IDOCK:   -3.62 KCAL/MOL
REMARK 923 INTER-LIGAND FREE ENERGY PREDICTED BY IDOCK:   -3.08 KCAL/MOL
REMARK 924 INTRA-LIGAND FREE ENERGY PREDICTED BY IDOCK:   -0.55 KCAL/MOL
REMARK 927      BINDING AFFINITY PREDICTED BY RF-SCORE:    0.00 PKD
ROOT
HETATM    1  C   UNL     1     -11.225   6.613  71.505  1.00  0.00    -0.270 C  
HETATM    2  N   UNL     1      -9.772   6.362  71.456  1.00  0.00    -0.169 NA 
ENDROOT
BRANCH   2   3
HETATM    3  C   UNL     1      -9.287   5.853  72.778  1.00  0.00    -0.145 C  
HETATM    4  C   UNL     1      -8.231   3.096  72.247  1.00  0.00    -0.067 C  
HETATM    5  C   UNL     1      -7.777   5.508  72.800  1.00  0.00    -0.098 C  
HETATM    6  C   UNL     1     -10.023   4.572  73.250  1.00  0.00    -0.178 C  
HETATM    7  C   UNL     1      -9.730   3.368  72.355  1.00  0.00    -0.212 C  
HETATM    8  C   UNL     1      -7.444   4.346  71.865  1.00  0.00    -0.070 C  
ENDBRANCH   2   3
BRANCH   2   9
HETATM    9  C   UNL     1      -9.051   7.607  71.074  1.00  0.00    -0.147 C  
BRANCH   9  10
HETATM   10  C   UNL     1      -9.190   8.071  69.628  1.00  0.00    -0.152 A  
HETATM   11  C   UNL     1      -9.310   8.910  66.935  1.00  0.00    -0.213 A  
HETATM   12 BR   UNL     1      -8.115   6.549  65.885  1.00  0.00    -0.131 Br 
HETATM   13  C   UNL     1      -8.675   7.270  68.587  1.00  0.00    -0.127 A  
HETATM   14  C   UNL     1      -8.761   7.677  67.257  1.00  0.00    -0.124 A  
HETATM   15  C   UNL     1      -9.766   9.738  67.959  1.00  0.00    -0.145 A  
HETATM   16 BR   UNL     1     -10.460  11.444  67.466  1.00  0.00    -0.250 Br 
HETATM   17  C   UNL     1      -9.744   9.334  69.313  1.00  0.00    -0.169 A  
HETATM   18  N   UNL     1     -10.044  10.271  70.326  1.00  0.00    -0.410 NA 
HETATM   19  H1  UNL     1     -10.443  11.182  70.099  1.00  0.00     0.000 HD 
HETATM   20  H2  UNL     1      -9.198  10.424  70.875  1.00  0.00     0.000 HD 
ENDBRANCH   9  10
ENDBRANCH   2   9
TORSDOF 3
ENDMDL
MODEL      214
REMARK 921   NORMALIZED FREE ENERGY PREDICTED BY IDOCK:   -2.54 KCAL/MOL
REMARK 922        TOTAL FREE ENERGY PREDICTED BY IDOCK:   -3.62 KCAL/MOL
REMARK 923 INTER-LIGAND FREE ENERGY PREDICTED BY IDOCK:   -3.43 KCAL/MOL
REMARK 924 INTRA-LIGAND FREE ENERGY PREDICTED BY IDOCK:   -0.19 KCAL/MOL
REMARK 927      BINDING AFFINITY PREDICTED BY RF-SCORE:    0.00 PKD
ROOT
HETATM    1  C   UNL     1      -9.936   9.884  66.689  1.00  0.00    -0.217 C  
HETATM    2  N   UNL     1      -9.974  11.334  66.954  1.00  0.00    -0.203 NA 
ENDROOT
BRANCH   2   3
HETATM    3  C   UNL     1      -9.347  12.087  65.821  1.00  0.00    -0.125 C  
HETATM    4  C   UNL     1     -11.389  12.098  63.625  1.00  0.00    -0.545 C  
HETATM    5  C   UNL     1     -10.131  13.356  65.403  1.00  0.00    -0.270 C  
HETATM    6  C   UNL     1      -9.191  11.238  64.533  1.00  0.00    -0.072 C  
HETATM    7  C   UNL     1     -10.537  10.864  63.914  1.00  0.00    -0.285 C  
HETATM    8  C   UNL     1     -11.510  13.015  64.839  1.00  0.00    -0.348 C  
ENDBRANCH   2   3
BRANCH   2   9
HETATM    9  C   UNL     1      -9.282  11.637  68.236  1.00  0.00    -0.187 C  
BRANCH   9  10
HETATM   10  C   UNL     1      -9.280  13.092  68.693  1.00  0.00     0.032 A  
HETATM   11  C   UNL     1      -9.186  15.750  69.639  1.00  0.00    -0.144 A  
HETATM   12 BR   UNL     1      -6.361  16.003  69.390  1.00  0.00    -0.179 Br 
HETATM   13  C   UNL     1      -8.055  13.777  68.833  1.00  0.00     0.059 A  
HETATM   14  C   UNL     1      -8.016  15.098  69.275  1.00  0.00    -0.213 A  
HETATM   15  C   UNL     1     -10.397  15.064  69.565  1.00  0.00    -0.220 A  
HETATM   16 BR   UNL     1     -11.966  15.989  70.130  1.00  0.00    -0.105 Br 
HETATM   17  C   UNL     1     -10.478  13.743  69.070  1.00  0.00    -0.098 A  
HETATM   18  N   UNL     1     -11.690  13.028  69.185  1.00  0.00    -0.310 NA 
HETATM   19  H1  UNL     1     -12.555  13.498  69.457  1.00  0.00     0.000 HD 
HETATM   20  H2  UNL     1     -11.539  12.249  69.825  1.00  0.00     0.000 HD 
ENDBRANCH   9  10
ENDBRANCH   2   9
TORSDOF 3
ENDMDL
MODEL      215
REMARK 921   NORMALIZED FREE ENERGY PREDICTED BY IDOCK:   -2.52 KCAL/MOL
REMARK 922        TOTAL FREE ENERGY PREDICTED BY IDOCK:   -3.59 KCAL/MOL
REMARK 923 INTER-LIGAND FREE ENERGY PREDICTED BY IDOCK:   -3.23 KCAL/MOL
REMARK 924 INTRA-LIGAND FREE ENERGY PREDICTED BY IDOCK:   -0.36 KCAL/MOL
REMARK 927      BINDING AFFINITY PREDICTED BY RF-SCORE:    0.00 PKD
ROOT
HETATM    1  C   UNL     1     -10.607   8.403  67.393  1.00  0.00    -0.243 C  
HETATM    2  N   UNL     1      -9.428   8.076  68.217  1.00  0.00    -0.140 NA 
ENDROOT
BRANCH   2   3
HETATM    3  C   UNL     1      -8.233   7.836  67.345  1.00  0.00    -0.123 C  
HETATM    4  C   UNL     1      -6.174   9.831  68.225  1.00  0.00    -0.051 C  
HETATM    5  C   UNL     1      -6.956   7.442  68.128  1.00  0.00    -0.075 C  
HETATM    6  C   UNL     1      -7.845   9.067  66.487  1.00  0.00    -0.100 C  
HETATM    7  C   UNL     1      -7.348  10.237  67.335  1.00  0.00    -0.093 C  
HETATM    8  C   UNL     1      -6.472   8.573  69.035  1.00  0.00    -0.048 C  
ENDBRANCH   2   3
BRANCH   2   9
HETATM    9  C   UNL     1      -9.711   6.884  69.063  1.00  0.00    -0.150 C  
BRANCH   9  10
HETATM   10  C   UNL     1     -10.337   7.138  70.429  1.00  0.00    -0.216 A  
HETATM   11  C   UNL     1     -11.517   7.744  72.921  1.00  0.00    -0.359 A  
HETATM   12 BR   UNL     1     -13.937   8.755  71.812  1.00  0.00    -0.468 Br 
HETATM   13  C   UNL     1     -11.612   7.737  70.510  1.00  0.00    -0.173 A  
HETATM   14  C   UNL     1     -12.201   8.009  71.743  1.00  0.00    -0.316 A  
HETATM   15  C   UNL     1     -10.232   7.210  72.854  1.00  0.00    -0.230 A  
HETATM   16 BR   UNL     1      -9.316   6.917  74.500  1.00  0.00    -0.175 Br 
HETATM   17  C   UNL     1      -9.626   6.872  71.622  1.00  0.00    -0.161 A  
HETATM   18  N   UNL     1      -8.262   6.509  71.592  1.00  0.00    -0.112 NA 
HETATM   19  H1  UNL     1      -7.750   6.316  72.453  1.00  0.00     0.000 HD 
HETATM   20  H2  UNL     1      -7.755   7.227  71.076  1.00  0.00     0.000 HD 
ENDBRANCH   9  10
ENDBRANCH   2   9
TORSDOF 3
ENDMDL
MODEL      216
REMARK 921   NORMALIZED FREE ENERGY PREDICTED BY IDOCK:   -2.46 KCAL/MOL
REMARK 922        TOTAL FREE ENERGY PREDICTED BY IDOCK:   -3.52 KCAL/MOL
REMARK 923 INTER-LIGAND FREE ENERGY PREDICTED BY IDOCK:   -4.43 KCAL/MOL
REMARK 924 INTRA-LIGAND FREE ENERGY PREDICTED BY IDOCK:    0.92 KCAL/MOL
REMARK 927      BINDING AFFINITY PREDICTED BY RF-SCORE:    0.00 PKD
ROOT
HETATM    1  C   UNL     1     -10.519  10.657  67.012  1.00  0.00    -0.243 C  
HETATM    2  N   UNL     1      -9.997  12.018  67.236  1.00  0.00    -0.194 NA 
ENDROOT
BRANCH   2   3
HETATM    3  C   UNL     1      -9.064  12.032  68.409  1.00  0.00    -0.158 C  
HETATM    4  C   UNL     1      -6.300  12.057  67.245  1.00  0.00    -0.151 C  
HETATM    5  C   UNL     1      -8.138  13.273  68.457  1.00  0.00    -0.094 C  
HETATM    6  C   UNL     1      -8.126  10.798  68.460  1.00  0.00    -0.133 C  
HETATM    7  C   UNL     1      -7.128  10.775  67.302  1.00  0.00    -0.091 C  
HETATM    8  C   UNL     1      -7.171  13.310  67.275  1.00  0.00    -0.033 C  
ENDBRANCH   2   3
BRANCH   2   9
HETATM    9  C   UNL     1     -11.123  12.968  67.448  1.00  0.00    -0.272 C  
BRANCH   9  10
HETATM   10  C   UNL     1     -11.716  13.035  68.851  1.00  0.00    -0.371 A  
HETATM   11  C   UNL     1     -12.691  13.199  71.496  1.00  0.00    -0.366 A  
HETATM   12 BR   UNL     1     -11.938  15.919  71.870  1.00  0.00    -0.636 Br 
HETATM   13  C   UNL     1     -11.579  14.216  69.610  1.00  0.00    -0.349 A  
HETATM   14  C   UNL     1     -12.086  14.300  70.906  1.00  0.00    -0.347 A  
HETATM   15  C   UNL     1     -12.777  12.007  70.779  1.00  0.00    -0.143 A  
HETATM   16 BR   UNL     1     -13.567  10.510  71.656  1.00  0.00    -0.047 Br 
HETATM   17  C   UNL     1     -12.322  11.903  69.444  1.00  0.00     0.003 A  
HETATM   18  N   UNL     1     -12.263  10.636  68.825  1.00  0.00    -0.808 NA 
HETATM   19  H1  UNL     1     -12.700   9.819  69.253  1.00  0.00     0.000 HD 
HETATM   20  H2  UNL     1     -11.282  10.414  68.651  1.00  0.00     0.000 HD 
ENDBRANCH   9  10
ENDBRANCH   2   9
TORSDOF 3
ENDMDL
MODEL      217
REMARK 921   NORMALIZED FREE ENERGY PREDICTED BY IDOCK:   -2.45 KCAL/MOL
REMARK 922        TOTAL FREE ENERGY PREDICTED BY IDOCK:   -3.51 KCAL/MOL
REMARK 923 INTER-LIGAND FREE ENERGY PREDICTED BY IDOCK:   -2.85 KCAL/MOL
REMARK 924 INTRA-LIGAND FREE ENERGY PREDICTED BY IDOCK:   -0.66 KCAL/MOL
REMARK 927      BINDING AFFINITY PREDICTED BY RF-SCORE:    0.00 PKD
ROOT
HETATM    1  C   UNL     1      -7.273   5.483  71.811  1.00  0.00    -0.089 C  
HETATM    2  N   UNL     1      -8.577   5.916  71.275  1.00  0.00    -0.128 NA 
ENDROOT
BRANCH   2   3
HETATM    3  C   UNL     1      -9.662   5.665  72.277  1.00  0.00    -0.155 C  
HETATM    4  C   UNL     1     -11.016   8.311  72.683  1.00  0.00    -0.386 C  
HETATM    5  C   UNL     1     -11.085   5.976  71.750  1.00  0.00    -0.332 C  
HETATM    6  C   UNL     1      -9.499   6.495  73.577  1.00  0.00    -0.161 C  
HETATM    7  C   UNL     1      -9.672   7.995  73.337  1.00  0.00    -0.239 C  
HETATM    8  C   UNL     1     -11.267   7.461  71.441  1.00  0.00    -0.272 C  
ENDBRANCH   2   3
BRANCH   2   9
HETATM    9  C   UNL     1      -8.865   5.206  69.998  1.00  0.00    -0.111 C  
BRANCH   9  10
HETATM   10  C   UNL     1      -8.532   5.945  68.707  1.00  0.00    -0.111 A  
HETATM   11  C   UNL     1      -8.040   7.378  66.325  1.00  0.00    -0.117 A  
HETATM   12 BR   UNL     1      -8.414   9.946  67.497  1.00  0.00    -0.114 Br 
HETATM   13  C   UNL     1      -8.619   7.353  68.667  1.00  0.00    -0.129 A  
HETATM   14  C   UNL     1      -8.348   8.057  67.495  1.00  0.00    -0.123 A  
HETATM   15  C   UNL     1      -8.012   5.985  66.335  1.00  0.00    -0.105 A  
HETATM   16 BR   UNL     1      -7.638   5.102  64.687  1.00  0.00    -0.082 Br 
HETATM   17  C   UNL     1      -8.228   5.242  67.518  1.00  0.00    -0.100 A  
HETATM   18  N   UNL     1      -8.372   3.839  67.444  1.00  0.00    -0.094 NA 
HETATM   19  H1  UNL     1      -8.152   3.332  66.586  1.00  0.00     0.000 HD 
HETATM   20  H2  UNL     1      -9.327   3.605  67.714  1.00  0.00     0.000 HD 
ENDBRANCH   9  10
ENDBRANCH   2   9
TORSDOF 3
ENDMDL
MODEL      218
REMARK 921   NORMALIZED FREE ENERGY PREDICTED BY IDOCK:   -2.44 KCAL/MOL
REMARK 922        TOTAL FREE ENERGY PREDICTED BY IDOCK:   -3.49 KCAL/MOL
REMARK 923 INTER-LIGAND FREE ENERGY PREDICTED BY IDOCK:   -4.00 KCAL/MOL
REMARK 924 INTRA-LIGAND FREE ENERGY PREDICTED BY IDOCK:    0.50 KCAL/MOL
REMARK 927      BINDING AFFINITY PREDICTED BY RF-SCORE:    0.00 PKD
ROOT
HETATM    1  C   UNL     1     -12.148   7.483  70.294  1.00  0.00     0.212 C  
HETATM    2  N   UNL     1     -10.764   7.169  69.893  1.00  0.00    -0.233 NA 
ENDROOT
BRANCH   2   3
HETATM    3  C   UNL     1      -9.825   8.226  70.389  1.00  0.00    -0.186 C  
HETATM    4  C   UNL     1      -9.238   7.514  73.243  1.00  0.00    -0.256 C  
HETATM    5  C   UNL     1      -8.455   7.676  70.858  1.00  0.00    -0.124 C  
HETATM    6  C   UNL     1     -10.391   9.036  71.585  1.00  0.00    -0.420 C  
HETATM    7  C   UNL     1     -10.552   8.183  72.843  1.00  0.00    -0.327 C  
HETATM    8  C   UNL     1      -8.592   6.768  72.079  1.00  0.00    -0.122 C  
ENDBRANCH   2   3
BRANCH   2   9
HETATM    9  C   UNL     1     -10.677   7.042  68.412  1.00  0.00    -0.179 C  
BRANCH   9  10
HETATM   10  C   UNL     1     -10.363   8.310  67.627  1.00  0.00    -0.313 A  
HETATM   11  C   UNL     1      -9.919  10.674  66.149  1.00  0.00    -0.283 A  
HETATM   12 BR   UNL     1     -11.641  12.289  67.738  1.00  0.00    -0.414 Br 
HETATM   13  C   UNL     1     -11.026   9.512  67.951  1.00  0.00    -0.172 A  
HETATM   14  C   UNL     1     -10.782  10.683  67.235  1.00  0.00    -0.285 A  
HETATM   15  C   UNL     1      -9.305   9.478  65.779  1.00  0.00    -0.233 A  
HETATM   16 BR   UNL     1      -8.172   9.509  64.246  1.00  0.00    -0.172 Br 
HETATM   17  C   UNL     1      -9.488   8.286  66.516  1.00  0.00    -0.220 A  
HETATM   18  N   UNL     1      -8.997   7.066  66.001  1.00  0.00    -0.272 NA 
HETATM   19  H1  UNL     1      -8.365   7.049  65.200  1.00  0.00     0.000 HD 
HETATM   20  H2  UNL     1      -9.796   6.469  65.788  1.00  0.00     0.000 HD 
ENDBRANCH   9  10
ENDBRANCH   2   9
TORSDOF 3
ENDMDL
MODEL      219
REMARK 921   NORMALIZED FREE ENERGY PREDICTED BY IDOCK:   -2.44 KCAL/MOL
REMARK 922        TOTAL FREE ENERGY PREDICTED BY IDOCK:   -3.49 KCAL/MOL
REMARK 923 INTER-LIGAND FREE ENERGY PREDICTED BY IDOCK:   -3.92 KCAL/MOL
REMARK 924 INTRA-LIGAND FREE ENERGY PREDICTED BY IDOCK:    0.43 KCAL/MOL
REMARK 927      BINDING AFFINITY PREDICTED BY RF-SCORE:    0.00 PKD
ROOT
HETATM    1  C   UNL     1      -7.699  12.137  69.301  1.00  0.00     0.360 C  
HETATM    2  N   UNL     1      -8.508  11.135  68.582  1.00  0.00    -0.154 NA 
ENDROOT
BRANCH   2   3
HETATM    3  C   UNL     1      -8.131   9.752  69.015  1.00  0.00    -0.101 C  
HETATM    4  C   UNL     1     -10.468   8.013  68.301  1.00  0.00    -0.210 C  
HETATM    5  C   UNL     1      -8.095   8.721  67.859  1.00  0.00    -0.107 C  
HETATM    6  C   UNL     1      -9.088   9.162  70.083  1.00  0.00    -0.229 C  
HETATM    7  C   UNL     1     -10.493   8.915  69.534  1.00  0.00    -0.229 C  
HETATM    8  C   UNL     1      -9.478   8.502  67.248  1.00  0.00    -0.199 C  
ENDBRANCH   2   3
BRANCH   2   9
HETATM    9  C   UNL     1      -8.329  11.294  67.112  1.00  0.00    -0.151 C  
BRANCH   9  10
HETATM   10  C   UNL     1      -9.243  12.290  66.408  1.00  0.00    -0.203 A  
HETATM   11  C   UNL     1     -10.991  14.168  65.229  1.00  0.00    -0.339 A  
HETATM   12 BR   UNL     1     -10.116  16.358  66.825  1.00  0.00    -0.300 Br 
HETATM   13  C   UNL     1      -9.286  13.629  66.850  1.00  0.00    -0.261 A  
HETATM   14  C   UNL     1     -10.131  14.558  66.247  1.00  0.00    -0.295 A  
HETATM   15  C   UNL     1     -11.003  12.834  64.825  1.00  0.00    -0.305 A  
HETATM   16 BR   UNL     1     -12.241  12.341  63.462  1.00  0.00    -0.652 Br 
HETATM   17  C   UNL     1     -10.121  11.878  65.378  1.00  0.00    -0.253 A  
HETATM   18  N   UNL     1     -10.294  10.511  65.072  1.00  0.00    -0.295 NA 
HETATM   19  H1  UNL     1     -10.927  10.214  64.329  1.00  0.00     0.000 HD 
HETATM   20  H2  UNL     1     -10.562  10.026  65.929  1.00  0.00     0.000 HD 
ENDBRANCH   9  10
ENDBRANCH   2   9
TORSDOF 3
ENDMDL
MODEL      220
REMARK 921   NORMALIZED FREE ENERGY PREDICTED BY IDOCK:   -2.43 KCAL/MOL
REMARK 922        TOTAL FREE ENERGY PREDICTED BY IDOCK:   -3.48 KCAL/MOL
REMARK 923 INTER-LIGAND FREE ENERGY PREDICTED BY IDOCK:   -3.94 KCAL/MOL
REMARK 924 INTRA-LIGAND FREE ENERGY PREDICTED BY IDOCK:    0.46 KCAL/MOL
REMARK 927      BINDING AFFINITY PREDICTED BY RF-SCORE:    0.00 PKD
ROOT
HETATM    1  C   UNL     1     -11.623  10.860  69.907  1.00  0.00    -0.331 C  
HETATM    2  N   UNL     1     -11.174   9.909  68.873  1.00  0.00    -0.136 NA 
ENDROOT
BRANCH   2   3
HETATM    3  C   UNL     1      -9.864   9.295  69.263  1.00  0.00    -0.172 C  
HETATM    4  C   UNL     1     -10.536   7.145  71.244  1.00  0.00    -0.219 C  
HETATM    5  C   UNL     1      -9.760   7.784  68.938  1.00  0.00    -0.160 C  
HETATM    6  C   UNL     1      -9.553   9.428  70.776  1.00  0.00    -0.322 C  
HETATM    7  C   UNL     1     -10.516   8.619  71.644  1.00  0.00    -0.366 C  
HETATM    8  C   UNL     1     -10.758   6.956  69.746  1.00  0.00    -0.276 C  
ENDBRANCH   2   3
BRANCH   2   9
HETATM    9  C   UNL     1     -11.062  10.598  67.559  1.00  0.00    -0.300 C  
BRANCH   9  10
HETATM   10  C   UNL     1      -9.927  11.605  67.401  1.00  0.00    -0.200 A  
HETATM   11  C   UNL     1      -7.761  13.407  67.217  1.00  0.00    -0.092 A  
HETATM   12 BR   UNL     1      -5.776  11.384  66.947  1.00  0.00    -0.133 Br 
HETATM   13  C   UNL     1      -8.599  11.144  67.283  1.00  0.00    -0.140 A  
HETATM   14  C   UNL     1      -7.536  12.038  67.166  1.00  0.00    -0.146 A  
HETATM   15  C   UNL     1      -9.062  13.874  67.396  1.00  0.00    -0.217 A  
HETATM   16 BR   UNL     1      -9.309  15.761  67.515  1.00  0.00    -0.214 Br 
HETATM   17  C   UNL     1     -10.169  12.997  67.464  1.00  0.00    -0.221 A  
HETATM   18  N   UNL     1     -11.436  13.501  67.827  1.00  0.00    -0.296 NA 
HETATM   19  H1  UNL     1     -11.611  14.505  67.873  1.00  0.00     0.000 HD 
HETATM   20  H2  UNL     1     -11.692  13.095  68.727  1.00  0.00     0.000 HD 
ENDBRANCH   9  10
ENDBRANCH   2   9
TORSDOF 3
ENDMDL
MODEL      221
REMARK 921   NORMALIZED FREE ENERGY PREDICTED BY IDOCK:   -2.40 KCAL/MOL
REMARK 922        TOTAL FREE ENERGY PREDICTED BY IDOCK:   -3.45 KCAL/MOL
REMARK 923 INTER-LIGAND FREE ENERGY PREDICTED BY IDOCK:   -2.84 KCAL/MOL
REMARK 924 INTRA-LIGAND FREE ENERGY PREDICTED BY IDOCK:   -0.61 KCAL/MOL
REMARK 927      BINDING AFFINITY PREDICTED BY RF-SCORE:    0.00 PKD
ROOT
HETATM    1  C   UNL     1     -10.635   7.162  70.739  1.00  0.00    -0.222 C  
HETATM    2  N   UNL     1      -9.731   6.101  71.220  1.00  0.00    -0.174 NA 
ENDROOT
BRANCH   2   3
HETATM    3  C   UNL     1      -9.612   6.155  72.712  1.00  0.00    -0.155 C  
HETATM    4  C   UNL     1     -10.708   3.547  73.709  1.00  0.00    -0.304 C  
HETATM    5  C   UNL     1      -8.721   5.038  73.310  1.00  0.00    -0.111 C  
HETATM    6  C   UNL     1     -10.977   6.048  73.440  1.00  0.00    -0.202 C  
HETATM    7  C   UNL     1     -11.630   4.678  73.256  1.00  0.00    -0.274 C  
HETATM    8  C   UNL     1      -9.319   3.650  73.085  1.00  0.00    -0.123 C  
ENDBRANCH   2   3
BRANCH   2   9
HETATM    9  C   UNL     1      -8.394   6.240  70.579  1.00  0.00    -0.129 C  
BRANCH   9  10
HETATM   10  C   UNL     1      -8.360   6.292  69.056  1.00  0.00    -0.117 A  
HETATM   11  C   UNL     1      -8.370   6.507  66.241  1.00  0.00    -0.124 A  
HETATM   12 BR   UNL     1      -7.207   9.105  66.185  1.00  0.00    -0.091 Br 
HETATM   13  C   UNL     1      -7.903   7.459  68.409  1.00  0.00    -0.122 A  
HETATM   14  C   UNL     1      -7.885   7.549  67.018  1.00  0.00    -0.116 A  
HETATM   15  C   UNL     1      -8.881   5.373  66.869  1.00  0.00    -0.111 A  
HETATM   16 BR   UNL     1      -9.585   3.994  65.756  1.00  0.00    -0.194 Br 
HETATM   17  C   UNL     1      -8.865   5.226  68.275  1.00  0.00    -0.104 A  
HETATM   18  N   UNL     1      -9.556   4.150  68.872  1.00  0.00    -0.169 NA 
HETATM   19  H1  UNL     1      -9.921   3.381  68.308  1.00  0.00     0.000 HD 
HETATM   20  H2  UNL     1     -10.327   4.533  69.419  1.00  0.00     0.000 HD 
ENDBRANCH   9  10
ENDBRANCH   2   9
TORSDOF 3
ENDMDL
MODEL      222
REMARK 921   NORMALIZED FREE ENERGY PREDICTED BY IDOCK:   -2.38 KCAL/MOL
REMARK 922        TOTAL FREE ENERGY PREDICTED BY IDOCK:   -3.42 KCAL/MOL
REMARK 923 INTER-LIGAND FREE ENERGY PREDICTED BY IDOCK:   -2.81 KCAL/MOL
REMARK 924 INTRA-LIGAND FREE ENERGY PREDICTED BY IDOCK:   -0.62 KCAL/MOL
REMARK 927      BINDING AFFINITY PREDICTED BY RF-SCORE:    0.00 PKD
ROOT
HETATM    1  C   UNL     1      -7.974   7.063  65.152  1.00  0.00    -0.128 C  
HETATM    2  N   UNL     1      -8.136   5.633  65.474  1.00  0.00    -0.116 NA 
ENDROOT
BRANCH   2   3
HETATM    3  C   UNL     1      -7.841   4.792  64.270  1.00  0.00    -0.086 C  
HETATM    4  C   UNL     1      -5.791   2.792  65.161  1.00  0.00    -0.018 C  
HETATM    5  C   UNL     1      -8.157   3.288  64.465  1.00  0.00    -0.086 C  
HETATM    6  C   UNL     1      -6.358   4.861  63.822  1.00  0.00    -0.026 C  
HETATM    7  C   UNL     1      -5.410   4.237  64.845  1.00  0.00    -0.013 C  
HETATM    8  C   UNL     1      -7.265   2.651  65.530  1.00  0.00    -0.066 C  
ENDBRANCH   2   3
BRANCH   2   9
HETATM    9  C   UNL     1      -9.514   5.374  65.973  1.00  0.00    -0.146 C  
BRANCH   9  10
HETATM   10  C   UNL     1      -9.684   5.213  67.480  1.00  0.00    -0.177 A  
HETATM   11  C   UNL     1     -10.022   4.777  70.248  1.00  0.00    -0.320 A  
HETATM   12 BR   UNL     1      -7.997   2.784  70.435  1.00  0.00    -0.054 Br 
HETATM   13  C   UNL     1      -8.925   4.242  68.166  1.00  0.00    -0.151 A  
HETATM   14  C   UNL     1      -9.076   4.050  69.538  1.00  0.00    -0.126 A  
HETATM   15  C   UNL     1     -10.822   5.695  69.571  1.00  0.00    -0.274 A  
HETATM   16 BR   UNL     1     -12.142   6.626  70.583  1.00  0.00    -0.208 Br 
HETATM   17  C   UNL     1     -10.658   5.953  68.191  1.00  0.00    -0.244 A  
HETATM   18  N   UNL     1     -11.606   6.750  67.513  1.00  0.00    -0.566 NA 
HETATM   19  H1  UNL     1     -12.308   7.284  68.026  1.00  0.00     0.000 HD 
HETATM   20  H2  UNL     1     -12.089   6.159  66.836  1.00  0.00     0.000 HD 
ENDBRANCH   9  10
ENDBRANCH   2   9
TORSDOF 3
ENDMDL
MODEL      223
REMARK 921   NORMALIZED FREE ENERGY PREDICTED BY IDOCK:   -2.37 KCAL/MOL
REMARK 922        TOTAL FREE ENERGY PREDICTED BY IDOCK:   -3.42 KCAL/MOL
REMARK 923 INTER-LIGAND FREE ENERGY PREDICTED BY IDOCK:   -2.71 KCAL/MOL
REMARK 924 INTRA-LIGAND FREE ENERGY PREDICTED BY IDOCK:   -0.71 KCAL/MOL
REMARK 927      BINDING AFFINITY PREDICTED BY RF-SCORE:    0.00 PKD
ROOT
HETATM    1  C   UNL     1      -7.451   8.555  66.150  1.00  0.00    -0.089 C  
HETATM    2  N   UNL     1      -8.178   7.389  66.684  1.00  0.00    -0.121 NA 
ENDROOT
BRANCH   2   3
HETATM    3  C   UNL     1      -8.734   6.564  65.564  1.00  0.00    -0.051 C  
HETATM    4  C   UNL     1      -7.650   3.798  65.978  1.00  0.00    -0.088 C  
HETATM    5  C   UNL     1      -9.609   5.376  66.035  1.00  0.00    -0.149 C  
HETATM    6  C   UNL     1      -7.639   5.952  64.652  1.00  0.00    -0.089 C  
HETATM    7  C   UNL     1      -6.790   4.910  65.379  1.00  0.00    -0.061 C  
HETATM    8  C   UNL     1      -8.797   4.347  66.822  1.00  0.00    -0.114 C  
ENDBRANCH   2   3
BRANCH   2   9
HETATM    9  C   UNL     1      -9.265   7.838  67.596  1.00  0.00    -0.136 C  
BRANCH   9  10
HETATM   10  C   UNL     1      -9.113   7.496  69.074  1.00  0.00    -0.140 A  
HETATM   11  C   UNL     1      -8.820   6.726  71.775  1.00  0.00    -0.128 A  
HETATM   12 BR   UNL     1      -6.342   5.379  71.382  1.00  0.00    -0.036 Br 
HETATM   13  C   UNL     1      -8.014   6.720  69.500  1.00  0.00    -0.125 A  
HETATM   14  C   UNL     1      -7.860   6.366  70.839  1.00  0.00    -0.107 A  
HETATM   15  C   UNL     1      -9.942   7.439  71.356  1.00  0.00    -0.186 A  
HETATM   16 BR   UNL     1     -11.256   7.859  72.672  1.00  0.00    -0.462 Br 
HETATM   17  C   UNL     1     -10.103   7.860  70.017  1.00  0.00    -0.199 A  
HETATM   18  N   UNL     1     -11.333   8.416  69.604  1.00  0.00    -0.430 NA 
HETATM   19  H1  UNL     1     -12.047   8.679  70.284  1.00  0.00     0.000 HD 
HETATM   20  H2  UNL     1     -11.757   7.778  68.930  1.00  0.00     0.000 HD 
ENDBRANCH   9  10
ENDBRANCH   2   9
TORSDOF 3
ENDMDL
MODEL      224
REMARK 921   NORMALIZED FREE ENERGY PREDICTED BY IDOCK:   -2.36 KCAL/MOL
REMARK 922        TOTAL FREE ENERGY PREDICTED BY IDOCK:   -3.40 KCAL/MOL
REMARK 923 INTER-LIGAND FREE ENERGY PREDICTED BY IDOCK:   -4.44 KCAL/MOL
REMARK 924 INTRA-LIGAND FREE ENERGY PREDICTED BY IDOCK:    1.04 KCAL/MOL
REMARK 927      BINDING AFFINITY PREDICTED BY RF-SCORE:    0.00 PKD
ROOT
HETATM    1  C   UNL     1      -8.056  12.998  67.215  1.00  0.00    -0.161 C  
HETATM    2  N   UNL     1      -8.961  11.890  66.858  1.00  0.00    -0.190 NA 
ENDROOT
BRANCH   2   3
HETATM    3  C   UNL     1     -10.093  12.393  66.014  1.00  0.00    -0.251 C  
HETATM    4  C   UNL     1     -11.606  14.315  67.750  1.00  0.00    -0.383 C  
HETATM    5  C   UNL     1     -10.075  13.925  65.792  1.00  0.00    -0.336 C  
HETATM    6  C   UNL     1     -11.489  12.063  66.604  1.00  0.00    -0.411 C  
HETATM    7  C   UNL     1     -11.759  12.804  67.913  1.00  0.00    -0.408 C  
HETATM    8  C   UNL     1     -10.279  14.694  67.097  1.00  0.00    -0.256 C  
ENDBRANCH   2   3
BRANCH   2   9
HETATM    9  C   UNL     1      -9.475  11.232  68.091  1.00  0.00    -0.184 C  
BRANCH   9  10
HETATM   10  C   UNL     1      -9.292   9.722  68.195  1.00  0.00    -0.136 A  
HETATM   11  C   UNL     1      -8.953   6.920  68.249  1.00  0.00    -0.124 A  
HETATM   12 BR   UNL     1      -6.585   6.925  66.669  1.00  0.00    -0.049 Br 
HETATM   13  C   UNL     1      -8.232   9.099  67.504  1.00  0.00    -0.108 A  
HETATM   14  C   UNL     1      -8.053   7.718  67.557  1.00  0.00    -0.124 A  
HETATM   15  C   UNL     1     -10.040   7.517  68.885  1.00  0.00    -0.192 A  
HETATM   16 BR   UNL     1     -11.275   6.369  69.776  1.00  0.00    -0.494 Br 
HETATM   17  C   UNL     1     -10.221   8.919  68.897  1.00  0.00    -0.206 A  
HETATM   18  N   UNL     1     -11.426   9.462  69.393  1.00  0.00    -0.430 NA 
HETATM   19  H1  UNL     1     -12.096   8.882  69.899  1.00  0.00     0.000 HD 
HETATM   20  H2  UNL     1     -11.916   9.905  68.616  1.00  0.00     0.000 HD 
ENDBRANCH   9  10
ENDBRANCH   2   9
TORSDOF 3
ENDMDL
MODEL      225
REMARK 921   NORMALIZED FREE ENERGY PREDICTED BY IDOCK:   -2.34 KCAL/MOL
REMARK 922        TOTAL FREE ENERGY PREDICTED BY IDOCK:   -3.38 KCAL/MOL
REMARK 923 INTER-LIGAND FREE ENERGY PREDICTED BY IDOCK:   -3.32 KCAL/MOL
REMARK 924 INTRA-LIGAND FREE ENERGY PREDICTED BY IDOCK:   -0.06 KCAL/MOL
REMARK 927      BINDING AFFINITY PREDICTED BY RF-SCORE:    0.00 PKD
ROOT
HETATM    1  C   UNL     1     -12.026  16.069  68.298  1.00  0.00     0.179 C  
HETATM    2  N   UNL     1     -11.793  15.382  69.582  1.00  0.00    -0.327 NA 
ENDROOT
BRANCH   2   3
HETATM    3  C   UNL     1     -12.720  15.914  70.633  1.00  0.00    -0.104 C  
HETATM    4  C   UNL     1     -12.591  13.950  72.896  1.00  0.00    -0.057 C  
HETATM    5  C   UNL     1     -12.024  16.224  71.982  1.00  0.00    -0.544 C  
HETATM    6  C   UNL     1     -13.886  14.949  70.966  1.00  0.00    -0.332 C  
HETATM    7  C   UNL     1     -13.405  13.662  71.635  1.00  0.00    -0.424 C  
HETATM    8  C   UNL     1     -11.476  14.961  72.644  1.00  0.00    -0.066 C  
ENDBRANCH   2   3
BRANCH   2   9
HETATM    9  C   UNL     1     -10.374  15.547  69.999  1.00  0.00    -0.302 C  
BRANCH   9  10
HETATM   10  C   UNL     1      -9.306  15.133  68.993  1.00  0.00    -0.219 A  
HETATM   11  C   UNL     1      -7.371  14.469  67.047  1.00  0.00     0.275 A  
HETATM   12 BR   UNL     1      -6.199  17.063  66.966  1.00  0.00    -0.241 Br 
HETATM   13  C   UNL     1      -8.402  16.097  68.499  1.00  0.00    -0.195 A  
HETATM   14  C   UNL     1      -7.432  15.758  67.558  1.00  0.00    -0.172 A  
HETATM   15  C   UNL     1      -8.297  13.522  67.480  1.00  0.00    -0.184 A  
HETATM   16 BR   UNL     1      -8.204  11.783  66.704  1.00  0.00    -0.065 Br 
HETATM   17  C   UNL     1      -9.259  13.818  68.472  1.00  0.00    -0.138 A  
HETATM   18  N   UNL     1     -10.287  12.890  68.745  1.00  0.00    -0.405 NA 
HETATM   19  H1  UNL     1     -10.254  11.942  68.370  1.00  0.00     0.000 HD 
HETATM   20  H2  UNL     1     -11.174  13.309  68.467  1.00  0.00     0.000 HD 
ENDBRANCH   9  10
ENDBRANCH   2   9
TORSDOF 3
ENDMDL
MODEL      226
REMARK 921   NORMALIZED FREE ENERGY PREDICTED BY IDOCK:   -2.34 KCAL/MOL
REMARK 922        TOTAL FREE ENERGY PREDICTED BY IDOCK:   -3.38 KCAL/MOL
REMARK 923 INTER-LIGAND FREE ENERGY PREDICTED BY IDOCK:   -3.81 KCAL/MOL
REMARK 924 INTRA-LIGAND FREE ENERGY PREDICTED BY IDOCK:    0.43 KCAL/MOL
REMARK 927      BINDING AFFINITY PREDICTED BY RF-SCORE:    0.00 PKD
ROOT
HETATM    1  C   UNL     1     -11.039   7.456  72.426  1.00  0.00    -0.287 C  
HETATM    2  N   UNL     1     -10.887   6.144  71.770  1.00  0.00    -0.245 NA 
ENDROOT
BRANCH   2   3
HETATM    3  C   UNL     1      -9.589   5.510  72.168  1.00  0.00    -0.150 C  
HETATM    4  C   UNL     1     -10.308   3.349  74.120  1.00  0.00    -0.241 C  
HETATM    5  C   UNL     1      -9.499   4.001  71.829  1.00  0.00    -0.210 C  
HETATM    6  C   UNL     1      -9.292   5.624  73.686  1.00  0.00    -0.137 C  
HETATM    7  C   UNL     1     -10.276   4.819  74.535  1.00  0.00    -0.302 C  
HETATM    8  C   UNL     1     -10.517   3.178  72.618  1.00  0.00    -0.175 C  
ENDBRANCH   2   3
BRANCH   2   9
HETATM    9  C   UNL     1     -10.965   6.300  70.291  1.00  0.00    -0.337 C  
BRANCH   9  10
HETATM   10  C   UNL     1     -10.257   7.507  69.686  1.00  0.00    -0.205 A  
HETATM   11  C   UNL     1      -8.844   9.724  68.657  1.00  0.00    -0.126 A  
HETATM   12 BR   UNL     1      -6.445   8.278  68.152  1.00  0.00    -0.057 Br 
HETATM   13  C   UNL     1      -8.911   7.393  69.278  1.00  0.00    -0.136 A  
HETATM   14  C   UNL     1      -8.227   8.484  68.745  1.00  0.00    -0.122 A  
HETATM   15  C   UNL     1     -10.153   9.865  69.115  1.00  0.00    -0.200 A  
HETATM   16 BR   UNL     1     -10.934  11.602  69.022  1.00  0.00    -0.284 Br 
HETATM   17  C   UNL     1     -10.894   8.768  69.609  1.00  0.00    -0.169 A  
HETATM   18  N   UNL     1     -12.143   8.991  70.228  1.00  0.00    -0.425 NA 
HETATM   19  H1  UNL     1     -12.603   9.901  70.173  1.00  0.00     0.000 HD 
HETATM   20  H2  UNL     1     -12.058   8.739  71.213  1.00  0.00     0.000 HD 
ENDBRANCH   9  10
ENDBRANCH   2   9
TORSDOF 3
ENDMDL
MODEL      227
REMARK 921   NORMALIZED FREE ENERGY PREDICTED BY IDOCK:   -2.29 KCAL/MOL
REMARK 922        TOTAL FREE ENERGY PREDICTED BY IDOCK:   -3.32 KCAL/MOL
REMARK 923 INTER-LIGAND FREE ENERGY PREDICTED BY IDOCK:   -3.24 KCAL/MOL
REMARK 924 INTRA-LIGAND FREE ENERGY PREDICTED BY IDOCK:   -0.09 KCAL/MOL
REMARK 927      BINDING AFFINITY PREDICTED BY RF-SCORE:    0.00 PKD
ROOT
HETATM    1  C   UNL     1      -7.407  15.971  66.560  1.00  0.00     0.092 C  
HETATM    2  N   UNL     1      -8.223  15.398  67.647  1.00  0.00    -0.148 NA 
ENDROOT
BRANCH   2   3
HETATM    3  C   UNL     1      -8.455  16.419  68.718  1.00  0.00    -0.249 C  
HETATM    4  C   UNL     1     -10.650  18.187  67.692  1.00  0.00    -0.424 C  
HETATM    5  C   UNL     1      -9.892  16.404  69.297  1.00  0.00    -0.240 C  
HETATM    6  C   UNL     1      -8.202  17.873  68.243  1.00  0.00    -0.292 C  
HETATM    7  C   UNL     1      -9.214  18.328  67.192  1.00  0.00    -0.264 C  
HETATM    8  C   UNL     1     -10.933  16.794  68.248  1.00  0.00    -0.327 C  
ENDBRANCH   2   3
BRANCH   2   9
HETATM    9  C   UNL     1      -7.555  14.191  68.206  1.00  0.00    -0.130 C  
BRANCH   9  10
HETATM   10  C   UNL     1      -8.193  12.841  67.895  1.00  0.00    -0.168 A  
HETATM   11  C   UNL     1      -9.418  10.337  67.452  1.00  0.00    -0.174 A  
HETATM   12 BR   UNL     1     -11.995  11.159  68.340  1.00  0.00    -0.062 Br 
HETATM   13  C   UNL     1      -9.552  12.624  68.209  1.00  0.00    -0.208 A  
HETATM   14  C   UNL     1     -10.158  11.394  67.963  1.00  0.00    -0.180 A  
HETATM   15  C   UNL     1      -8.061  10.519  67.195  1.00  0.00    -0.120 A  
HETATM   16 BR   UNL     1      -7.080   9.019  66.545  1.00  0.00    -0.081 Br 
HETATM   17  C   UNL     1      -7.427  11.769  67.382  1.00  0.00    -0.143 A  
HETATM   18  N   UNL     1      -6.021  11.859  67.284  1.00  0.00    -0.119 NA 
HETATM   19  H1  UNL     1      -5.468  11.086  66.914  1.00  0.00     0.000 HD 
HETATM   20  H2  UNL     1      -5.655  12.097  68.206  1.00  0.00     0.000 HD 
ENDBRANCH   9  10
ENDBRANCH   2   9
TORSDOF 3
ENDMDL
MODEL      228
REMARK 921   NORMALIZED FREE ENERGY PREDICTED BY IDOCK:   -2.29 KCAL/MOL
REMARK 922        TOTAL FREE ENERGY PREDICTED BY IDOCK:   -3.32 KCAL/MOL
REMARK 923 INTER-LIGAND FREE ENERGY PREDICTED BY IDOCK:   -2.84 KCAL/MOL
REMARK 924 INTRA-LIGAND FREE ENERGY PREDICTED BY IDOCK:   -0.48 KCAL/MOL
REMARK 927      BINDING AFFINITY PREDICTED BY RF-SCORE:    0.00 PKD
ROOT
HETATM    1  C   UNL     1     -10.212  11.134  66.135  1.00  0.00    -0.244 C  
HETATM    2  N   UNL     1      -9.728   9.855  66.685  1.00  0.00    -0.187 NA 
ENDROOT
BRANCH   2   3
HETATM    3  C   UNL     1      -9.589   8.838  65.594  1.00  0.00    -0.035 C  
HETATM    4  C   UNL     1      -6.638   8.465  65.205  1.00  0.00    -0.056 C  
HETATM    5  C   UNL     1      -8.835   7.555  66.026  1.00  0.00    -0.179 C  
HETATM    6  C   UNL     1      -8.837   9.375  64.349  1.00  0.00    -0.225 C  
HETATM    7  C   UNL     1      -7.369   9.682  64.641  1.00  0.00    -0.123 C  
HETATM    8  C   UNL     1      -7.378   7.844  66.386  1.00  0.00    -0.086 C  
ENDBRANCH   2   3
BRANCH   2   9
HETATM    9  C   UNL     1     -10.657   9.369  67.742  1.00  0.00    -0.258 C  
BRANCH   9  10
HETATM   10  C   UNL     1     -10.030   8.886  69.045  1.00  0.00    -0.195 A  
HETATM   11  C   UNL     1      -8.982   8.036  71.525  1.00  0.00    -0.180 A  
HETATM   12 BR   UNL     1     -11.210   6.393  72.187  1.00  0.00    -0.337 Br 
HETATM   13  C   UNL     1     -10.761   8.029  69.894  1.00  0.00    -0.242 A  
HETATM   14  C   UNL     1     -10.227   7.591  71.105  1.00  0.00    -0.193 A  
HETATM   15  C   UNL     1      -8.276   8.932  70.724  1.00  0.00    -0.171 A  
HETATM   16 BR   UNL     1      -6.595   9.555  71.374  1.00  0.00     0.153 Br 
HETATM   17  C   UNL     1      -8.763   9.354  69.466  1.00  0.00    -0.161 A  
HETATM   18  N   UNL     1      -8.106  10.397  68.778  1.00  0.00    -0.117 NA 
HETATM   19  H1  UNL     1      -7.192  10.735  69.082  1.00  0.00     0.000 HD 
HETATM   20  H2  UNL     1      -8.740  11.195  68.734  1.00  0.00     0.000 HD 
ENDBRANCH   9  10
ENDBRANCH   2   9
TORSDOF 3
ENDMDL
MODEL      229
REMARK 921   NORMALIZED FREE ENERGY PREDICTED BY IDOCK:   -2.26 KCAL/MOL
REMARK 922        TOTAL FREE ENERGY PREDICTED BY IDOCK:   -3.28 KCAL/MOL
REMARK 923 INTER-LIGAND FREE ENERGY PREDICTED BY IDOCK:   -3.38 KCAL/MOL
REMARK 924 INTRA-LIGAND FREE ENERGY PREDICTED BY IDOCK:    0.09 KCAL/MOL
REMARK 927      BINDING AFFINITY PREDICTED BY RF-SCORE:    0.00 PKD
ROOT
HETATM    1  C   UNL     1      -7.805   9.617  66.795  1.00  0.00    -0.102 C  
HETATM    2  N   UNL     1      -8.338   8.962  68.004  1.00  0.00    -0.121 NA 
ENDROOT
BRANCH   2   3
HETATM    3  C   UNL     1      -9.189   7.788  67.628  1.00  0.00    -0.136 C  
HETATM    4  C   UNL     1      -8.017   5.440  69.080  1.00  0.00    -0.094 C  
HETATM    5  C   UNL     1      -9.884   7.107  68.833  1.00  0.00    -0.156 C  
HETATM    6  C   UNL     1      -8.400   6.668  66.902  1.00  0.00    -0.114 C  
HETATM    7  C   UNL     1      -7.372   5.995  67.811  1.00  0.00    -0.077 C  
HETATM    8  C   UNL     1      -8.875   6.480  69.794  1.00  0.00    -0.143 C  
ENDBRANCH   2   3
BRANCH   2   9
HETATM    9  C   UNL     1      -9.116   9.940  68.813  1.00  0.00    -0.147 C  
BRANCH   9  10
HETATM   10  C   UNL     1      -9.300  11.334  68.224  1.00  0.00    -0.180 A  
HETATM   11  C   UNL     1      -9.590  13.969  67.253  1.00  0.00    -0.238 A  
HETATM   12 BR   UNL     1      -6.867  14.689  67.669  1.00  0.00    -0.181 Br 
HETATM   13  C   UNL     1      -8.216  12.237  68.220  1.00  0.00    -0.167 A  
HETATM   14  C   UNL     1      -8.358  13.528  67.715  1.00  0.00    -0.181 A  
HETATM   15  C   UNL     1     -10.684  13.107  67.308  1.00  0.00    -0.254 A  
HETATM   16 BR   UNL     1     -12.365  13.782  66.712  1.00  0.00    -0.270 Br 
HETATM   17  C   UNL     1     -10.563  11.775  67.764  1.00  0.00    -0.200 A  
HETATM   18  N   UNL     1     -11.725  11.001  67.974  1.00  0.00    -0.616 NA 
HETATM   19  H1  UNL     1     -12.637  11.319  67.642  1.00  0.00     0.000 HD 
HETATM   20  H2  UNL     1     -11.802  10.811  68.973  1.00  0.00     0.000 HD 
ENDBRANCH   9  10
ENDBRANCH   2   9
TORSDOF 3
ENDMDL
MODEL      230
REMARK 921   NORMALIZED FREE ENERGY PREDICTED BY IDOCK:   -2.25 KCAL/MOL
REMARK 922        TOTAL FREE ENERGY PREDICTED BY IDOCK:   -3.27 KCAL/MOL
REMARK 923 INTER-LIGAND FREE ENERGY PREDICTED BY IDOCK:   -3.35 KCAL/MOL
REMARK 924 INTRA-LIGAND FREE ENERGY PREDICTED BY IDOCK:    0.08 KCAL/MOL
REMARK 927      BINDING AFFINITY PREDICTED BY RF-SCORE:    0.00 PKD
ROOT
HETATM    1  C   UNL     1      -9.824   8.602  69.154  1.00  0.00    -0.185 C  
HETATM    2  N   UNL     1      -9.351   7.508  68.285  1.00  0.00    -0.141 NA 
ENDROOT
BRANCH   2   3
HETATM    3  C   UNL     1      -9.796   7.735  66.873  1.00  0.00    -0.235 C  
HETATM    4  C   UNL     1      -7.280   8.018  65.266  1.00  0.00    -0.064 C  
HETATM    5  C   UNL     1      -9.302   6.654  65.879  1.00  0.00     0.040 C  
HETATM    6  C   UNL     1      -9.325   9.094  66.293  1.00  0.00    -0.274 C  
HETATM    7  C   UNL     1      -7.808   9.163  66.129  1.00  0.00    -0.103 C  
HETATM    8  C   UNL     1      -7.780   6.658  65.743  1.00  0.00    -0.092 C  
ENDBRANCH   2   3
BRANCH   2   9
HETATM    9  C   UNL     1      -9.852   6.201  68.792  1.00  0.00    -0.136 C  
BRANCH   9  10
HETATM   10  C   UNL     1     -10.428   6.181  70.203  1.00  0.00    -0.291 A  
HETATM   11  C   UNL     1     -11.528   6.280  72.802  1.00  0.00    -0.199 A  
HETATM   12 BR   UNL     1     -14.086   7.197  71.955  1.00  0.00    -0.300 Br 
HETATM   13  C   UNL     1     -11.747   6.629  70.424  1.00  0.00    -0.446 A  
HETATM   14  C   UNL     1     -12.294   6.650  71.706  1.00  0.00    -0.337 A  
HETATM   15  C   UNL     1     -10.202   5.895  72.605  1.00  0.00    -0.183 A  
HETATM   16 BR   UNL     1      -9.178   5.450  74.150  1.00  0.00    -0.123 Br 
HETATM   17  C   UNL     1      -9.633   5.810  71.314  1.00  0.00    -0.166 A  
HETATM   18  N   UNL     1      -8.245   5.595  71.176  1.00  0.00    -0.119 NA 
HETATM   19  H1  UNL     1      -7.672   5.327  71.977  1.00  0.00     0.000 HD 
HETATM   20  H2  UNL     1      -7.835   6.431  70.759  1.00  0.00     0.000 HD 
ENDBRANCH   9  10
ENDBRANCH   2   9
TORSDOF 3
ENDMDL
MODEL      231
REMARK 921   NORMALIZED FREE ENERGY PREDICTED BY IDOCK:   -2.24 KCAL/MOL
REMARK 922        TOTAL FREE ENERGY PREDICTED BY IDOCK:   -3.26 KCAL/MOL
REMARK 923 INTER-LIGAND FREE ENERGY PREDICTED BY IDOCK:   -3.41 KCAL/MOL
REMARK 924 INTRA-LIGAND FREE ENERGY PREDICTED BY IDOCK:    0.14 KCAL/MOL
REMARK 927      BINDING AFFINITY PREDICTED BY RF-SCORE:    0.00 PKD
ROOT
HETATM    1  C   UNL     1      -7.666  11.217  66.778  1.00  0.00    -0.155 C  
HETATM    2  N   UNL     1      -8.291  10.109  67.524  1.00  0.00    -0.118 NA 
ENDROOT
BRANCH   2   3
HETATM    3  C   UNL     1      -7.702   8.798  67.101  1.00  0.00    -0.096 C  
HETATM    4  C   UNL     1      -5.286   8.401  68.834  1.00  0.00    -0.032 C  
HETATM    5  C   UNL     1      -7.640   7.746  68.236  1.00  0.00    -0.109 C  
HETATM    6  C   UNL     1      -6.255   8.925  66.557  1.00  0.00    -0.061 C  
HETATM    7  C   UNL     1      -5.261   9.350  67.637  1.00  0.00    -0.037 C  
HETATM    8  C   UNL     1      -6.700   8.175  69.361  1.00  0.00    -0.042 C  
ENDBRANCH   2   3
BRANCH   2   9
HETATM    9  C   UNL     1      -9.765  10.117  67.310  1.00  0.00    -0.167 C  
BRANCH   9  10
HETATM   10  C   UNL     1     -10.642  10.270  68.547  1.00  0.00    -0.240 A  
HETATM   11  C   UNL     1     -12.171  10.643  70.891  1.00  0.00    -0.497 A  
HETATM   12 BR   UNL     1     -12.334  13.474  70.634  1.00  0.00    -0.400 Br 
HETATM   13  C   UNL     1     -11.018  11.560  68.979  1.00  0.00    -0.285 A  
HETATM   14  C   UNL     1     -11.796  11.736  70.122  1.00  0.00    -0.324 A  
HETATM   15  C   UNL     1     -11.753   9.369  70.510  1.00  0.00    -0.198 A  
HETATM   16 BR   UNL     1     -12.249   7.910  71.632  1.00  0.00    -0.360 Br 
HETATM   17  C   UNL     1     -11.010   9.150  69.328  1.00  0.00    -0.061 A  
HETATM   18  N   UNL     1     -10.455   7.875  69.080  1.00  0.00    -0.225 NA 
HETATM   19  H1  UNL     1     -10.721   7.067  69.643  1.00  0.00     0.000 HD 
HETATM   20  H2  UNL     1      -9.439   7.962  69.110  1.00  0.00     0.000 HD 
ENDBRANCH   9  10
ENDBRANCH   2   9
TORSDOF 3
ENDMDL
MODEL      232
REMARK 921   NORMALIZED FREE ENERGY PREDICTED BY IDOCK:   -2.23 KCAL/MOL
REMARK 922        TOTAL FREE ENERGY PREDICTED BY IDOCK:   -3.25 KCAL/MOL
REMARK 923 INTER-LIGAND FREE ENERGY PREDICTED BY IDOCK:   -3.62 KCAL/MOL
REMARK 924 INTRA-LIGAND FREE ENERGY PREDICTED BY IDOCK:    0.36 KCAL/MOL
REMARK 927      BINDING AFFINITY PREDICTED BY RF-SCORE:    0.00 PKD
ROOT
HETATM    1  C   UNL     1      -9.927  10.849  65.159  1.00  0.00    -0.284 C  
HETATM    2  N   UNL     1      -9.688  10.448  66.557  1.00  0.00    -0.186 NA 
ENDROOT
BRANCH   2   3
HETATM    3  C   UNL     1      -9.991   8.992  66.741  1.00  0.00    -0.263 C  
HETATM    4  C   UNL     1      -7.405   7.724  67.578  1.00  0.00    -0.092 C  
HETATM    5  C   UNL     1      -9.731   8.474  68.177  1.00  0.00    -0.175 C  
HETATM    6  C   UNL     1      -9.170   8.072  65.800  1.00  0.00    -0.068 C  
HETATM    7  C   UNL     1      -7.676   8.095  66.121  1.00  0.00    -0.090 C  
HETATM    8  C   UNL     1      -8.250   8.544  68.549  1.00  0.00    -0.123 C  
ENDBRANCH   2   3
BRANCH   2   9
HETATM    9  C   UNL     1     -10.515  11.277  67.476  1.00  0.00    -0.201 C  
BRANCH   9  10
HETATM   10  C   UNL     1     -10.599  12.769  67.173  1.00  0.00    -0.249 A  
HETATM   11  C   UNL     1     -10.700  15.505  66.485  1.00  0.00    -0.304 A  
HETATM   12 BR   UNL     1     -12.253  15.113  64.131  1.00  0.00     0.054 Br 
HETATM   13  C   UNL     1     -11.249  13.206  65.999  1.00  0.00    -0.316 A  
HETATM   14  C   UNL     1     -11.320  14.560  65.679  1.00  0.00    -0.336 A  
HETATM   15  C   UNL     1     -10.001  15.081  67.614  1.00  0.00    -0.225 A  
HETATM   16 BR   UNL     1      -9.123  16.415  68.655  1.00  0.00    -0.241 Br 
HETATM   17  C   UNL     1      -9.956  13.722  67.997  1.00  0.00    -0.246 A  
HETATM   18  N   UNL     1      -9.090  13.319  69.037  1.00  0.00    -0.271 NA 
HETATM   19  H1  UNL     1      -8.626  14.006  69.632  1.00  0.00     0.000 HD 
HETATM   20  H2  UNL     1      -8.374  12.714  68.635  1.00  0.00     0.000 HD 
ENDBRANCH   9  10
ENDBRANCH   2   9
TORSDOF 3
ENDMDL
MODEL      233
REMARK 921   NORMALIZED FREE ENERGY PREDICTED BY IDOCK:   -2.22 KCAL/MOL
REMARK 922        TOTAL FREE ENERGY PREDICTED BY IDOCK:   -3.24 KCAL/MOL
REMARK 923 INTER-LIGAND FREE ENERGY PREDICTED BY IDOCK:   -3.47 KCAL/MOL
REMARK 924 INTRA-LIGAND FREE ENERGY PREDICTED BY IDOCK:    0.24 KCAL/MOL
REMARK 927      BINDING AFFINITY PREDICTED BY RF-SCORE:    0.00 PKD
ROOT
HETATM    1  C   UNL     1     -11.735   7.410  70.458  1.00  0.00    -0.191 C  
HETATM    2  N   UNL     1     -10.607   7.145  69.546  1.00  0.00    -0.229 NA 
ENDROOT
BRANCH   2   3
HETATM    3  C   UNL     1      -9.384   7.881  70.002  1.00  0.00    -0.157 C  
HETATM    4  C   UNL     1      -8.282   6.283  72.288  1.00  0.00    -0.108 C  
HETATM    5  C   UNL     1      -8.080   7.050  69.901  1.00  0.00    -0.125 C  
HETATM    6  C   UNL     1      -9.471   8.361  71.473  1.00  0.00    -0.267 C  
HETATM    7  C   UNL     1      -9.491   7.199  72.466  1.00  0.00    -0.167 C  
HETATM    8  C   UNL     1      -8.099   5.844  70.838  1.00  0.00    -0.120 C  
ENDBRANCH   2   3
BRANCH   2   9
HETATM    9  C   UNL     1     -10.970   7.537  68.156  1.00  0.00     0.097 C  
BRANCH   9  10
HETATM   10  C   UNL     1     -10.272   8.764  67.580  1.00  0.00    -0.309 A  
HETATM   11  C   UNL     1      -8.861  10.995  66.578  1.00  0.00    -0.173 A  
HETATM   12 BR   UNL     1      -6.791   9.459  65.370  1.00  0.00    -0.082 Br 
HETATM   13  C   UNL     1      -9.058   8.608  66.876  1.00  0.00    -0.175 A  
HETATM   14  C   UNL     1      -8.381   9.711  66.361  1.00  0.00    -0.119 A  
HETATM   15  C   UNL     1     -10.026  11.166  67.325  1.00  0.00    -0.184 A  
HETATM   16 BR   UNL     1     -10.611  12.953  67.640  1.00  0.00    -0.241 Br 
HETATM   17  C   UNL     1     -10.767  10.067  67.816  1.00  0.00    -0.280 A  
HETATM   18  N   UNL     1     -11.831  10.291  68.717  1.00  0.00    -0.644 NA 
HETATM   19  H1  UNL     1     -12.188  11.231  68.887  1.00  0.00     0.000 HD 
HETATM   20  H2  UNL     1     -11.575   9.882  69.616  1.00  0.00     0.000 HD 
ENDBRANCH   9  10
ENDBRANCH   2   9
TORSDOF 3
ENDMDL
MODEL      234
REMARK 921   NORMALIZED FREE ENERGY PREDICTED BY IDOCK:   -2.22 KCAL/MOL
REMARK 922        TOTAL FREE ENERGY PREDICTED BY IDOCK:   -3.24 KCAL/MOL
REMARK 923 INTER-LIGAND FREE ENERGY PREDICTED BY IDOCK:   -3.85 KCAL/MOL
REMARK 924 INTRA-LIGAND FREE ENERGY PREDICTED BY IDOCK:    0.62 KCAL/MOL
REMARK 927      BINDING AFFINITY PREDICTED BY RF-SCORE:    0.00 PKD
ROOT
HETATM    1  C   UNL     1     -11.726  12.023  68.655  1.00  0.00    -0.326 C  
HETATM    2  N   UNL     1     -10.657  12.871  68.095  1.00  0.00    -0.230 NA 
ENDROOT
BRANCH   2   3
HETATM    3  C   UNL     1     -10.923  14.314  68.399  1.00  0.00    -0.253 C  
HETATM    4  C   UNL     1      -8.719  15.844  67.060  1.00  0.00    -0.248 C  
HETATM    5  C   UNL     1     -11.145  15.187  67.139  1.00  0.00    -0.335 C  
HETATM    6  C   UNL     1      -9.779  14.994  69.193  1.00  0.00    -0.212 C  
HETATM    7  C   UNL     1      -8.490  15.107  68.379  1.00  0.00    -0.157 C  
HETATM    8  C   UNL     1      -9.890  15.267  66.271  1.00  0.00    -0.316 C  
ENDBRANCH   2   3
BRANCH   2   9
HETATM    9  C   UNL     1     -10.548  12.653  66.627  1.00  0.00    -0.248 C  
BRANCH   9  10
HETATM   10  C   UNL     1      -9.484  11.669  66.151  1.00  0.00    -0.240 A  
HETATM   11  C   UNL     1      -7.618   9.755  65.243  1.00  0.00    -0.119 A  
HETATM   12 BR   UNL     1      -8.829   9.419  62.689  1.00  0.00    -0.207 Br 
HETATM   13  C   UNL     1      -9.606  11.073  64.878  1.00  0.00    -0.289 A  
HETATM   14  C   UNL     1      -8.667  10.149  64.424  1.00  0.00    -0.202 A  
HETATM   15  C   UNL     1      -7.521  10.290  66.527  1.00  0.00    -0.113 A  
HETATM   16 BR   UNL     1      -6.093   9.673  67.630  1.00  0.00    -0.052 Br 
HETATM   17  C   UNL     1      -8.425  11.269  66.999  1.00  0.00    -0.150 A  
HETATM   18  N   UNL     1      -8.399  11.644  68.359  1.00  0.00    -0.154 NA 
HETATM   19  H1  UNL     1      -7.634  11.355  68.971  1.00  0.00     0.000 HD 
HETATM   20  H2  UNL     1      -9.276  11.344  68.787  1.00  0.00     0.000 HD 
ENDBRANCH   9  10
ENDBRANCH   2   9
TORSDOF 3
ENDMDL
MODEL      235
REMARK 921   NORMALIZED FREE ENERGY PREDICTED BY IDOCK:   -2.19 KCAL/MOL
REMARK 922        TOTAL FREE ENERGY PREDICTED BY IDOCK:   -3.20 KCAL/MOL
REMARK 923 INTER-LIGAND FREE ENERGY PREDICTED BY IDOCK:   -3.33 KCAL/MOL
REMARK 924 INTRA-LIGAND FREE ENERGY PREDICTED BY IDOCK:    0.13 KCAL/MOL
REMARK 927      BINDING AFFINITY PREDICTED BY RF-SCORE:    0.00 PKD
ROOT
HETATM    1  C   UNL     1      -6.555   8.571  67.806  1.00  0.00    -0.062 C  
HETATM    2  N   UNL     1      -7.644   9.541  67.585  1.00  0.00    -0.094 NA 
ENDROOT
BRANCH   2   3
HETATM    3  C   UNL     1      -7.256  10.528  66.526  1.00  0.00    -0.124 C  
HETATM    4  C   UNL     1      -7.273   8.998  63.946  1.00  0.00    -0.096 C  
HETATM    5  C   UNL     1      -8.334  10.728  65.432  1.00  0.00    -0.104 C  
HETATM    6  C   UNL     1      -5.955  10.142  65.777  1.00  0.00    -0.088 C  
HETATM    7  C   UNL     1      -6.118   8.875  64.939  1.00  0.00    -0.064 C  
HETATM    8  C   UNL     1      -8.565   9.456  64.618  1.00  0.00    -0.209 C  
ENDBRANCH   2   3
BRANCH   2   9
HETATM    9  C   UNL     1      -7.975  10.237  68.858  1.00  0.00    -0.113 C  
BRANCH   9  10
HETATM   10  C   UNL     1      -9.414  10.709  69.034  1.00  0.00    -0.202 A  
HETATM   11  C   UNL     1     -12.029  11.702  69.415  1.00  0.00    -0.381 A  
HETATM   12 BR   UNL     1     -11.602  14.101  67.944  1.00  0.00    -0.392 Br 
HETATM   13  C   UNL     1      -9.802  11.966  68.526  1.00  0.00    -0.187 A  
HETATM   14  C   UNL     1     -11.102  12.440  68.693  1.00  0.00    -0.257 A  
HETATM   15  C   UNL     1     -11.642  10.486  69.977  1.00  0.00    -0.313 A  
HETATM   16 BR   UNL     1     -12.938   9.540  71.005  1.00  0.00    -0.221 Br 
HETATM   17  C   UNL     1     -10.348   9.952  69.780  1.00  0.00    -0.246 A  
HETATM   18  N   UNL     1      -9.944   8.816  70.514  1.00  0.00    -0.181 NA 
HETATM   19  H1  UNL     1     -10.617   8.269  71.052  1.00  0.00     0.000 HD 
HETATM   20  H2  UNL     1      -9.191   9.096  71.142  1.00  0.00     0.000 HD 
ENDBRANCH   9  10
ENDBRANCH   2   9
TORSDOF 3
ENDMDL
MODEL      236
REMARK 921   NORMALIZED FREE ENERGY PREDICTED BY IDOCK:   -2.18 KCAL/MOL
REMARK 922        TOTAL FREE ENERGY PREDICTED BY IDOCK:   -3.19 KCAL/MOL
REMARK 923 INTER-LIGAND FREE ENERGY PREDICTED BY IDOCK:   -2.78 KCAL/MOL
REMARK 924 INTRA-LIGAND FREE ENERGY PREDICTED BY IDOCK:   -0.41 KCAL/MOL
REMARK 927      BINDING AFFINITY PREDICTED BY RF-SCORE:    0.00 PKD
ROOT
HETATM    1  C   UNL     1     -11.712   7.157  70.473  1.00  0.00    -0.272 C  
HETATM    2  N   UNL     1     -10.470   7.274  69.686  1.00  0.00    -0.225 NA 
ENDROOT
BRANCH   2   3
HETATM    3  C   UNL     1      -9.451   8.075  70.436  1.00  0.00    -0.166 C  
HETATM    4  C   UNL     1      -7.773   6.074  71.912  1.00  0.00    -0.098 C  
HETATM    5  C   UNL     1      -7.987   7.748  70.047  1.00  0.00    -0.113 C  
HETATM    6  C   UNL     1      -9.535   7.888  71.973  1.00  0.00    -0.230 C  
HETATM    7  C   UNL     1      -9.162   6.471  72.410  1.00  0.00    -0.137 C  
HETATM    8  C   UNL     1      -7.606   6.315  70.415  1.00  0.00    -0.096 C  
ENDBRANCH   2   3
BRANCH   2   9
HETATM    9  C   UNL     1     -10.760   7.896  68.364  1.00  0.00    -0.021 C  
BRANCH   9  10
HETATM   10  C   UNL     1      -9.881   7.471  67.193  1.00  0.00    -0.263 A  
HETATM   11  C   UNL     1      -8.193   6.589  65.109  1.00  0.00    -0.126 A  
HETATM   12 BR   UNL     1      -8.993   3.862  65.276  1.00  0.00    -0.140 Br 
HETATM   13  C   UNL     1      -9.818   6.110  66.827  1.00  0.00    -0.203 A  
HETATM   14  C   UNL     1      -9.004   5.684  65.779  1.00  0.00    -0.147 A  
HETATM   15  C   UNL     1      -8.199   7.927  65.502  1.00  0.00    -0.140 A  
HETATM   16 BR   UNL     1      -7.026   9.117  64.584  1.00  0.00    -0.092 Br 
HETATM   17  C   UNL     1      -9.052   8.401  66.524  1.00  0.00    -0.176 A  
HETATM   18  N   UNL     1      -8.893   9.717  67.010  1.00  0.00    -0.134 NA 
HETATM   19  H1  UNL     1      -8.296  10.388  66.527  1.00  0.00     0.000 HD 
HETATM   20  H2  UNL     1      -8.584   9.660  67.981  1.00  0.00     0.000 HD 
ENDBRANCH   9  10
ENDBRANCH   2   9
TORSDOF 3
ENDMDL
MODEL      237
REMARK 921   NORMALIZED FREE ENERGY PREDICTED BY IDOCK:   -2.16 KCAL/MOL
REMARK 922        TOTAL FREE ENERGY PREDICTED BY IDOCK:   -3.17 KCAL/MOL
REMARK 923 INTER-LIGAND FREE ENERGY PREDICTED BY IDOCK:   -2.69 KCAL/MOL
REMARK 924 INTRA-LIGAND FREE ENERGY PREDICTED BY IDOCK:   -0.48 KCAL/MOL
REMARK 927      BINDING AFFINITY PREDICTED BY RF-SCORE:    0.00 PKD
ROOT
HETATM    1  C   UNL     1     -10.204   8.767  69.273  1.00  0.00    -0.210 C  
HETATM    2  N   UNL     1     -10.115   7.500  68.524  1.00  0.00    -0.179 NA 
ENDROOT
BRANCH   2   3
HETATM    3  C   UNL     1     -10.696   7.663  67.153  1.00  0.00    -0.290 C  
HETATM    4  C   UNL     1      -8.356   7.678  65.277  1.00  0.00    -0.121 C  
HETATM    5  C   UNL     1     -10.375   6.491  66.193  1.00  0.00     0.302 C  
HETATM    6  C   UNL     1     -10.213   8.948  66.432  1.00  0.00    -0.273 C  
HETATM    7  C   UNL     1      -8.720   8.909  66.106  1.00  0.00    -0.177 C  
HETATM    8  C   UNL     1      -8.879   6.387  65.900  1.00  0.00    -0.142 C  
ENDBRANCH   2   3
BRANCH   2   9
HETATM    9  C   UNL     1     -10.815   6.417  69.267  1.00  0.00    -0.327 C  
BRANCH   9  10
HETATM   10  C   UNL     1     -10.003   5.659  70.312  1.00  0.00    -0.269 A  
HETATM   11  C   UNL     1      -8.453   4.381  72.296  1.00  0.00    -0.110 A  
HETATM   12 BR   UNL     1      -9.623   5.792  74.474  1.00  0.00    -0.227 Br 
HETATM   13  C   UNL     1     -10.129   6.003  71.675  1.00  0.00    -0.227 A  
HETATM   14  C   UNL     1      -9.381   5.349  72.653  1.00  0.00    -0.140 A  
HETATM   15  C   UNL     1      -8.274   4.076  70.948  1.00  0.00    -0.067 A  
HETATM   16 BR   UNL     1      -6.948   2.779  70.509  1.00  0.00    -0.033 Br 
HETATM   17  C   UNL     1      -9.054   4.681  69.935  1.00  0.00    -0.106 A  
HETATM   18  N   UNL     1      -8.714   4.479  68.580  1.00  0.00    -0.096 NA 
HETATM   19  H1  UNL     1      -8.029   3.773  68.308  1.00  0.00     0.000 HD 
HETATM   20  H2  UNL     1      -8.416   5.375  68.193  1.00  0.00     0.000 HD 
ENDBRANCH   9  10
ENDBRANCH   2   9
TORSDOF 3
ENDMDL
MODEL      238
REMARK 921   NORMALIZED FREE ENERGY PREDICTED BY IDOCK:   -2.15 KCAL/MOL
REMARK 922        TOTAL FREE ENERGY PREDICTED BY IDOCK:   -3.16 KCAL/MOL
REMARK 923 INTER-LIGAND FREE ENERGY PREDICTED BY IDOCK:   -3.21 KCAL/MOL
REMARK 924 INTRA-LIGAND FREE ENERGY PREDICTED BY IDOCK:    0.05 KCAL/MOL
REMARK 927      BINDING AFFINITY PREDICTED BY RF-SCORE:    0.00 PKD
ROOT
HETATM    1  C   UNL     1      -6.828   8.713  68.317  1.00  0.00    -0.066 C  
HETATM    2  N   UNL     1      -8.207   9.203  68.494  1.00  0.00    -0.114 NA 
ENDROOT
BRANCH   2   3
HETATM    3  C   UNL     1      -8.385  10.520  67.802  1.00  0.00    -0.111 C  
HETATM    4  C   UNL     1      -8.968   9.857  64.935  1.00  0.00    -0.246 C  
HETATM    5  C   UNL     1      -9.782  10.705  67.159  1.00  0.00    -0.199 C  
HETATM    6  C   UNL     1      -7.357  10.757  66.665  1.00  0.00    -0.134 C  
HETATM    7  C   UNL     1      -7.547   9.793  65.495  1.00  0.00    -0.118 C  
HETATM    8  C   UNL     1     -10.025   9.710  66.025  1.00  0.00    -0.344 C  
ENDBRANCH   2   3
BRANCH   2   9
HETATM    9  C   UNL     1      -8.526   9.322  69.943  1.00  0.00    -0.163 C  
BRANCH   9  10
HETATM   10  C   UNL     1      -9.999   9.417  70.321  1.00  0.00    -0.284 A  
HETATM   11  C   UNL     1     -12.692   9.671  71.131  1.00  0.00    -0.407 A  
HETATM   12 BR   UNL     1     -12.693  12.518  71.102  1.00  0.00    -0.238 Br 
HETATM   13  C   UNL     1     -10.587  10.683  70.525  1.00  0.00     0.339 A  
HETATM   14  C   UNL     1     -11.924  10.804  70.899  1.00  0.00    -0.333 A  
HETATM   15  C   UNL     1     -12.107   8.414  70.994  1.00  0.00    -0.198 A  
HETATM   16 BR   UNL     1     -13.191   6.894  71.379  1.00  0.00    -0.178 Br 
HETATM   17  C   UNL     1     -10.770   8.255  70.564  1.00  0.00    -0.225 A  
HETATM   18  N   UNL     1     -10.167   6.980  70.617  1.00  0.00    -0.191 NA 
HETATM   19  H1  UNL     1     -10.723   6.142  70.792  1.00  0.00     0.000 HD 
HETATM   20  H2  UNL     1      -9.417   7.012  71.307  1.00  0.00     0.000 HD 
ENDBRANCH   9  10
ENDBRANCH   2   9
TORSDOF 3
ENDMDL
MODEL      239
REMARK 921   NORMALIZED FREE ENERGY PREDICTED BY IDOCK:   -2.09 KCAL/MOL
REMARK 922        TOTAL FREE ENERGY PREDICTED BY IDOCK:   -3.08 KCAL/MOL
REMARK 923 INTER-LIGAND FREE ENERGY PREDICTED BY IDOCK:   -4.05 KCAL/MOL
REMARK 924 INTRA-LIGAND FREE ENERGY PREDICTED BY IDOCK:    0.96 KCAL/MOL
REMARK 927      BINDING AFFINITY PREDICTED BY RF-SCORE:    0.00 PKD
ROOT
HETATM    1  C   UNL     1      -9.384   5.419  73.280  1.00  0.00    -0.135 C  
HETATM    2  N   UNL     1     -10.214   4.496  72.483  1.00  0.00    -0.181 NA 
ENDROOT
BRANCH   2   3
HETATM    3  C   UNL     1      -9.587   3.136  72.441  1.00  0.00    -0.130 C  
HETATM    4  C   UNL     1      -7.255   3.375  70.569  1.00  0.00    -0.037 C  
HETATM    5  C   UNL     1      -8.113   3.111  72.919  1.00  0.00    -0.072 C  
HETATM    6  C   UNL     1      -9.586   2.505  71.024  1.00  0.00    -0.206 C  
HETATM    7  C   UNL     1      -8.688   3.264  70.048  1.00  0.00    -0.130 C  
HETATM    8  C   UNL     1      -7.200   3.916  71.995  1.00  0.00    -0.054 C  
ENDBRANCH   2   3
BRANCH   2   9
HETATM    9  C   UNL     1     -10.397   5.034  71.107  1.00  0.00    -0.184 C  
BRANCH   9  10
HETATM   10  C   UNL     1     -10.756   6.511  70.984  1.00  0.00    -0.289 A  
HETATM   11  C   UNL     1     -11.299   9.276  70.820  1.00  0.00    -0.349 A  
HETATM   12 BR   UNL     1      -8.907   9.917  69.416  1.00  0.00    -0.211 Br 
HETATM   13  C   UNL     1      -9.842   7.402  70.385  1.00  0.00    -0.183 A  
HETATM   14  C   UNL     1     -10.128   8.763  70.282  1.00  0.00    -0.191 A  
HETATM   15  C   UNL     1     -12.182   8.416  71.470  1.00  0.00    -0.302 A  
HETATM   16 BR   UNL     1     -13.749   9.182  72.239  1.00  0.00    -0.543 Br 
HETATM   17  C   UNL     1     -11.950   7.024  71.545  1.00  0.00    -0.334 A  
HETATM   18  N   UNL     1     -12.772   6.223  72.366  1.00  0.00    -0.516 NA 
HETATM   19  H1  UNL     1     -13.633   6.593  72.770  1.00  0.00     0.000 HD 
HETATM   20  H2  UNL     1     -12.198   5.856  73.126  1.00  0.00     0.000 HD 
ENDBRANCH   9  10
ENDBRANCH   2   9
TORSDOF 3
ENDMDL
MODEL      240
REMARK 921   NORMALIZED FREE ENERGY PREDICTED BY IDOCK:   -2.03 KCAL/MOL
REMARK 922        TOTAL FREE ENERGY PREDICTED BY IDOCK:   -3.02 KCAL/MOL
REMARK 923 INTER-LIGAND FREE ENERGY PREDICTED BY IDOCK:   -4.58 KCAL/MOL
REMARK 924 INTRA-LIGAND FREE ENERGY PREDICTED BY IDOCK:    1.56 KCAL/MOL
REMARK 927      BINDING AFFINITY PREDICTED BY RF-SCORE:    0.00 PKD
ROOT
HETATM    1  C   UNL     1     -11.207  13.462  66.885  1.00  0.00    -0.308 C  
HETATM    2  N   UNL     1     -10.696  13.089  68.217  1.00  0.00    -0.237 NA 
ENDROOT
BRANCH   2   3
HETATM    3  C   UNL     1      -9.755  14.138  68.726  1.00  0.00    -0.148 C  
HETATM    4  C   UNL     1     -10.104  16.494  66.903  1.00  0.00    -0.281 C  
HETATM    5  C   UNL     1     -10.456  15.448  69.164  1.00  0.00    -0.239 C  
HETATM    6  C   UNL     1      -8.682  14.555  67.687  1.00  0.00    -0.186 C  
HETATM    7  C   UNL     1      -9.286  15.274  66.482  1.00  0.00    -0.321 C  
HETATM    8  C   UNL     1     -11.124  16.158  67.987  1.00  0.00    -0.317 C  
ENDBRANCH   2   3
BRANCH   2   9
HETATM    9  C   UNL     1     -10.022  11.763  68.153  1.00  0.00    -0.194 C  
BRANCH   9  10
HETATM   10  C   UNL     1     -10.273  10.804  69.312  1.00  0.00    -0.217 A  
HETATM   11  C   UNL     1     -10.713   8.921  71.369  1.00  0.00    -0.382 A  
HETATM   12 BR   UNL     1      -8.186   7.642  71.081  1.00  0.00    -0.101 Br 
HETATM   13  C   UNL     1      -9.312   9.818  69.621  1.00  0.00    -0.237 A  
HETATM   14  C   UNL     1      -9.523   8.909  70.655  1.00  0.00    -0.214 A  
HETATM   15  C   UNL     1     -11.697   9.850  71.032  1.00  0.00    -0.382 A  
HETATM   16 BR   UNL     1     -13.334   9.787  72.007  1.00  0.00    -0.518 Br 
HETATM   17  C   UNL     1     -11.494  10.821  70.026  1.00  0.00    -0.331 A  
HETATM   18  N   UNL     1     -12.578  11.617  69.596  1.00  0.00     0.036 NA 
HETATM   19  H1  UNL     1     -13.459  11.629  70.111  1.00  0.00     0.000 HD 
HETATM   20  H2  UNL     1     -12.782  11.376  68.626  1.00  0.00     0.000 HD 
ENDBRANCH   9  10
ENDBRANCH   2   9
TORSDOF 3
ENDMDL
MODEL      241
REMARK 921   NORMALIZED FREE ENERGY PREDICTED BY IDOCK:   -1.99 KCAL/MOL
REMARK 922        TOTAL FREE ENERGY PREDICTED BY IDOCK:   -2.96 KCAL/MOL
REMARK 923 INTER-LIGAND FREE ENERGY PREDICTED BY IDOCK:   -3.56 KCAL/MOL
REMARK 924 INTRA-LIGAND FREE ENERGY PREDICTED BY IDOCK:    0.60 KCAL/MOL
REMARK 927      BINDING AFFINITY PREDICTED BY RF-SCORE:    0.00 PKD
ROOT
HETATM    1  C   UNL     1      -8.547  14.763  68.767  1.00  0.00    -0.170 C  
HETATM    2  N   UNL     1      -9.069  14.660  67.392  1.00  0.00    -0.190 NA 
ENDROOT
BRANCH   2   3
HETATM    3  C   UNL     1      -9.576  15.992  66.927  1.00  0.00    -0.226 C  
HETATM    4  C   UNL     1      -7.301  17.906  67.316  1.00  0.00    -0.209 C  
HETATM    5  C   UNL     1      -8.767  16.593  65.751  1.00  0.00     0.105 C  
HETATM    6  C   UNL     1      -9.575  17.070  68.041  1.00  0.00    -0.260 C  
HETATM    7  C   UNL     1      -8.163  17.444  68.490  1.00  0.00    -0.268 C  
HETATM    8  C   UNL     1      -7.330  16.918  66.154  1.00  0.00    -0.159 C  
ENDBRANCH   2   3
BRANCH   2   9
HETATM    9  C   UNL     1     -10.147  13.636  67.329  1.00  0.00    -0.239 C  
BRANCH   9  10
HETATM   10  C   UNL     1      -9.781  12.221  67.763  1.00  0.00    -0.199 A  
HETATM   11  C   UNL     1      -9.143   9.554  68.438  1.00  0.00    -0.127 A  
HETATM   12 BR   UNL     1      -7.378   9.156  66.241  1.00  0.00    -0.092 Br 
HETATM   13  C   UNL     1      -8.919  11.447  66.958  1.00  0.00    -0.166 A  
HETATM   14  C   UNL     1      -8.586  10.140  67.311  1.00  0.00    -0.125 A  
HETATM   15  C   UNL     1     -10.045  10.287  69.208  1.00  0.00    -0.227 A  
HETATM   16 BR   UNL     1     -10.824   9.416  70.715  1.00  0.00    -0.403 Br 
HETATM   17  C   UNL     1     -10.363  11.631  68.910  1.00  0.00    -0.153 A  
HETATM   18  N   UNL     1     -11.413  12.270  69.603  1.00  0.00    -0.453 NA 
HETATM   19  H1  UNL     1     -11.833  11.846  70.431  1.00  0.00     0.000 HD 
HETATM   20  H2  UNL     1     -12.159  12.467  68.936  1.00  0.00     0.000 HD 
ENDBRANCH   9  10
ENDBRANCH   2   9
TORSDOF 3
ENDMDL
MODEL      242
REMARK 921   NORMALIZED FREE ENERGY PREDICTED BY IDOCK:   -1.93 KCAL/MOL
REMARK 922        TOTAL FREE ENERGY PREDICTED BY IDOCK:   -2.90 KCAL/MOL
REMARK 923 INTER-LIGAND FREE ENERGY PREDICTED BY IDOCK:   -3.76 KCAL/MOL
REMARK 924 INTRA-LIGAND FREE ENERGY PREDICTED BY IDOCK:    0.87 KCAL/MOL
REMARK 927      BINDING AFFINITY PREDICTED BY RF-SCORE:    0.00 PKD
ROOT
HETATM    1  C   UNL     1      -9.509   8.292  67.763  1.00  0.00    -0.149 C  
HETATM    2  N   UNL     1      -8.886   9.509  68.313  1.00  0.00    -0.124 NA 
ENDROOT
BRANCH   2   3
HETATM    3  C   UNL     1      -7.709   9.915  67.480  1.00  0.00    -0.091 C  
HETATM    4  C   UNL     1      -5.756   7.647  67.677  1.00  0.00    -0.036 C  
HETATM    5  C   UNL     1      -7.413   8.950  66.304  1.00  0.00    -0.091 C  
HETATM    6  C   UNL     1      -6.391  10.017  68.290  1.00  0.00    -0.053 C  
HETATM    7  C   UNL     1      -5.918   8.660  68.809  1.00  0.00    -0.044 C  
HETATM    8  C   UNL     1      -6.998   7.564  66.794  1.00  0.00    -0.078 C  
ENDBRANCH   2   3
BRANCH   2   9
HETATM    9  C   UNL     1      -8.477   9.280  69.726  1.00  0.00    -0.149 C  
BRANCH   9  10
HETATM   10  C   UNL     1      -9.581   8.932  70.718  1.00  0.00    -0.283 A  
HETATM   11  C   UNL     1     -11.647   8.169  72.484  1.00  0.00    -0.468 A  
HETATM   12 BR   UNL     1     -10.462   5.680  73.194  1.00  0.00    -0.270 Br 
HETATM   13  C   UNL     1      -9.555   7.688  71.383  1.00  0.00    -0.178 A  
HETATM   14  C   UNL     1     -10.563   7.328  72.275  1.00  0.00    -0.224 A  
HETATM   15  C   UNL     1     -11.717   9.374  71.787  1.00  0.00    -0.374 A  
HETATM   16 BR   UNL     1     -13.254  10.466  72.071  1.00  0.00    -0.383 Br 
HETATM   17  C   UNL     1     -10.685   9.794  70.916  1.00  0.00    -0.305 A  
HETATM   18  N   UNL     1     -10.883  10.926  70.096  1.00  0.00    -0.462 NA 
HETATM   19  H1  UNL     1     -11.679  11.548  70.240  1.00  0.00     0.000 HD 
HETATM   20  H2  UNL     1     -10.896  10.614  69.125  1.00  0.00     0.000 HD 
ENDBRANCH   9  10
ENDBRANCH   2   9
TORSDOF 3
ENDMDL
MODEL      243
REMARK 921   NORMALIZED FREE ENERGY PREDICTED BY IDOCK:   -1.92 KCAL/MOL
REMARK 922        TOTAL FREE ENERGY PREDICTED BY IDOCK:   -2.89 KCAL/MOL
REMARK 923 INTER-LIGAND FREE ENERGY PREDICTED BY IDOCK:   -2.20 KCAL/MOL
REMARK 924 INTRA-LIGAND FREE ENERGY PREDICTED BY IDOCK:   -0.69 KCAL/MOL
REMARK 927      BINDING AFFINITY PREDICTED BY RF-SCORE:    0.00 PKD
ROOT
HETATM    1  C   UNL     1      -8.694   7.672  69.467  1.00  0.00    -0.136 C  
HETATM    2  N   UNL     1      -8.222   6.299  69.728  1.00  0.00    -0.123 NA 
ENDROOT
BRANCH   2   3
HETATM    3  C   UNL     1      -7.824   6.150  71.165  1.00  0.00    -0.111 C  
HETATM    4  C   UNL     1      -9.820   4.261  72.366  1.00  0.00    -0.217 C  
HETATM    5  C   UNL     1      -7.474   4.696  71.570  1.00  0.00    -0.073 C  
HETATM    6  C   UNL     1      -8.922   6.616  72.156  1.00  0.00    -0.138 C  
HETATM    7  C   UNL     1     -10.165   5.727  72.110  1.00  0.00    -0.240 C  
HETATM    8  C   UNL     1      -8.685   3.770  71.472  1.00  0.00    -0.128 C  
ENDBRANCH   2   3
BRANCH   2   9
HETATM    9  C   UNL     1      -7.081   5.971  68.830  1.00  0.00    -0.081 C  
BRANCH   9  10
HETATM   10  C   UNL     1      -7.371   5.925  67.334  1.00  0.00    -0.077 A  
HETATM   11  C   UNL     1      -7.937   5.978  64.568  1.00  0.00    -0.127 A  
HETATM   12 BR   UNL     1      -6.042   8.015  63.965  1.00  0.00    -0.062 Br 
HETATM   13  C   UNL     1      -6.718   6.829  66.469  1.00  0.00    -0.049 A  
HETATM   14  C   UNL     1      -6.981   6.832  65.100  1.00  0.00    -0.055 A  
HETATM   15  C   UNL     1      -8.634   5.123  65.420  1.00  0.00    -0.146 A  
HETATM   16 BR   UNL     1      -9.973   4.010  64.645  1.00  0.00    -0.196 Br 
HETATM   17  C   UNL     1      -8.354   5.056  66.804  1.00  0.00    -0.107 A  
HETATM   18  N   UNL     1      -9.204   4.315  67.652  1.00  0.00    -0.139 NA 
HETATM   19  H1  UNL     1      -9.913   3.688  67.270  1.00  0.00     0.000 HD 
HETATM   20  H2  UNL     1      -9.668   4.968  68.284  1.00  0.00     0.000 HD 
ENDBRANCH   9  10
ENDBRANCH   2   9
TORSDOF 3
ENDMDL
MODEL      244
REMARK 921   NORMALIZED FREE ENERGY PREDICTED BY IDOCK:   -1.84 KCAL/MOL
REMARK 922        TOTAL FREE ENERGY PREDICTED BY IDOCK:   -2.79 KCAL/MOL
REMARK 923 INTER-LIGAND FREE ENERGY PREDICTED BY IDOCK:   -3.76 KCAL/MOL
REMARK 924 INTRA-LIGAND FREE ENERGY PREDICTED BY IDOCK:    0.97 KCAL/MOL
REMARK 927      BINDING AFFINITY PREDICTED BY RF-SCORE:    0.00 PKD
ROOT
HETATM    1  C   UNL     1     -10.472   7.085  68.991  1.00  0.00    -0.207 C  
HETATM    2  N   UNL     1      -9.334   7.084  68.053  1.00  0.00    -0.128 NA 
ENDROOT
BRANCH   2   3
HETATM    3  C   UNL     1      -8.071   7.460  68.766  1.00  0.00    -0.128 C  
HETATM    4  C   UNL     1      -6.303   5.042  68.614  1.00  0.00    -0.035 C  
HETATM    5  C   UNL     1      -6.806   7.393  67.875  1.00  0.00    -0.074 C  
HETATM    6  C   UNL     1      -7.773   6.566  69.997  1.00  0.00    -0.102 C  
HETATM    7  C   UNL     1      -7.461   5.122  69.608  1.00  0.00    -0.061 C  
HETATM    8  C   UNL     1      -6.505   5.967  67.417  1.00  0.00    -0.047 C  
ENDBRANCH   2   3
BRANCH   2   9
HETATM    9  C   UNL     1      -9.601   8.017  66.925  1.00  0.00    -0.204 C  
BRANCH   9  10
HETATM   10  C   UNL     1     -10.278   9.340  67.267  1.00  0.00    -0.315 A  
HETATM   11  C   UNL     1     -11.642  11.715  67.951  1.00  0.00    -0.369 A  
HETATM   12 BR   UNL     1     -11.998  11.019  70.689  1.00  0.00    -0.451 Br 
HETATM   13  C   UNL     1     -10.766   9.555  68.574  1.00  0.00    -0.222 A  
HETATM   14  C   UNL     1     -11.414  10.741  68.913  1.00  0.00    -0.293 A  
HETATM   15  C   UNL     1     -11.221  11.489  66.642  1.00  0.00    -0.271 A  
HETATM   16 BR   UNL     1     -11.608  12.836  65.350  1.00  0.00    -0.419 Br 
HETATM   17  C   UNL     1     -10.513  10.321  66.276  1.00  0.00    -0.144 A  
HETATM   18  N   UNL     1     -10.269  10.052  64.912  1.00  0.00    -0.287 NA 
HETATM   19  H1  UNL     1     -10.438  10.761  64.197  1.00  0.00     0.000 HD 
HETATM   20  H2  UNL     1     -10.792   9.214  64.657  1.00  0.00     0.000 HD 
ENDBRANCH   9  10
ENDBRANCH   2   9
TORSDOF 3
ENDMDL
MODEL      245
REMARK 921   NORMALIZED FREE ENERGY PREDICTED BY IDOCK:   -1.82 KCAL/MOL
REMARK 922        TOTAL FREE ENERGY PREDICTED BY IDOCK:   -2.77 KCAL/MOL
REMARK 923 INTER-LIGAND FREE ENERGY PREDICTED BY IDOCK:   -2.64 KCAL/MOL
REMARK 924 INTRA-LIGAND FREE ENERGY PREDICTED BY IDOCK:   -0.13 KCAL/MOL
REMARK 927      BINDING AFFINITY PREDICTED BY RF-SCORE:    0.00 PKD
ROOT
HETATM    1  C   UNL     1     -10.492   5.987  72.509  1.00  0.00    -0.202 C  
HETATM    2  N   UNL     1     -10.413   4.993  71.421  1.00  0.00    -0.181 NA 
ENDROOT
BRANCH   2   3
HETATM    3  C   UNL     1      -9.065   4.338  71.413  1.00  0.00    -0.127 C  
HETATM    4  C   UNL     1      -9.368   1.840  73.045  1.00  0.00    -0.094 C  
HETATM    5  C   UNL     1      -9.064   2.918  70.793  1.00  0.00    -0.190 C  
HETATM    6  C   UNL     1      -8.449   4.186  72.827  1.00  0.00    -0.100 C  
HETATM    7  C   UNL     1      -9.234   3.211  73.704  1.00  0.00    -0.096 C  
HETATM    8  C   UNL     1      -9.896   1.936  71.616  1.00  0.00    -0.218 C  
ENDBRANCH   2   3
BRANCH   2   9
HETATM    9  C   UNL     1     -10.690   5.646  70.112  1.00  0.00    -0.305 C  
BRANCH   9  10
HETATM   10  C   UNL     1      -9.531   6.380  69.447  1.00  0.00    -0.146 A  
HETATM   11  C   UNL     1      -7.465   7.856  68.213  1.00  0.00    -0.104 A  
HETATM   12 BR   UNL     1      -7.405   9.903  70.190  1.00  0.00    -0.169 Br 
HETATM   13  C   UNL     1      -9.073   7.598  69.994  1.00  0.00    -0.151 A  
HETATM   14  C   UNL     1      -8.034   8.308  69.395  1.00  0.00    -0.113 A  
HETATM   15  C   UNL     1      -7.950   6.687  67.629  1.00  0.00    -0.115 A  
HETATM   16 BR   UNL     1      -7.170   6.141  65.978  1.00  0.00    -0.077 Br 
HETATM   17  C   UNL     1      -8.965   5.914  68.238  1.00  0.00    -0.112 A  
HETATM   18  N   UNL     1      -9.549   4.845  67.525  1.00  0.00    -0.143 NA 
HETATM   19  H1  UNL     1      -9.141   4.508  66.652  1.00  0.00     0.000 HD 
HETATM   20  H2  UNL     1     -10.526   5.080  67.347  1.00  0.00     0.000 HD 
ENDBRANCH   9  10
ENDBRANCH   2   9
TORSDOF 3
ENDMDL
MODEL      246
REMARK 921   NORMALIZED FREE ENERGY PREDICTED BY IDOCK:   -1.77 KCAL/MOL
REMARK 922        TOTAL FREE ENERGY PREDICTED BY IDOCK:   -2.70 KCAL/MOL
REMARK 923 INTER-LIGAND FREE ENERGY PREDICTED BY IDOCK:   -3.32 KCAL/MOL
REMARK 924 INTRA-LIGAND FREE ENERGY PREDICTED BY IDOCK:    0.61 KCAL/MOL
REMARK 927      BINDING AFFINITY PREDICTED BY RF-SCORE:    0.00 PKD
ROOT
HETATM    1  C   UNL     1     -10.712  12.583  64.188  1.00  0.00    -0.391 C  
HETATM    2  N   UNL     1     -10.383  12.847  65.601  1.00  0.00    -0.279 NA 
ENDROOT
BRANCH   2   3
HETATM    3  C   UNL     1     -10.612  14.291  65.927  1.00  0.00    -0.302 C  
HETATM    4  C   UNL     1      -9.137  14.786  68.492  1.00  0.00    -0.187 C  
HETATM    5  C   UNL     1      -9.311  15.129  66.006  1.00  0.00    -0.326 C  
HETATM    6  C   UNL     1     -11.339  14.505  67.280  1.00  0.00    -0.363 C  
HETATM    7  C   UNL     1     -10.488  14.074  68.474  1.00  0.00    -0.251 C  
HETATM    8  C   UNL     1      -8.410  14.677  67.154  1.00  0.00    -0.236 C  
ENDBRANCH   2   3
BRANCH   2   9
HETATM    9  C   UNL     1      -8.971  12.462  65.877  1.00  0.00     0.201 C  
BRANCH   9  10
HETATM   10  C   UNL     1      -8.690  10.981  66.101  1.00  0.00    -0.188 A  
HETATM   11  C   UNL     1      -8.153   8.264  66.653  1.00  0.00    -0.102 A  
HETATM   12 BR   UNL     1     -10.199   7.999  68.614  1.00  0.00    -0.228 Br 
HETATM   13  C   UNL     1      -9.416  10.275  67.084  1.00  0.00    -0.184 A  
HETATM   14  C   UNL     1      -9.165   8.927  67.333  1.00  0.00    -0.135 A  
HETATM   15  C   UNL     1      -7.387   8.966  65.723  1.00  0.00    -0.089 A  
HETATM   16 BR   UNL     1      -5.975   8.023  64.857  1.00  0.00    -0.045 Br 
HETATM   17  C   UNL     1      -7.651  10.318  65.407  1.00  0.00    -0.146 A  
HETATM   18  N   UNL     1      -6.740  11.036  64.601  1.00  0.00    -0.067 NA 
HETATM   19  H1  UNL     1      -5.990  10.559  64.100  1.00  0.00     0.000 HD 
HETATM   20  H2  UNL     1      -6.322  11.770  65.173  1.00  0.00     0.000 HD 
ENDBRANCH   9  10
ENDBRANCH   2   9
TORSDOF 3
ENDMDL
MODEL      247
REMARK 921   NORMALIZED FREE ENERGY PREDICTED BY IDOCK:   -1.70 KCAL/MOL
REMARK 922        TOTAL FREE ENERGY PREDICTED BY IDOCK:   -2.63 KCAL/MOL
REMARK 923 INTER-LIGAND FREE ENERGY PREDICTED BY IDOCK:   -2.27 KCAL/MOL
REMARK 924 INTRA-LIGAND FREE ENERGY PREDICTED BY IDOCK:   -0.35 KCAL/MOL
REMARK 927      BINDING AFFINITY PREDICTED BY RF-SCORE:    0.00 PKD
ROOT
HETATM    1  C   UNL     1      -7.663  15.841  66.638  1.00  0.00    -0.105 C  
HETATM    2  N   UNL     1      -8.786  15.641  67.572  1.00  0.00    -0.177 NA 
ENDROOT
BRANCH   2   3
HETATM    3  C   UNL     1      -8.935  16.831  68.470  1.00  0.00    -0.244 C  
HETATM    4  C   UNL     1     -11.160  18.461  67.293  1.00  0.00     0.058 C  
HETATM    5  C   UNL     1     -10.334  16.950  69.125  1.00  0.00    -0.319 C  
HETATM    6  C   UNL     1      -8.688  18.179  67.746  1.00  0.00    -0.259 C  
HETATM    7  C   UNL     1      -9.755  18.481  66.694  1.00  0.00    -0.353 C  
HETATM    8  C   UNL     1     -11.431  17.188  68.089  1.00  0.00     0.396 C  
ENDBRANCH   2   3
BRANCH   2   9
HETATM    9  C   UNL     1      -8.572  14.403  68.371  1.00  0.00    -0.174 C  
BRANCH   9  10
HETATM   10  C   UNL     1      -9.525  13.241  68.112  1.00  0.00    -0.222 A  
HETATM   11  C   UNL     1     -11.320  11.147  67.509  1.00  0.00    -0.351 A  
HETATM   12 BR   UNL     1     -10.060  10.437  65.056  1.00  0.00    -0.326 Br 
HETATM   13  C   UNL     1      -9.411  12.499  66.917  1.00  0.00    -0.219 A  
HETATM   14  C   UNL     1     -10.283  11.448  66.637  1.00  0.00    -0.222 A  
HETATM   15  C   UNL     1     -11.482  11.912  68.662  1.00  0.00    -0.294 A  
HETATM   16 BR   UNL     1     -12.955  11.490  69.796  1.00  0.00     0.863 Br 
HETATM   17  C   UNL     1     -10.584  12.948  69.003  1.00  0.00    -0.043 A  
HETATM   18  N   UNL     1     -10.890  13.811  70.078  1.00  0.00    -0.283 NA 
HETATM   19  H1  UNL     1     -11.654  13.600  70.721  1.00  0.00     0.000 HD 
HETATM   20  H2  UNL     1     -11.044  14.745  69.699  1.00  0.00     0.000 HD 
ENDBRANCH   9  10
ENDBRANCH   2   9
TORSDOF 3
ENDMDL
MODEL      248
REMARK 921   NORMALIZED FREE ENERGY PREDICTED BY IDOCK:   -1.67 KCAL/MOL
REMARK 922        TOTAL FREE ENERGY PREDICTED BY IDOCK:   -2.59 KCAL/MOL
REMARK 923 INTER-LIGAND FREE ENERGY PREDICTED BY IDOCK:   -2.36 KCAL/MOL
REMARK 924 INTRA-LIGAND FREE ENERGY PREDICTED BY IDOCK:   -0.23 KCAL/MOL
REMARK 927      BINDING AFFINITY PREDICTED BY RF-SCORE:    0.00 PKD
ROOT
HETATM    1  C   UNL     1      -7.187  12.194  67.205  1.00  0.00    -0.144 C  
HETATM    2  N   UNL     1      -7.847  11.025  67.816  1.00  0.00    -0.108 NA 
ENDROOT
BRANCH   2   3
HETATM    3  C   UNL     1      -9.015  11.462  68.646  1.00  0.00    -0.131 C  
HETATM    4  C   UNL     1     -11.344  11.596  66.760  1.00  0.00    -0.354 C  
HETATM    5  C   UNL     1     -10.181  10.443  68.670  1.00  0.00    -0.196 C  
HETATM    6  C   UNL     1      -9.632  12.805  68.177  1.00  0.00    -0.223 C  
HETATM    7  C   UNL     1     -10.285  12.697  66.799  1.00  0.00    -0.246 C  
HETATM    8  C   UNL     1     -10.813  10.267  67.290  1.00  0.00    -0.312 C  
ENDBRANCH   2   3
BRANCH   2   9
HETATM    9  C   UNL     1      -6.871  10.261  68.641  1.00  0.00    -0.057 C  
BRANCH   9  10
HETATM   10  C   UNL     1      -6.752   8.767  68.361  1.00  0.00    -0.064 A  
HETATM   11  C   UNL     1      -6.589   6.022  67.719  1.00  0.00    -0.056 A  
HETATM   12 BR   UNL     1      -5.137   6.418  65.302  1.00  0.00    -0.014 Br 
HETATM   13  C   UNL     1      -6.131   8.328  67.173  1.00  0.00    -0.055 A  
HETATM   14  C   UNL     1      -6.030   6.970  66.874  1.00  0.00    -0.030 A  
HETATM   15  C   UNL     1      -7.260   6.446  68.865  1.00  0.00    -0.084 A  
HETATM   16 BR   UNL     1      -8.057   5.106  69.962  1.00  0.00    -0.083 Br 
HETATM   17  C   UNL     1      -7.334   7.811  69.226  1.00  0.00    -0.087 A  
HETATM   18  N   UNL     1      -8.173   8.206  70.290  1.00  0.00    -0.119 NA 
HETATM   19  H1  UNL     1      -8.593   7.516  70.914  1.00  0.00     0.000 HD 
HETATM   20  H2  UNL     1      -8.923   8.781  69.904  1.00  0.00     0.000 HD 
ENDBRANCH   9  10
ENDBRANCH   2   9
TORSDOF 3
ENDMDL
MODEL      249
REMARK 921   NORMALIZED FREE ENERGY PREDICTED BY IDOCK:   -1.66 KCAL/MOL
REMARK 922        TOTAL FREE ENERGY PREDICTED BY IDOCK:   -2.58 KCAL/MOL
REMARK 923 INTER-LIGAND FREE ENERGY PREDICTED BY IDOCK:   -3.78 KCAL/MOL
REMARK 924 INTRA-LIGAND FREE ENERGY PREDICTED BY IDOCK:    1.21 KCAL/MOL
REMARK 927      BINDING AFFINITY PREDICTED BY RF-SCORE:    0.00 PKD
ROOT
HETATM    1  C   UNL     1     -11.534  16.094  67.993  1.00  0.00    -0.163 C  
HETATM    2  N   UNL     1     -10.115  16.208  68.378  1.00  0.00    -0.230 NA 
ENDROOT
BRANCH   2   3
HETATM    3  C   UNL     1      -9.809  15.285  69.518  1.00  0.00    -0.226 C  
HETATM    4  C   UNL     1     -12.001  13.237  69.513  1.00  0.00    -0.366 C  
HETATM    5  C   UNL     1      -9.589  13.813  69.089  1.00  0.00     0.302 C  
HETATM    6  C   UNL     1     -10.923  15.253  70.596  1.00  0.00    -0.318 C  
HETATM    7  C   UNL     1     -12.223  14.641  70.074  1.00  0.00    -0.385 C  
HETATM    8  C   UNL     1     -10.858  13.193  68.503  1.00  0.00    -0.285 C  
ENDBRANCH   2   3
BRANCH   2   9
HETATM    9  C   UNL     1      -9.795  17.616  68.741  1.00  0.00    -0.334 C  
BRANCH   9  10
HETATM   10  C   UNL     1      -8.343  18.056  68.587  1.00  0.00    -0.282 A  
HETATM   11  C   UNL     1      -5.691  18.996  68.355  1.00  0.00    -0.210 A  
HETATM   12 BR   UNL     1      -5.437  19.703  71.101  1.00  0.00    -0.323 Br 
HETATM   13  C   UNL     1      -7.659  18.600  69.695  1.00  0.00     0.396 A  
HETATM   14  C   UNL     1      -6.341  19.038  69.581  1.00  0.00    -0.251 A  
HETATM   15  C   UNL     1      -6.376  18.519  67.239  1.00  0.00    -0.185 A  
HETATM   16 BR   UNL     1      -5.456  18.535  65.570  1.00  0.00    -0.231 Br 
HETATM   17  C   UNL     1      -7.695  18.017  67.330  1.00  0.00    -0.208 A  
HETATM   18  N   UNL     1      -8.410  17.717  66.151  1.00  0.00    -0.487 NA 
HETATM   19  H1  UNL     1      -7.942  17.689  65.244  1.00  0.00     0.000 HD 
HETATM   20  H2  UNL     1      -9.193  18.367  66.082  1.00  0.00     0.000 HD 
ENDBRANCH   9  10
ENDBRANCH   2   9
TORSDOF 3
ENDMDL
MODEL      250
REMARK 921   NORMALIZED FREE ENERGY PREDICTED BY IDOCK:   -1.62 KCAL/MOL
REMARK 922        TOTAL FREE ENERGY PREDICTED BY IDOCK:   -2.53 KCAL/MOL
REMARK 923 INTER-LIGAND FREE ENERGY PREDICTED BY IDOCK:   -2.42 KCAL/MOL
REMARK 924 INTRA-LIGAND FREE ENERGY PREDICTED BY IDOCK:   -0.12 KCAL/MOL
REMARK 927      BINDING AFFINITY PREDICTED BY RF-SCORE:    0.00 PKD
ROOT
HETATM    1  C   UNL     1     -10.779   5.661  68.157  1.00  0.00    -0.153 C  
HETATM    2  N   UNL     1      -9.569   5.813  68.987  1.00  0.00    -0.130 NA 
ENDROOT
BRANCH   2   3
HETATM    3  C   UNL     1      -9.354   7.254  69.336  1.00  0.00    -0.151 C  
HETATM    4  C   UNL     1      -9.394   7.377  72.333  1.00  0.00    -0.179 C  
HETATM    5  C   UNL     1      -8.086   7.509  70.188  1.00  0.00    -0.119 C  
HETATM    6  C   UNL     1     -10.533   7.874  70.130  1.00  0.00    -0.231 C  
HETATM    7  C   UNL     1     -10.684   7.263  71.522  1.00  0.00    -0.241 C  
HETATM    8  C   UNL     1      -8.183   6.855  71.566  1.00  0.00    -0.110 C  
ENDBRANCH   2   3
BRANCH   2   9
HETATM    9  C   UNL     1      -8.386   5.263  68.270  1.00  0.00    -0.097 C  
BRANCH   9  10
HETATM   10  C   UNL     1      -8.440   5.261  66.747  1.00  0.00    -0.107 A  
HETATM   11  C   UNL     1      -8.484   5.128  63.927  1.00  0.00    -0.119 A  
HETATM   12 BR   UNL     1      -9.990   2.715  63.814  1.00  0.00    -0.146 Br 
HETATM   13  C   UNL     1      -9.057   4.186  66.073  1.00  0.00    -0.136 A  
HETATM   14  C   UNL     1      -9.100   4.139  64.681  1.00  0.00    -0.146 A  
HETATM   15  C   UNL     1      -7.817   6.164  64.580  1.00  0.00    -0.114 A  
HETATM   16 BR   UNL     1      -6.942   7.465  63.497  1.00  0.00    -0.059 Br 
HETATM   17  C   UNL     1      -7.801   6.270  65.989  1.00  0.00    -0.106 A  
HETATM   18  N   UNL     1      -6.964   7.225  66.607  1.00  0.00    -0.071 NA 
HETATM   19  H1  UNL     1      -6.503   7.953  66.060  1.00  0.00     0.000 HD 
HETATM   20  H2  UNL     1      -6.248   6.724  67.134  1.00  0.00     0.000 HD 
ENDBRANCH   9  10
ENDBRANCH   2   9
TORSDOF 3
ENDMDL
MODEL      251
REMARK 921   NORMALIZED FREE ENERGY PREDICTED BY IDOCK:   -1.49 KCAL/MOL
REMARK 922        TOTAL FREE ENERGY PREDICTED BY IDOCK:   -2.38 KCAL/MOL
REMARK 923 INTER-LIGAND FREE ENERGY PREDICTED BY IDOCK:   -3.69 KCAL/MOL
REMARK 924 INTRA-LIGAND FREE ENERGY PREDICTED BY IDOCK:    1.31 KCAL/MOL
REMARK 927      BINDING AFFINITY PREDICTED BY RF-SCORE:    0.00 PKD
ROOT
HETATM    1  C   UNL     1      -8.517   6.015  73.214  1.00  0.00    -0.117 C  
HETATM    2  N   UNL     1      -9.750   5.431  73.775  1.00  0.00    -0.147 NA 
ENDROOT
BRANCH   2   3
HETATM    3  C   UNL     1      -9.453   4.116  74.428  1.00  0.00    -0.109 C  
HETATM    4  C   UNL     1      -9.791   2.050  72.280  1.00  0.00    -0.207 C  
HETATM    5  C   UNL     1      -8.263   3.356  73.792  1.00  0.00    -0.075 C  
HETATM    6  C   UNL     1     -10.652   3.133  74.397  1.00  0.00    -0.215 C  
HETATM    7  C   UNL     1     -10.996   2.676  72.980  1.00  0.00    -0.157 C  
HETATM    8  C   UNL     1      -8.555   2.942  72.350  1.00  0.00    -0.085 C  
ENDBRANCH   2   3
BRANCH   2   9
HETATM    9  C   UNL     1     -10.772   5.269  72.705  1.00  0.00    -0.239 C  
BRANCH   9  10
HETATM   10  C   UNL     1     -10.939   6.428  71.728  1.00  0.00    -0.298 A  
HETATM   11  C   UNL     1     -11.387   8.564  69.937  1.00  0.00     0.051 A  
HETATM   12 BR   UNL     1     -12.883  10.129  71.785  1.00  0.00    -0.557 Br 
HETATM   13  C   UNL     1     -11.707   7.551  72.104  1.00  0.00    -0.344 A  
HETATM   14  C   UNL     1     -11.902   8.614  71.225  1.00  0.00    -0.295 A  
HETATM   15  C   UNL     1     -10.680   7.433  69.532  1.00  0.00    -0.224 A  
HETATM   16 BR   UNL     1     -10.043   7.391  67.736  1.00  0.00    -0.253 Br 
HETATM   17  C   UNL     1     -10.417   6.361  70.415  1.00  0.00    -0.218 A  
HETATM   18  N   UNL     1      -9.861   5.164  69.913  1.00  0.00    -0.197 NA 
HETATM   19  H1  UNL     1      -9.484   5.116  68.966  1.00  0.00     0.000 HD 
HETATM   20  H2  UNL     1     -10.556   4.425  70.015  1.00  0.00     0.000 HD 
ENDBRANCH   9  10
ENDBRANCH   2   9
TORSDOF 3
ENDMDL
MODEL      252
REMARK 921   NORMALIZED FREE ENERGY PREDICTED BY IDOCK:   -1.45 KCAL/MOL
REMARK 922        TOTAL FREE ENERGY PREDICTED BY IDOCK:   -2.33 KCAL/MOL
REMARK 923 INTER-LIGAND FREE ENERGY PREDICTED BY IDOCK:   -2.85 KCAL/MOL
REMARK 924 INTRA-LIGAND FREE ENERGY PREDICTED BY IDOCK:    0.52 KCAL/MOL
REMARK 927      BINDING AFFINITY PREDICTED BY RF-SCORE:    0.00 PKD
ROOT
HETATM    1  C   UNL     1      -9.260   8.225  71.868  1.00  0.00    -0.208 C  
HETATM    2  N   UNL     1      -9.027   7.148  70.888  1.00  0.00    -0.151 NA 
ENDROOT
BRANCH   2   3
HETATM    3  C   UNL     1      -8.806   5.843  71.590  1.00  0.00    -0.139 C  
HETATM    4  C   UNL     1     -11.328   5.309  73.122  1.00  0.00    -0.358 C  
HETATM    5  C   UNL     1      -9.818   4.740  71.193  1.00  0.00    -0.260 C  
HETATM    6  C   UNL     1      -8.884   5.958  73.134  1.00  0.00    -0.121 C  
HETATM    7  C   UNL     1     -10.288   6.310  73.623  1.00  0.00    -0.286 C  
HETATM    8  C   UNL     1     -11.243   5.095  71.614  1.00  0.00     0.146 C  
ENDBRANCH   2   3
BRANCH   2   9
HETATM    9  C   UNL     1      -7.862   7.487  70.025  1.00  0.00    -0.099 C  
BRANCH   9  10
HETATM   10  C   UNL     1      -7.974   8.748  69.176  1.00  0.00    -0.109 A  
HETATM   11  C   UNL     1      -8.130  11.011  67.495  1.00  0.00    -0.117 A  
HETATM   12 BR   UNL     1      -9.716   9.735  65.505  1.00  0.00    -0.374 Br 
HETATM   13  C   UNL     1      -8.651   8.697  67.939  1.00  0.00    -0.137 A  
HETATM   14  C   UNL     1      -8.748   9.825  67.126  1.00  0.00    -0.132 A  
HETATM   15  C   UNL     1      -7.405  11.057  68.685  1.00  0.00    -0.104 A  
HETATM   16 BR   UNL     1      -6.530  12.695  69.117  1.00  0.00    -0.102 Br 
HETATM   17  C   UNL     1      -7.332   9.949  69.559  1.00  0.00    -0.102 A  
HETATM   18  N   UNL     1      -6.442   9.981  70.654  1.00  0.00    -0.197 NA 
HETATM   19  H1  UNL     1      -5.979  10.848  70.930  1.00  0.00     0.000 HD 
HETATM   20  H2  UNL     1      -5.723   9.274  70.499  1.00  0.00     0.000 HD 
ENDBRANCH   9  10
ENDBRANCH   2   9
TORSDOF 3
ENDMDL
MODEL      253
REMARK 921   NORMALIZED FREE ENERGY PREDICTED BY IDOCK:   -1.43 KCAL/MOL
REMARK 922        TOTAL FREE ENERGY PREDICTED BY IDOCK:   -2.31 KCAL/MOL
REMARK 923 INTER-LIGAND FREE ENERGY PREDICTED BY IDOCK:   -2.72 KCAL/MOL
REMARK 924 INTRA-LIGAND FREE ENERGY PREDICTED BY IDOCK:    0.41 KCAL/MOL
REMARK 927      BINDING AFFINITY PREDICTED BY RF-SCORE:    0.00 PKD
ROOT
HETATM    1  C   UNL     1     -10.636   6.942  70.735  1.00  0.00    -0.220 C  
HETATM    2  N   UNL     1      -9.930   5.734  71.200  1.00  0.00    -0.186 NA 
ENDROOT
BRANCH   2   3
HETATM    3  C   UNL     1      -9.504   5.896  72.627  1.00  0.00    -0.146 C  
HETATM    4  C   UNL     1      -9.983   3.235  73.924  1.00  0.00    -0.165 C  
HETATM    5  C   UNL     1      -8.358   4.944  73.051  1.00  0.00    -0.101 C  
HETATM    6  C   UNL     1     -10.653   5.657  73.640  1.00  0.00    -0.310 C  
HETATM    7  C   UNL     1     -11.131   4.205  73.649  1.00  0.00    -0.337 C  
HETATM    8  C   UNL     1      -8.788   3.479  73.007  1.00  0.00    -0.099 C  
ENDBRANCH   2   3
BRANCH   2   9
HETATM    9  C   UNL     1      -8.755   5.461  70.328  1.00  0.00    -0.127 C  
BRANCH   9  10
HETATM   10  C   UNL     1      -8.971   5.573  68.823  1.00  0.00    -0.120 A  
HETATM   11  C   UNL     1      -9.267   5.688  66.017  1.00  0.00    -0.164 A  
HETATM   12 BR   UNL     1      -9.658   2.887  65.693  1.00  0.00     0.180 Br 
HETATM   13  C   UNL     1      -9.165   4.404  68.058  1.00  0.00    -0.174 A  
HETATM   14  C   UNL     1      -9.338   4.469  66.676  1.00  0.00    -0.149 A  
HETATM   15  C   UNL     1      -9.014   6.844  66.753  1.00  0.00    -0.132 A  
HETATM   16 BR   UNL     1      -8.872   8.484  65.792  1.00  0.00    -0.224 Br 
HETATM   17  C   UNL     1      -8.887   6.821  68.161  1.00  0.00    -0.120 A  
HETATM   18  N   UNL     1      -8.451   7.979  68.841  1.00  0.00    -0.130 NA 
HETATM   19  H1  UNL     1      -8.392   8.879  68.364  1.00  0.00     0.000 HD 
HETATM   20  H2  UNL     1      -7.540   7.778  69.254  1.00  0.00     0.000 HD 
ENDBRANCH   9  10
ENDBRANCH   2   9
TORSDOF 3
ENDMDL
MODEL      254
REMARK 921   NORMALIZED FREE ENERGY PREDICTED BY IDOCK:   -1.36 KCAL/MOL
REMARK 922        TOTAL FREE ENERGY PREDICTED BY IDOCK:   -2.23 KCAL/MOL
REMARK 923 INTER-LIGAND FREE ENERGY PREDICTED BY IDOCK:   -4.28 KCAL/MOL
REMARK 924 INTRA-LIGAND FREE ENERGY PREDICTED BY IDOCK:    2.05 KCAL/MOL
REMARK 927      BINDING AFFINITY PREDICTED BY RF-SCORE:    0.00 PKD
ROOT
HETATM    1  C   UNL     1      -8.464  17.986  67.296  1.00  0.00    -0.234 C  
HETATM    2  N   UNL     1      -8.098  16.621  67.717  1.00  0.00    -0.174 NA 
ENDROOT
BRANCH   2   3
HETATM    3  C   UNL     1      -6.678  16.585  68.194  1.00  0.00    -0.140 C  
HETATM    4  C   UNL     1      -5.625  19.368  67.812  1.00  0.00    -0.191 C  
HETATM    5  C   UNL     1      -6.389  17.548  69.372  1.00  0.00    -0.246 C  
HETATM    6  C   UNL     1      -5.652  16.944  67.088  1.00  0.00    -0.196 C  
HETATM    7  C   UNL     1      -5.765  18.400  66.638  1.00  0.00    -0.174 C  
HETATM    8  C   UNL     1      -6.557  19.012  68.967  1.00  0.00    -0.317 C  
ENDBRANCH   2   3
BRANCH   2   9
HETATM    9  C   UNL     1      -8.300  15.667  66.592  1.00  0.00    -0.275 C  
BRANCH   9  10
HETATM   10  C   UNL     1      -9.277  14.521  66.825  1.00  0.00    -0.286 A  
HETATM   11  C   UNL     1     -11.169  12.451  67.157  1.00  0.00    -0.353 A  
HETATM   12 BR   UNL     1     -11.128  11.637  64.429  1.00  0.00    -0.363 Br 
HETATM   13  C   UNL     1      -9.708  13.740  65.732  1.00  0.00    -0.175 A  
HETATM   14  C   UNL     1     -10.622  12.702  65.906  1.00  0.00    -0.273 A  
HETATM   15  C   UNL     1     -10.799  13.255  68.233  1.00  0.00    -0.256 A  
HETATM   16 BR   UNL     1     -11.623  12.904  69.916  1.00  0.00    -0.176 Br 
HETATM   17  C   UNL     1      -9.835  14.281  68.103  1.00  0.00    -0.226 A  
HETATM   18  N   UNL     1      -9.629  15.183  69.169  1.00  0.00    -0.227 NA 
HETATM   19  H1  UNL     1     -10.031  15.010  70.091  1.00  0.00     0.000 HD 
HETATM   20  H2  UNL     1      -9.928  16.109  68.862  1.00  0.00     0.000 HD 
ENDBRANCH   9  10
ENDBRANCH   2   9
TORSDOF 3
ENDMDL
MODEL      255
REMARK 921   NORMALIZED FREE ENERGY PREDICTED BY IDOCK:   -1.33 KCAL/MOL
REMARK 922        TOTAL FREE ENERGY PREDICTED BY IDOCK:   -2.19 KCAL/MOL
REMARK 923 INTER-LIGAND FREE ENERGY PREDICTED BY IDOCK:   -3.88 KCAL/MOL
REMARK 924 INTRA-LIGAND FREE ENERGY PREDICTED BY IDOCK:    1.69 KCAL/MOL
REMARK 927      BINDING AFFINITY PREDICTED BY RF-SCORE:    0.00 PKD
ROOT
HETATM    1  C   UNL     1      -8.363  17.962  67.328  1.00  0.00    -0.225 C  
HETATM    2  N   UNL     1      -7.653  16.840  67.969  1.00  0.00    -0.165 NA 
ENDROOT
BRANCH   2   3
HETATM    3  C   UNL     1      -6.269  17.256  68.363  1.00  0.00    -0.153 C  
HETATM    4  C   UNL     1      -6.004  20.115  67.496  1.00  0.00    -0.212 C  
HETATM    5  C   UNL     1      -6.231  18.441  69.360  1.00  0.00    -0.266 C  
HETATM    6  C   UNL     1      -5.393  17.685  67.157  1.00  0.00    -0.156 C  
HETATM    7  C   UNL     1      -5.898  18.966  66.495  1.00  0.00    -0.179 C  
HETATM    8  C   UNL     1      -6.790  19.722  68.744  1.00  0.00    -0.365 C  
ENDBRANCH   2   3
BRANCH   2   9
HETATM    9  C   UNL     1      -7.611  15.670  67.050  1.00  0.00    -0.210 C  
BRANCH   9  10
HETATM   10  C   UNL     1      -8.268  14.384  67.537  1.00  0.00    -0.201 A  
HETATM   11  C   UNL     1      -9.507  12.064  68.564  1.00  0.00    -0.136 A  
HETATM   12 BR   UNL     1     -11.920  13.378  69.307  1.00  0.00    -0.341 Br 
HETATM   13  C   UNL     1      -9.554  14.434  68.115  1.00  0.00    -0.218 A  
HETATM   14  C   UNL     1     -10.172  13.281  68.596  1.00  0.00    -0.172 A  
HETATM   15  C   UNL     1      -8.211  12.011  68.052  1.00  0.00    -0.156 A  
HETATM   16 BR   UNL     1      -7.323  10.324  68.082  1.00  0.00    -0.086 Br 
HETATM   17  C   UNL     1      -7.576  13.150  67.507  1.00  0.00    -0.163 A  
HETATM   18  N   UNL     1      -6.207  13.091  67.172  1.00  0.00    -0.481 NA 
HETATM   19  H1  UNL     1      -5.708  12.201  67.150  1.00  0.00     0.000 HD 
HETATM   20  H2  UNL     1      -5.701  13.722  67.794  1.00  0.00     0.000 HD 
ENDBRANCH   9  10
ENDBRANCH   2   9
TORSDOF 3
ENDMDL
MODEL      256
REMARK 921   NORMALIZED FREE ENERGY PREDICTED BY IDOCK:   -1.28 KCAL/MOL
REMARK 922        TOTAL FREE ENERGY PREDICTED BY IDOCK:   -2.13 KCAL/MOL
REMARK 923 INTER-LIGAND FREE ENERGY PREDICTED BY IDOCK:   -3.36 KCAL/MOL
REMARK 924 INTRA-LIGAND FREE ENERGY PREDICTED BY IDOCK:    1.23 KCAL/MOL
REMARK 927      BINDING AFFINITY PREDICTED BY RF-SCORE:    0.00 PKD
ROOT
HETATM    1  C   UNL     1     -11.737   6.660  69.963  1.00  0.00    -0.317 C  
HETATM    2  N   UNL     1     -10.336   6.245  70.166  1.00  0.00    -0.194 NA 
ENDROOT
BRANCH   2   3
HETATM    3  C   UNL     1     -10.242   5.260  71.291  1.00  0.00    -0.224 C  
HETATM    4  C   UNL     1      -9.815   6.896  73.768  1.00  0.00    -0.313 C  
HETATM    5  C   UNL     1     -11.330   5.446  72.378  1.00  0.00    -0.242 C  
HETATM    6  C   UNL     1      -8.883   5.307  72.035  1.00  0.00    -0.137 C  
HETATM    7  C   UNL     1      -8.675   6.621  72.788  1.00  0.00    -0.128 C  
HETATM    8  C   UNL     1     -11.185   6.782  73.106  1.00  0.00    -0.136 C  
ENDBRANCH   2   3
BRANCH   2   9
HETATM    9  C   UNL     1      -9.485   7.436  70.437  1.00  0.00    -0.165 C  
BRANCH   9  10
HETATM   10  C   UNL     1      -9.380   8.477  69.328  1.00  0.00    -0.154 A  
HETATM   11  C   UNL     1      -9.326  10.397  67.259  1.00  0.00    -0.164 A  
HETATM   12 BR   UNL     1     -11.171  12.166  68.512  1.00  0.00    -0.339 Br 
HETATM   13  C   UNL     1     -10.181   9.637  69.383  1.00  0.00    -0.220 A  
HETATM   14  C   UNL     1     -10.130  10.595  68.372  1.00  0.00    -0.166 A  
HETATM   15  C   UNL     1      -8.576   9.226  67.162  1.00  0.00    -0.128 A  
HETATM   16 BR   UNL     1      -7.531   8.980  65.586  1.00  0.00    -0.087 Br 
HETATM   17  C   UNL     1      -8.563   8.260  68.193  1.00  0.00    -0.132 A  
HETATM   18  N   UNL     1      -7.939   7.013  67.973  1.00  0.00    -0.114 NA 
HETATM   19  H1  UNL     1      -7.349   6.857  67.155  1.00  0.00     0.000 HD 
HETATM   20  H2  UNL     1      -8.660   6.292  67.986  1.00  0.00     0.000 HD 
ENDBRANCH   9  10
ENDBRANCH   2   9
TORSDOF 3
ENDMDL
MODEL      257
REMARK 921   NORMALIZED FREE ENERGY PREDICTED BY IDOCK:   -1.16 KCAL/MOL
REMARK 922        TOTAL FREE ENERGY PREDICTED BY IDOCK:   -1.99 KCAL/MOL
REMARK 923 INTER-LIGAND FREE ENERGY PREDICTED BY IDOCK:   -1.52 KCAL/MOL
REMARK 924 INTRA-LIGAND FREE ENERGY PREDICTED BY IDOCK:   -0.47 KCAL/MOL
REMARK 927      BINDING AFFINITY PREDICTED BY RF-SCORE:    0.00 PKD
ROOT
HETATM    1  C   UNL     1      -9.360   7.787  69.011  1.00  0.00    -0.150 C  
HETATM    2  N   UNL     1      -8.531   7.705  67.795  1.00  0.00    -0.121 NA 
ENDROOT
BRANCH   2   3
HETATM    3  C   UNL     1      -8.364   9.064  67.186  1.00  0.00    -0.110 C  
HETATM    4  C   UNL     1      -5.461   9.745  67.505  1.00  0.00    -0.036 C  
HETATM    5  C   UNL     1      -7.369   9.100  65.999  1.00  0.00    -0.094 C  
HETATM    6  C   UNL     1      -7.863  10.130  68.194  1.00  0.00    -0.096 C  
HETATM    7  C   UNL     1      -6.438   9.856  68.674  1.00  0.00    -0.046 C  
HETATM    8  C   UNL     1      -5.944   8.767  66.438  1.00  0.00    -0.055 C  
ENDBRANCH   2   3
BRANCH   2   9
HETATM    9  C   UNL     1      -9.145   6.763  66.820  1.00  0.00    -0.140 C  
BRANCH   9  10
HETATM   10  C   UNL     1      -8.509   5.383  66.698  1.00  0.00    -0.108 A  
HETATM   11  C   UNL     1      -7.270   2.848  66.598  1.00  0.00    -0.062 A  
HETATM   12 BR   UNL     1      -8.327   1.955  69.086  1.00  0.00    -0.079 Br 
HETATM   13  C   UNL     1      -8.653   4.455  67.751  1.00  0.00    -0.109 A  
HETATM   14  C   UNL     1      -8.061   3.194  67.684  1.00  0.00    -0.080 A  
HETATM   15  C   UNL     1      -7.069   3.778  65.580  1.00  0.00    -0.063 A  
HETATM   16 BR   UNL     1      -5.930   3.270  64.138  1.00  0.00    -0.018 Br 
HETATM   17  C   UNL     1      -7.698   5.044  65.590  1.00  0.00    -0.087 A  
HETATM   18  N   UNL     1      -7.323   6.017  64.638  1.00  0.00    -0.067 NA 
HETATM   19  H1  UNL     1      -6.738   5.773  63.838  1.00  0.00     0.000 HD 
HETATM   20  H2  UNL     1      -6.876   6.788  65.133  1.00  0.00     0.000 HD 
ENDBRANCH   9  10
ENDBRANCH   2   9
TORSDOF 3
ENDMDL
MODEL      258
REMARK 921   NORMALIZED FREE ENERGY PREDICTED BY IDOCK:   -1.12 KCAL/MOL
REMARK 922        TOTAL FREE ENERGY PREDICTED BY IDOCK:   -1.94 KCAL/MOL
REMARK 923 INTER-LIGAND FREE ENERGY PREDICTED BY IDOCK:   -2.66 KCAL/MOL
REMARK 924 INTRA-LIGAND FREE ENERGY PREDICTED BY IDOCK:    0.72 KCAL/MOL
REMARK 927      BINDING AFFINITY PREDICTED BY RF-SCORE:    0.00 PKD
ROOT
HETATM    1  C   UNL     1     -10.148   6.265  71.979  1.00  0.00    -0.183 C  
HETATM    2  N   UNL     1      -9.925   5.230  70.952  1.00  0.00    -0.196 NA 
ENDROOT
BRANCH   2   3
HETATM    3  C   UNL     1      -8.976   4.188  71.461  1.00  0.00    -0.119 C  
HETATM    4  C   UNL     1     -10.271   3.038  73.910  1.00  0.00    -0.199 C  
HETATM    5  C   UNL     1      -9.579   2.762  71.507  1.00  0.00    -0.221 C  
HETATM    6  C   UNL     1      -8.458   4.479  72.893  1.00  0.00    -0.106 C  
HETATM    7  C   UNL     1      -9.564   4.393  73.943  1.00  0.00    -0.135 C  
HETATM    8  C   UNL     1     -10.732   2.662  72.505  1.00  0.00    -0.005 C  
ENDBRANCH   2   3
BRANCH   2   9
HETATM    9  C   UNL     1      -9.405   5.852  69.704  1.00  0.00    -0.140 C  
BRANCH   9  10
HETATM   10  C   UNL     1      -9.183   4.928  68.512  1.00  0.00    -0.157 A  
HETATM   11  C   UNL     1      -8.640   3.266  66.295  1.00  0.00    -0.121 A  
HETATM   12 BR   UNL     1      -6.351   2.037  67.459  1.00  0.00    -0.025 Br 
HETATM   13  C   UNL     1      -8.067   4.063  68.499  1.00  0.00    -0.078 A  
HETATM   14  C   UNL     1      -7.820   3.226  67.414  1.00  0.00    -0.077 A  
HETATM   15  C   UNL     1      -9.709   4.160  66.269  1.00  0.00    -0.206 A  
HETATM   16 BR   UNL     1     -10.771   4.214  64.686  1.00  0.00    -0.039 Br 
HETATM   17  C   UNL     1     -10.021   4.985  67.374  1.00  0.00    -0.177 A  
HETATM   18  N   UNL     1     -10.993   5.999  67.235  1.00  0.00    -0.482 NA 
HETATM   19  H1  UNL     1     -11.597   6.040  66.414  1.00  0.00     0.000 HD 
HETATM   20  H2  UNL     1     -10.525   6.900  67.329  1.00  0.00     0.000 HD 
ENDBRANCH   9  10
ENDBRANCH   2   9
TORSDOF 3
ENDMDL
MODEL      259
REMARK 921   NORMALIZED FREE ENERGY PREDICTED BY IDOCK:   -0.88 KCAL/MOL
REMARK 922        TOTAL FREE ENERGY PREDICTED BY IDOCK:   -1.66 KCAL/MOL
REMARK 923 INTER-LIGAND FREE ENERGY PREDICTED BY IDOCK:   -2.56 KCAL/MOL
REMARK 924 INTRA-LIGAND FREE ENERGY PREDICTED BY IDOCK:    0.90 KCAL/MOL
REMARK 927      BINDING AFFINITY PREDICTED BY RF-SCORE:    0.00 PKD
ROOT
HETATM    1  C   UNL     1     -12.113  16.009  67.652  1.00  0.00     0.838 C  
HETATM    2  N   UNL     1     -10.688  16.176  67.992  1.00  0.00    -0.310 NA 
ENDROOT
BRANCH   2   3
HETATM    3  C   UNL     1     -10.466  15.919  69.451  1.00  0.00    -0.265 C  
HETATM    4  C   UNL     1     -11.827  13.310  70.030  1.00  0.00    -0.365 C  
HETATM    5  C   UNL     1      -9.693  14.610  69.746  1.00  0.00     0.311 C  
HETATM    6  C   UNL     1     -11.784  15.828  70.264  1.00  0.00    -0.373 C  
HETATM    7  C   UNL     1     -12.621  14.607  69.883  1.00  0.00    -0.223 C  
HETATM    8  C   UNL     1     -10.480  13.373  69.316  1.00  0.00     0.130 C  
ENDBRANCH   2   3
BRANCH   2   9
HETATM    9  C   UNL     1     -10.231  17.544  67.623  1.00  0.00    -0.343 C  
BRANCH   9  10
HETATM   10  C   UNL     1      -8.729  17.801  67.646  1.00  0.00    -0.244 A  
HETATM   11  C   UNL     1      -5.938  18.197  67.802  1.00  0.00    -0.157 A  
HETATM   12 BR   UNL     1      -5.291  15.424  67.770  1.00  0.00    -0.058 Br 
HETATM   13  C   UNL     1      -7.836  16.710  67.705  1.00  0.00    -0.189 A  
HETATM   14  C   UNL     1      -6.458  16.911  67.755  1.00  0.00    -0.143 A  
HETATM   15  C   UNL     1      -6.811  19.283  67.808  1.00  0.00    -0.225 A  
HETATM   16 BR   UNL     1      -6.046  21.025  67.930  1.00  0.00    -0.405 Br 
HETATM   17  C   UNL     1      -8.211  19.116  67.704  1.00  0.00    -0.285 A  
HETATM   18  N   UNL     1      -9.061  20.226  67.897  1.00  0.00    -0.252 NA 
HETATM   19  H1  UNL     1      -8.688  21.175  67.938  1.00  0.00     0.000 HD 
HETATM   20  H2  UNL     1      -9.606  20.064  68.744  1.00  0.00     0.000 HD 
ENDBRANCH   9  10
ENDBRANCH   2   9
TORSDOF 3
ENDMDL
MODEL      260
REMARK 921   NORMALIZED FREE ENERGY PREDICTED BY IDOCK:   -0.70 KCAL/MOL
REMARK 922        TOTAL FREE ENERGY PREDICTED BY IDOCK:   -1.45 KCAL/MOL
REMARK 923 INTER-LIGAND FREE ENERGY PREDICTED BY IDOCK:   -1.93 KCAL/MOL
REMARK 924 INTRA-LIGAND FREE ENERGY PREDICTED BY IDOCK:    0.48 KCAL/MOL
REMARK 927      BINDING AFFINITY PREDICTED BY RF-SCORE:    0.00 PKD
ROOT
HETATM    1  C   UNL     1      -7.085   7.086  68.934  1.00  0.00    -0.085 C  
HETATM    2  N   UNL     1      -7.324   8.389  69.583  1.00  0.00    -0.070 NA 
ENDROOT
BRANCH   2   3
HETATM    3  C   UNL     1      -6.100   9.248  69.491  1.00  0.00    -0.040 C  
HETATM    4  C   UNL     1      -6.607  11.140  67.220  1.00  0.00    -0.083 C  
HETATM    5  C   UNL     1      -6.379  10.758  69.695  1.00  0.00    -0.089 C  
HETATM    6  C   UNL     1      -5.370   9.130  68.128  1.00  0.00    -0.034 C  
HETATM    7  C   UNL     1      -6.198   9.689  66.972  1.00  0.00    -0.064 C  
HETATM    8  C   UNL     1      -7.259  11.331  68.586  1.00  0.00    -0.098 C  
ENDBRANCH   2   3
BRANCH   2   9
HETATM    9  C   UNL     1      -7.720   8.187  71.004  1.00  0.00    -0.088 C  
BRANCH   9  10
HETATM   10  C   UNL     1      -8.737   7.087  71.288  1.00  0.00    -0.130 A  
HETATM   11  C   UNL     1     -10.596   5.000  71.685  1.00  0.00    -0.187 A  
HETATM   12 BR   UNL     1      -8.752   2.910  71.104  1.00  0.00    -0.132 Br 
HETATM   13  C   UNL     1      -8.376   5.737  71.092  1.00  0.00    -0.123 A  
HETATM   14  C   UNL     1      -9.290   4.709  71.316  1.00  0.00    -0.146 A  
HETATM   15  C   UNL     1     -10.983   6.332  71.821  1.00  0.00    -0.258 A  
HETATM   16 BR   UNL     1     -12.802   6.677  72.275  1.00  0.00     0.178 Br 
HETATM   17  C   UNL     1     -10.068   7.396  71.655  1.00  0.00    -0.183 A  
HETATM   18  N   UNL     1     -10.542   8.725  71.621  1.00  0.00    -0.302 NA 
HETATM   19  H1  UNL     1     -11.502   8.949  71.886  1.00  0.00     0.000 HD 
HETATM   20  H2  UNL     1     -10.378   9.096  70.685  1.00  0.00     0.000 HD 
ENDBRANCH   9  10
ENDBRANCH   2   9
TORSDOF 3
ENDMDL
MODEL      261
REMARK 921   NORMALIZED FREE ENERGY PREDICTED BY IDOCK:   -0.68 KCAL/MOL
REMARK 922        TOTAL FREE ENERGY PREDICTED BY IDOCK:   -1.43 KCAL/MOL
REMARK 923 INTER-LIGAND FREE ENERGY PREDICTED BY IDOCK:   -2.30 KCAL/MOL
REMARK 924 INTRA-LIGAND FREE ENERGY PREDICTED BY IDOCK:    0.87 KCAL/MOL
REMARK 927      BINDING AFFINITY PREDICTED BY RF-SCORE:    0.00 PKD
ROOT
HETATM    1  C   UNL     1      -9.253   8.671  69.675  1.00  0.00    -0.157 C  
HETATM    2  N   UNL     1      -9.090   9.090  68.270  1.00  0.00    -0.133 NA 
ENDROOT
BRANCH   2   3
HETATM    3  C   UNL     1     -10.300   9.843  67.807  1.00  0.00    -0.221 C  
HETATM    4  C   UNL     1      -9.339  12.616  67.188  1.00  0.00    -0.210 C  
HETATM    5  C   UNL     1     -10.180  10.393  66.364  1.00  0.00    -0.292 C  
HETATM    6  C   UNL     1     -10.641  11.063  68.702  1.00  0.00    -0.225 C  
HETATM    7  C   UNL     1      -9.577  12.157  68.626  1.00  0.00    -0.068 C  
HETATM    8  C   UNL     1      -9.079  11.445  66.244  1.00  0.00    -0.211 C  
ENDBRANCH   2   3
BRANCH   2   9
HETATM    9  C   UNL     1      -8.848   7.901  67.408  1.00  0.00    -0.127 C  
BRANCH   9  10
HETATM   10  C   UNL     1      -8.092   6.735  68.035  1.00  0.00    -0.114 A  
HETATM   11  C   UNL     1      -6.578   4.659  69.205  1.00  0.00    -0.040 A  
HETATM   12 BR   UNL     1      -5.871   6.145  71.528  1.00  0.00    -0.028 Br 
HETATM   13  C   UNL     1      -7.424   6.918  69.264  1.00  0.00    -0.094 A  
HETATM   14  C   UNL     1      -6.701   5.881  69.851  1.00  0.00    -0.052 A  
HETATM   15  C   UNL     1      -7.181   4.484  67.961  1.00  0.00    -0.065 A  
HETATM   16 BR   UNL     1      -6.935   2.805  67.093  1.00  0.00    -0.049 Br 
HETATM   17  C   UNL     1      -7.966   5.496  67.363  1.00  0.00    -0.101 A  
HETATM   18  N   UNL     1      -8.402   5.344  66.029  1.00  0.00    -0.116 NA 
HETATM   19  H1  UNL     1      -8.312   4.450  65.544  1.00  0.00     0.000 HD 
HETATM   20  H2  UNL     1      -7.944   6.058  65.463  1.00  0.00     0.000 HD 
ENDBRANCH   9  10
ENDBRANCH   2   9
TORSDOF 3
ENDMDL
MODEL      262
REMARK 921   NORMALIZED FREE ENERGY PREDICTED BY IDOCK:   -0.66 KCAL/MOL
REMARK 922        TOTAL FREE ENERGY PREDICTED BY IDOCK:   -1.40 KCAL/MOL
REMARK 923 INTER-LIGAND FREE ENERGY PREDICTED BY IDOCK:   -2.84 KCAL/MOL
REMARK 924 INTRA-LIGAND FREE ENERGY PREDICTED BY IDOCK:    1.44 KCAL/MOL
REMARK 927      BINDING AFFINITY PREDICTED BY RF-SCORE:    0.00 PKD
ROOT
HETATM    1  C   UNL     1      -7.316   8.525  66.762  1.00  0.00    -0.082 C  
HETATM    2  N   UNL     1      -8.691   8.913  67.127  1.00  0.00    -0.119 NA 
ENDROOT
BRANCH   2   3
HETATM    3  C   UNL     1      -9.220   9.927  66.159  1.00  0.00    -0.168 C  
HETATM    4  C   UNL     1     -10.153  12.235  67.831  1.00  0.00    -0.200 C  
HETATM    5  C   UNL     1      -8.480  11.287  66.210  1.00  0.00    -0.156 C  
HETATM    6  C   UNL     1     -10.722  10.251  66.370  1.00  0.00    -0.103 C  
HETATM    7  C   UNL     1     -10.984  10.960  67.698  1.00  0.00    -0.350 C  
HETATM    8  C   UNL     1      -8.673  11.991  67.553  1.00  0.00    -0.166 C  
ENDBRANCH   2   3
BRANCH   2   9
HETATM    9  C   UNL     1      -8.721   9.445  68.516  1.00  0.00    -0.128 C  
BRANCH   9  10
HETATM   10  C   UNL     1      -8.525   8.441  69.646  1.00  0.00    -0.127 A  
HETATM   11  C   UNL     1      -8.300   6.564  71.743  1.00  0.00    -0.116 A  
HETATM   12 BR   UNL     1      -9.723   4.504  70.387  1.00  0.00    -0.297 Br 
HETATM   13  C   UNL     1      -9.112   7.161  69.550  1.00  0.00    -0.146 A  
HETATM   14  C   UNL     1      -8.975   6.229  70.577  1.00  0.00    -0.151 A  
HETATM   15  C   UNL     1      -7.768   7.845  71.876  1.00  0.00    -0.093 A  
HETATM   16 BR   UNL     1      -6.899   8.270  73.519  1.00  0.00    -0.136 Br 
HETATM   17  C   UNL     1      -7.842   8.796  70.833  1.00  0.00    -0.120 A  
HETATM   18  N   UNL     1      -7.455  10.132  71.078  1.00  0.00    -0.178 NA 
HETATM   19  H1  UNL     1      -6.962  10.388  71.934  1.00  0.00     0.000 HD 
HETATM   20  H2  UNL     1      -8.285  10.720  71.002  1.00  0.00     0.000 HD 
ENDBRANCH   9  10
ENDBRANCH   2   9
TORSDOF 3
ENDMDL
MODEL      263
REMARK 921   NORMALIZED FREE ENERGY PREDICTED BY IDOCK:   -0.60 KCAL/MOL
REMARK 922        TOTAL FREE ENERGY PREDICTED BY IDOCK:   -1.33 KCAL/MOL
REMARK 923 INTER-LIGAND FREE ENERGY PREDICTED BY IDOCK:   -2.93 KCAL/MOL
REMARK 924 INTRA-LIGAND FREE ENERGY PREDICTED BY IDOCK:    1.60 KCAL/MOL
REMARK 927      BINDING AFFINITY PREDICTED BY RF-SCORE:    0.00 PKD
ROOT
HETATM    1  C   UNL     1     -12.024  13.273  68.174  1.00  0.00    -0.304 C  
HETATM    2  N   UNL     1     -11.441  14.006  69.313  1.00  0.00    -0.278 NA 
ENDROOT
BRANCH   2   3
HETATM    3  C   UNL     1     -10.100  14.563  68.943  1.00  0.00    -0.224 C  
HETATM    4  C   UNL     1     -10.651  16.787  67.007  1.00  0.00    -0.234 C  
HETATM    5  C   UNL     1      -9.922  16.059  69.302  1.00  0.00    -0.252 C  
HETATM    6  C   UNL     1      -9.786  14.448  67.429  1.00  0.00    -0.224 C  
HETATM    7  C   UNL     1     -10.703  15.322  66.574  1.00  0.00    -0.311 C  
HETATM    8  C   UNL     1     -10.873  16.953  68.508  1.00  0.00    -0.335 C  
ENDBRANCH   2   3
BRANCH   2   9
HETATM    9  C   UNL     1     -11.331  13.110  70.496  1.00  0.00     0.720 C  
BRANCH   9  10
HETATM   10  C   UNL     1     -11.636  11.632  70.274  1.00  0.00    -0.254 A  
HETATM   11  C   UNL     1     -12.171   8.874  69.999  1.00  0.00     0.721 A  
HETATM   12 BR   UNL     1     -14.148   8.799  72.047  1.00  0.00    -0.503 Br 
HETATM   13  C   UNL     1     -12.567  10.980  71.109  1.00  0.00    -0.522 A  
HETATM   14  C   UNL     1     -12.848   9.624  70.951  1.00  0.00    -0.192 A  
HETATM   15  C   UNL     1     -11.204   9.493  69.209  1.00  0.00    -0.000 A  
HETATM   16 BR   UNL     1     -10.266   8.405  67.956  1.00  0.00    -0.268 Br 
HETATM   17  C   UNL     1     -10.933  10.877  69.307  1.00  0.00    -0.244 A  
HETATM   18  N   UNL     1      -9.824  11.420  68.622  1.00  0.00    -0.228 NA 
HETATM   19  H1  UNL     1      -9.318  10.875  67.924  1.00  0.00     0.000 HD 
HETATM   20  H2  UNL     1      -9.153  11.746  69.317  1.00  0.00     0.000 HD 
ENDBRANCH   9  10
ENDBRANCH   2   9
TORSDOF 3
ENDMDL
MODEL      264
REMARK 921   NORMALIZED FREE ENERGY PREDICTED BY IDOCK:   -0.58 KCAL/MOL
REMARK 922        TOTAL FREE ENERGY PREDICTED BY IDOCK:   -1.31 KCAL/MOL
REMARK 923 INTER-LIGAND FREE ENERGY PREDICTED BY IDOCK:   -2.15 KCAL/MOL
REMARK 924 INTRA-LIGAND FREE ENERGY PREDICTED BY IDOCK:    0.84 KCAL/MOL
REMARK 927      BINDING AFFINITY PREDICTED BY RF-SCORE:    0.00 PKD
ROOT
HETATM    1  C   UNL     1      -9.192   8.623  69.534  1.00  0.00    -0.150 C  
HETATM    2  N   UNL     1      -9.010   8.701  68.073  1.00  0.00    -0.141 NA 
ENDROOT
BRANCH   2   3
HETATM    3  C   UNL     1     -10.236   9.268  67.425  1.00  0.00    -0.243 C  
HETATM    4  C   UNL     1      -9.266  11.500  65.670  1.00  0.00    -0.184 C  
HETATM    5  C   UNL     1     -10.222   9.182  65.878  1.00  0.00     0.034 C  
HETATM    6  C   UNL     1     -10.474  10.762  67.767  1.00  0.00    -0.243 C  
HETATM    7  C   UNL     1      -9.395  11.673  67.183  1.00  0.00    -0.178 C  
HETATM    8  C   UNL     1      -9.111  10.036  65.269  1.00  0.00    -0.243 C  
ENDBRANCH   2   3
BRANCH   2   9
HETATM    9  C   UNL     1      -8.700   7.352  67.524  1.00  0.00    -0.124 C  
BRANCH   9  10
HETATM   10  C   UNL     1      -8.154   6.318  68.502  1.00  0.00    -0.109 A  
HETATM   11  C   UNL     1      -7.270   4.392  70.368  1.00  0.00    -0.048 A  
HETATM   12 BR   UNL     1      -9.210   2.438  69.648  1.00  0.00    -0.176 Br 
HETATM   13  C   UNL     1      -8.806   5.074  68.636  1.00  0.00    -0.111 A  
HETATM   14  C   UNL     1      -8.349   4.117  69.540  1.00  0.00    -0.057 A  
HETATM   15  C   UNL     1      -6.655   5.641  70.289  1.00  0.00    -0.046 A  
HETATM   16 BR   UNL     1      -5.214   5.987  71.488  1.00  0.00    -0.018 Br 
HETATM   17  C   UNL     1      -7.059   6.614  69.347  1.00  0.00    -0.080 A  
HETATM   18  N   UNL     1      -6.533   7.922  69.426  1.00  0.00    -0.035 NA 
HETATM   19  H1  UNL     1      -5.743   8.136  70.036  1.00  0.00     0.000 HD 
HETATM   20  H2  UNL     1      -7.296   8.555  69.664  1.00  0.00     0.000 HD 
ENDBRANCH   9  10
ENDBRANCH   2   9
TORSDOF 3
ENDMDL
MODEL      265
REMARK 921   NORMALIZED FREE ENERGY PREDICTED BY IDOCK:   -0.39 KCAL/MOL
REMARK 922        TOTAL FREE ENERGY PREDICTED BY IDOCK:   -1.09 KCAL/MOL
REMARK 923 INTER-LIGAND FREE ENERGY PREDICTED BY IDOCK:   -3.90 KCAL/MOL
REMARK 924 INTRA-LIGAND FREE ENERGY PREDICTED BY IDOCK:    2.81 KCAL/MOL
REMARK 927      BINDING AFFINITY PREDICTED BY RF-SCORE:    0.00 PKD
ROOT
HETATM    1  C   UNL     1     -12.007  14.044  67.882  1.00  0.00    -0.351 C  
HETATM    2  N   UNL     1     -10.617  13.828  67.440  1.00  0.00    -0.259 NA 
ENDROOT
BRANCH   2   3
HETATM    3  C   UNL     1     -10.592  13.327  66.028  1.00  0.00    -0.286 C  
HETATM    4  C   UNL     1     -12.232  15.278  64.446  1.00  0.00    -0.222 C  
HETATM    5  C   UNL     1      -9.974  14.329  65.020  1.00  0.00    -0.208 C  
HETATM    6  C   UNL     1     -11.998  12.980  65.476  1.00  0.00    -0.470 C  
HETATM    7  C   UNL     1     -12.887  14.213  65.325  1.00  0.00    -0.370 C  
HETATM    8  C   UNL     1     -10.810  15.602  64.896  1.00  0.00    -0.438 C  
ENDBRANCH   2   3
BRANCH   2   9
HETATM    9  C   UNL     1      -9.934  12.869  68.351  1.00  0.00    -0.211 C  
BRANCH   9  10
HETATM   10  C   UNL     1      -9.028  11.827  67.704  1.00  0.00    -0.169 A  
HETATM   11  C   UNL     1      -7.463   9.843  66.445  1.00  0.00    -0.101 A  
HETATM   12 BR   UNL     1      -8.315  10.492  63.807  1.00  0.00    -0.046 Br 
HETATM   13  C   UNL     1      -9.072  11.637  66.307  1.00  0.00    -0.219 A  
HETATM   14  C   UNL     1      -8.277  10.675  65.687  1.00  0.00    -0.154 A  
HETATM   15  C   UNL     1      -7.458   9.979  67.832  1.00  0.00    -0.089 A  
HETATM   16 BR   UNL     1      -6.365   8.775  68.827  1.00  0.00    -0.049 Br 
HETATM   17  C   UNL     1      -8.210  10.980  68.488  1.00  0.00    -0.146 A  
HETATM   18  N   UNL     1      -8.317  10.962  69.895  1.00  0.00    -0.111 NA 
HETATM   19  H1  UNL     1      -7.727  10.351  70.460  1.00  0.00     0.000 HD 
HETATM   20  H2  UNL     1      -9.290  10.773  70.136  1.00  0.00     0.000 HD 
ENDBRANCH   9  10
ENDBRANCH   2   9
TORSDOF 3
ENDMDL
MODEL      266
REMARK 921   NORMALIZED FREE ENERGY PREDICTED BY IDOCK:   -0.31 KCAL/MOL
REMARK 922        TOTAL FREE ENERGY PREDICTED BY IDOCK:   -1.00 KCAL/MOL
REMARK 923 INTER-LIGAND FREE ENERGY PREDICTED BY IDOCK:   -1.76 KCAL/MOL
REMARK 924 INTRA-LIGAND FREE ENERGY PREDICTED BY IDOCK:    0.76 KCAL/MOL
REMARK 927      BINDING AFFINITY PREDICTED BY RF-SCORE:    0.00 PKD
ROOT
HETATM    1  C   UNL     1      -7.458   9.461  66.282  1.00  0.00    -0.096 C  
HETATM    2  N   UNL     1      -8.885   9.480  66.654  1.00  0.00    -0.133 NA 
ENDROOT
BRANCH   2   3
HETATM    3  C   UNL     1      -9.201  10.712  67.445  1.00  0.00    -0.143 C  
HETATM    4  C   UNL     1     -10.723  12.504  65.583  1.00  0.00    -0.297 C  
HETATM    5  C   UNL     1     -10.718  10.990  67.592  1.00  0.00    -0.281 C  
HETATM    6  C   UNL     1      -8.587  12.001  66.842  1.00  0.00    -0.189 C  
HETATM    7  C   UNL     1      -9.204  12.364  65.491  1.00  0.00     0.211 C  
HETATM    8  C   UNL     1     -11.374  11.294  66.246  1.00  0.00    -0.057 C  
ENDBRANCH   2   3
BRANCH   2   9
HETATM    9  C   UNL     1      -9.228   8.255  67.427  1.00  0.00    -0.141 C  
BRANCH   9  10
HETATM   10  C   UNL     1      -8.175   7.154  67.480  1.00  0.00    -0.117 A  
HETATM   11  C   UNL     1      -6.139   5.204  67.646  1.00  0.00    -0.030 A  
HETATM   12 BR   UNL     1      -5.881   5.353  70.477  1.00  0.00    -0.022 Br 
HETATM   13  C   UNL     1      -7.587   6.811  68.716  1.00  0.00    -0.105 A  
HETATM   14  C   UNL     1      -6.601   5.829  68.796  1.00  0.00    -0.051 A  
HETATM   15  C   UNL     1      -6.667   5.577  66.411  1.00  0.00    -0.057 A  
HETATM   16 BR   UNL     1      -5.958   4.727  64.860  1.00  0.00    -0.022 Br 
HETATM   17  C   UNL     1      -7.705   6.530  66.300  1.00  0.00    -0.095 A  
HETATM   18  N   UNL     1      -8.079   7.009  65.026  1.00  0.00    -0.135 NA 
HETATM   19  H1  UNL     1      -7.741   6.559  64.174  1.00  0.00     0.000 HD 
HETATM   20  H2  UNL     1      -7.840   7.999  64.977  1.00  0.00     0.000 HD 
ENDBRANCH   9  10
ENDBRANCH   2   9
TORSDOF 3
ENDMDL
MODEL      267
REMARK 921   NORMALIZED FREE ENERGY PREDICTED BY IDOCK:   -0.18 KCAL/MOL
REMARK 922        TOTAL FREE ENERGY PREDICTED BY IDOCK:   -0.84 KCAL/MOL
REMARK 923 INTER-LIGAND FREE ENERGY PREDICTED BY IDOCK:   -3.26 KCAL/MOL
REMARK 924 INTRA-LIGAND FREE ENERGY PREDICTED BY IDOCK:    2.42 KCAL/MOL
REMARK 927      BINDING AFFINITY PREDICTED BY RF-SCORE:    0.00 PKD
ROOT
HETATM    1  C   UNL     1      -7.933  17.800  68.811  1.00  0.00    -0.238 C  
HETATM    2  N   UNL     1      -6.504  17.458  68.945  1.00  0.00    -0.197 NA 
ENDROOT
BRANCH   2   3
HETATM    3  C   UNL     1      -5.650  18.618  68.533  1.00  0.00    -0.192 C  
HETATM    4  C   UNL     1      -7.560  20.815  67.810  1.00  0.00    -0.168 C  
HETATM    5  C   UNL     1      -5.850  19.883  69.403  1.00  0.00    -0.308 C  
HETATM    6  C   UNL     1      -5.891  19.065  67.068  1.00  0.00    -0.158 C  
HETATM    7  C   UNL     1      -7.287  19.651  66.859  1.00  0.00    -0.246 C  
HETATM    8  C   UNL     1      -7.260  20.455  69.263  1.00  0.00     0.215 C  
ENDBRANCH   2   3
BRANCH   2   9
HETATM    9  C   UNL     1      -6.188  16.254  68.128  1.00  0.00    -0.124 C  
BRANCH   9  10
HETATM   10  C   UNL     1      -7.360  15.367  67.724  1.00  0.00    -0.180 A  
HETATM   11  C   UNL     1      -9.616  13.820  67.025  1.00  0.00    -0.251 A  
HETATM   12 BR   UNL     1     -10.833  15.853  65.447  1.00  0.00    -0.331 Br 
HETATM   13  C   UNL     1      -8.396  15.900  66.929  1.00  0.00    -0.281 A  
HETATM   14  C   UNL     1      -9.495  15.124  66.564  1.00  0.00    -0.283 A  
HETATM   15  C   UNL     1      -8.630  13.301  67.863  1.00  0.00    -0.188 A  
HETATM   16 BR   UNL     1      -8.874  11.525  68.512  1.00  0.00    -0.103 Br 
HETATM   17  C   UNL     1      -7.477  14.042  68.207  1.00  0.00    -0.123 A  
HETATM   18  N   UNL     1      -6.601  13.549  69.199  1.00  0.00    -0.107 NA 
HETATM   19  H1  UNL     1      -6.686  12.593  69.547  1.00  0.00     0.000 HD 
HETATM   20  H2  UNL     1      -6.639  14.182  69.998  1.00  0.00     0.000 HD 
ENDBRANCH   9  10
ENDBRANCH   2   9
TORSDOF 3
ENDMDL
MODEL      268
REMARK 921   NORMALIZED FREE ENERGY PREDICTED BY IDOCK:    1.68 KCAL/MOL
REMARK 922        TOTAL FREE ENERGY PREDICTED BY IDOCK:    1.35 KCAL/MOL
REMARK 923 INTER-LIGAND FREE ENERGY PREDICTED BY IDOCK:   -1.13 KCAL/MOL
REMARK 924 INTRA-LIGAND FREE ENERGY PREDICTED BY IDOCK:    2.48 KCAL/MOL
REMARK 927      BINDING AFFINITY PREDICTED BY RF-SCORE:    0.00 PKD
ROOT
HETATM    1  C   UNL     1      -8.101  17.532  70.020  1.00  0.00     2.003 C  
HETATM    2  N   UNL     1      -7.004  16.548  69.978  1.00  0.00     0.303 NA 
ENDROOT
BRANCH   2   3
HETATM    3  C   UNL     1      -5.689  17.241  69.785  1.00  0.00    -0.227 C  
HETATM    4  C   UNL     1      -6.195  20.128  70.420  1.00  0.00    -0.372 C  
HETATM    5  C   UNL     1      -5.153  17.931  71.064  1.00  0.00    -0.236 C  
HETATM    6  C   UNL     1      -5.731  18.340  68.693  1.00  0.00    -0.182 C  
HETATM    7  C   UNL     1      -6.620  19.519  69.084  1.00  0.00    -0.362 C  
HETATM    8  C   UNL     1      -6.058  19.076  71.517  1.00  0.00     0.574 C  
ENDBRANCH   2   3
BRANCH   2   9
HETATM    9  C   UNL     1      -7.243  15.562  68.888  1.00  0.00    -0.142 C  
BRANCH   9  10
HETATM   10  C   UNL     1      -8.489  15.767  68.034  1.00  0.00    -0.161 A  
HETATM   11  C   UNL     1     -10.833  16.251  66.536  1.00  0.00    -0.105 A  
HETATM   12 BR   UNL     1     -10.241  18.988  66.024  1.00  0.00    -0.408 Br 
HETATM   13  C   UNL     1      -8.776  17.047  67.515  1.00  0.00    -0.215 A  
HETATM   14  C   UNL     1      -9.921  17.274  66.754  1.00  0.00    -0.301 A  
HETATM   15  C   UNL     1     -10.593  14.997  67.095  1.00  0.00    -0.295 A  
HETATM   16 BR   UNL     1     -11.905  13.643  66.811  1.00  0.00    -0.471 Br 
HETATM   17  C   UNL     1      -9.416  14.718  67.826  1.00  0.00    -0.204 A  
HETATM   18  N   UNL     1      -9.302  13.496  68.524  1.00  0.00    -0.334 NA 
HETATM   19  H1  UNL     1      -9.970  12.740  68.375  1.00  0.00     0.000 HD 
HETATM   20  H2  UNL     1      -9.278  13.704  69.523  1.00  0.00     0.000 HD 
ENDBRANCH   9  10
ENDBRANCH   2   9
TORSDOF 3
ENDMDL
MODEL      269
REMARK 921   NORMALIZED FREE ENERGY PREDICTED BY IDOCK:    4.51 KCAL/MOL
REMARK 922        TOTAL FREE ENERGY PREDICTED BY IDOCK:    4.67 KCAL/MOL
REMARK 923 INTER-LIGAND FREE ENERGY PREDICTED BY IDOCK:    2.48 KCAL/MOL
REMARK 924 INTRA-LIGAND FREE ENERGY PREDICTED BY IDOCK:    2.19 KCAL/MOL
REMARK 927      BINDING AFFINITY PREDICTED BY RF-SCORE:    0.00 PKD
ROOT
HETATM    1  C   UNL     1     -12.209  16.377  67.302  1.00  0.00     1.809 C  
HETATM    2  N   UNL     1     -10.985  17.146  67.595  1.00  0.00    -0.229 NA 
ENDROOT
BRANCH   2   3
HETATM    3  C   UNL     1     -11.337  18.509  68.109  1.00  0.00     0.944 C  
HETATM    4  C   UNL     1      -9.194  20.340  67.085  1.00  0.00    -0.519 C  
HETATM    5  C   UNL     1     -11.582  19.555  66.993  1.00  0.00     0.856 C  
HETATM    6  C   UNL     1     -10.248  19.115  69.031  1.00  0.00    -0.242 C  
HETATM    7  C   UNL     1      -8.952  19.420  68.281  1.00  0.00    -0.384 C  
HETATM    8  C   UNL     1     -10.316  19.832  66.184  1.00  0.00    -0.627 C  
ENDBRANCH   2   3
BRANCH   2   9
HETATM    9  C   UNL     1     -10.140  17.246  66.374  1.00  0.00    -0.316 C  
BRANCH   9  10
HETATM   10  C   UNL     1      -8.641  17.030  66.552  1.00  0.00    -0.305 A  
HETATM   11  C   UNL     1      -5.863  16.568  66.756  1.00  0.00     0.031 A  
HETATM   12 BR   UNL     1      -5.210  17.909  64.331  1.00  0.00     0.712 Br 
HETATM   13  C   UNL     1      -7.750  17.465  65.548  1.00  0.00     0.819 A  
HETATM   14  C   UNL     1      -6.377  17.258  65.666  1.00  0.00     0.519 A  
HETATM   15  C   UNL     1      -6.738  16.079  67.724  1.00  0.00    -0.154 A  
HETATM   16 BR   UNL     1      -5.984  15.092  69.170  1.00  0.00    -0.101 Br 
HETATM   17  C   UNL     1      -8.130  16.318  67.662  1.00  0.00    -0.146 A  
HETATM   18  N   UNL     1      -8.992  15.652  68.560  1.00  0.00    -0.184 NA 
HETATM   19  H1  UNL     1      -8.623  15.138  69.361  1.00  0.00     0.000 HD 
HETATM   20  H2  UNL     1      -9.581  15.017  68.021  1.00  0.00     0.000 HD 
ENDBRANCH   9  10
ENDBRANCH   2   9
TORSDOF 3
ENDMDL
MODEL      270
REMARK 921   NORMALIZED FREE ENERGY PREDICTED BY IDOCK:    5.77 KCAL/MOL
REMARK 922        TOTAL FREE ENERGY PREDICTED BY IDOCK:    6.15 KCAL/MOL
REMARK 923 INTER-LIGAND FREE ENERGY PREDICTED BY IDOCK:   -0.85 KCAL/MOL
REMARK 924 INTRA-LIGAND FREE ENERGY PREDICTED BY IDOCK:    7.00 KCAL/MOL
REMARK 927      BINDING AFFINITY PREDICTED BY RF-SCORE:    0.00 PKD
ROOT
HETATM    1  C   UNL     1     -10.085  13.551  67.583  1.00  0.00    -0.229 C  
HETATM    2  N   UNL     1     -10.711  12.839  68.712  1.00  0.00    -0.238 NA 
ENDROOT
BRANCH   2   3
HETATM    3  C   UNL     1     -10.737  13.712  69.929  1.00  0.00     0.533 C  
HETATM    4  C   UNL     1     -12.989  15.645  69.492  1.00  0.00     0.646 C  
HETATM    5  C   UNL     1     -12.070  13.649  70.716  1.00  0.00    -0.374 C  
HETATM    6  C   UNL     1     -10.500  15.211  69.612  1.00  0.00    -0.261 C  
HETATM    7  C   UNL     1     -11.640  15.823  68.798  1.00  0.00    -0.401 C  
HETATM    8  C   UNL     1     -13.241  14.196  69.901  1.00  0.00     0.756 C  
ENDBRANCH   2   3
BRANCH   2   9
HETATM    9  C   UNL     1      -9.978  11.573  68.987  1.00  0.00    -0.019 C  
BRANCH   9  10
HETATM   10  C   UNL     1     -10.749  10.470  69.704  1.00  0.00    -0.302 A  
HETATM   11  C   UNL     1     -12.182   8.357  70.910  1.00  0.00    -0.106 A  
HETATM   12 BR   UNL     1     -10.337   6.332  70.136  1.00  0.00    -0.278 Br 
HETATM   13  C   UNL     1     -10.302   9.135  69.611  1.00  0.00    -0.226 A  
HETATM   14  C   UNL     1     -10.999   8.099  70.231  1.00  0.00    -0.240 A  
HETATM   15  C   UNL     1     -12.667   9.663  70.957  1.00  0.00    -0.271 A  
HETATM   16 BR   UNL     1     -14.323   9.953  71.855  1.00  0.00     0.574 Br 
HETATM   17  C   UNL     1     -11.958  10.744  70.385  1.00  0.00    -0.357 A  
HETATM   18  N   UNL     1     -12.572  12.012  70.297  1.00  0.00    -0.057 NA 
HETATM   19  H1  UNL     1     -13.444  12.210  70.789  1.00  0.00     0.000 HD 
HETATM   20  H2  UNL     1     -12.709  12.229  69.310  1.00  0.00     0.000 HD 
ENDBRANCH   9  10
ENDBRANCH   2   9
TORSDOF 3
ENDMDL
MODEL      271
REMARK 921   NORMALIZED FREE ENERGY PREDICTED BY IDOCK:    6.94 KCAL/MOL
REMARK 922        TOTAL FREE ENERGY PREDICTED BY IDOCK:    7.53 KCAL/MOL
REMARK 923 INTER-LIGAND FREE ENERGY PREDICTED BY IDOCK:    3.63 KCAL/MOL
REMARK 924 INTRA-LIGAND FREE ENERGY PREDICTED BY IDOCK:    3.90 KCAL/MOL
REMARK 927      BINDING AFFINITY PREDICTED BY RF-SCORE:    0.00 PKD
ROOT
HETATM    1  C   UNL     1     -11.697  17.725  68.149  1.00  0.00     1.590 C  
HETATM    2  N   UNL     1     -11.221  16.373  68.498  1.00  0.00    -0.363 NA 
ENDROOT
BRANCH   2   3
HETATM    3  C   UNL     1     -12.383  15.456  68.728  1.00  0.00     0.116 C  
HETATM    4  C   UNL     1     -11.454  12.738  67.862  1.00  0.00    -0.365 C  
HETATM    5  C   UNL     1     -12.085  14.307  69.724  1.00  0.00    -0.401 C  
HETATM    6  C   UNL     1     -12.891  14.774  67.432  1.00  0.00     1.549 C  
HETATM    7  C   UNL     1     -11.870  13.800  66.845  1.00  0.00    -0.447 C  
HETATM    8  C   UNL     1     -11.019  13.351  69.191  1.00  0.00    -0.213 C  
ENDBRANCH   2   3
BRANCH   2   9
HETATM    9  C   UNL     1     -10.350  16.433  69.704  1.00  0.00    -0.244 C  
BRANCH   9  10
HETATM   10  C   UNL     1      -8.905  15.977  69.536  1.00  0.00    -0.052 A  
HETATM   11  C   UNL     1      -6.194  15.264  69.201  1.00  0.00    -0.108 A  
HETATM   12 BR   UNL     1      -5.218  17.060  71.183  1.00  0.00     0.045 Br 
HETATM   13  C   UNL     1      -7.885  16.609  70.277  1.00  0.00     2.136 A  
HETATM   14  C   UNL     1      -6.551  16.234  70.127  1.00  0.00     0.240 A  
HETATM   15  C   UNL     1      -7.186  14.676  68.418  1.00  0.00    -0.117 A  
HETATM   16 BR   UNL     1      -6.635  13.390  67.123  1.00  0.00     0.640 Br 
HETATM   17  C   UNL     1      -8.554  14.993  68.582  1.00  0.00    -0.174 A  
HETATM   18  N   UNL     1      -9.498  14.513  67.649  1.00  0.00    -0.206 NA 
HETATM   19  H1  UNL     1      -9.244  13.803  66.961  1.00  0.00     0.000 HD 
HETATM   20  H2  UNL     1      -9.884  15.314  67.150  1.00  0.00     0.000 HD 
ENDBRANCH   9  10
ENDBRANCH   2   9
TORSDOF 3
ENDMDL
MODEL      272
REMARK 921   NORMALIZED FREE ENERGY PREDICTED BY IDOCK:    9.88 KCAL/MOL
REMARK 922        TOTAL FREE ENERGY PREDICTED BY IDOCK:   10.98 KCAL/MOL
REMARK 923 INTER-LIGAND FREE ENERGY PREDICTED BY IDOCK:    7.61 KCAL/MOL
REMARK 924 INTRA-LIGAND FREE ENERGY PREDICTED BY IDOCK:    3.37 KCAL/MOL
REMARK 927      BINDING AFFINITY PREDICTED BY RF-SCORE:    0.00 PKD
ROOT
HETATM    1  C   UNL     1      -8.454  13.086  68.657  1.00  0.00     0.041 C  
HETATM    2  N   UNL     1      -8.319  13.886  67.426  1.00  0.00    -0.189 NA 
ENDROOT
BRANCH   2   3
HETATM    3  C   UNL     1      -7.911  15.289  67.759  1.00  0.00    -0.147 C  
HETATM    4  C   UNL     1      -7.079  15.229  70.640  1.00  0.00     0.714 C  
HETATM    5  C   UNL     1      -6.436  15.419  68.215  1.00  0.00    -0.120 C  
HETATM    6  C   UNL     1      -8.764  15.924  68.887  1.00  0.00    -0.225 C  
HETATM    7  C   UNL     1      -8.552  15.238  70.236  1.00  0.00     0.836 C  
HETATM    8  C   UNL     1      -6.180  14.688  69.532  1.00  0.00    -0.120 C  
ENDBRANCH   2   3
BRANCH   2   9
HETATM    9  C   UNL     1      -9.600  13.877  66.668  1.00  0.00    -0.289 C  
BRANCH   9  10
HETATM   10  C   UNL     1     -10.198  12.513  66.338  1.00  0.00    -0.260 A  
HETATM   11  C   UNL     1     -11.401  10.054  65.649  1.00  0.00     1.897 A  
HETATM   12 BR   UNL     1     -11.174  10.445  62.838  1.00  0.00     3.091 Br 
HETATM   13  C   UNL     1     -10.403  12.150  64.990  1.00  0.00    -0.320 A  
HETATM   14  C   UNL     1     -10.972  10.923  64.655  1.00  0.00     0.043 A  
HETATM   15  C   UNL     1     -11.261  10.428  66.984  1.00  0.00     0.063 A  
HETATM   16 BR   UNL     1     -11.917   9.221  68.307  1.00  0.00     3.053 Br 
HETATM   17  C   UNL     1     -10.639  11.640  67.360  1.00  0.00    -0.220 A  
HETATM   18  N   UNL     1     -10.684  12.059  68.707  1.00  0.00    -0.236 NA 
HETATM   19  H1  UNL     1     -11.002  11.429  69.444  1.00  0.00     0.000 HD 
HETATM   20  H2  UNL     1     -11.245  12.910  68.755  1.00  0.00     0.000 HD 
ENDBRANCH   9  10
ENDBRANCH   2   9
TORSDOF 3
ENDMDL
MODEL      273
REMARK 921   NORMALIZED FREE ENERGY PREDICTED BY IDOCK:   12.03 KCAL/MOL
REMARK 922        TOTAL FREE ENERGY PREDICTED BY IDOCK:   13.51 KCAL/MOL
REMARK 923 INTER-LIGAND FREE ENERGY PREDICTED BY IDOCK:   13.21 KCAL/MOL
REMARK 924 INTRA-LIGAND FREE ENERGY PREDICTED BY IDOCK:    0.30 KCAL/MOL
REMARK 927      BINDING AFFINITY PREDICTED BY RF-SCORE:    0.00 PKD
ROOT
HETATM    1  C   UNL     1      -8.556  10.469  65.156  1.00  0.00    -0.180 C  
HETATM    2  N   UNL     1      -8.648  11.819  65.741  1.00  0.00     0.113 NA 
ENDROOT
BRANCH   2   3
HETATM    3  C   UNL     1      -9.256  12.773  64.758  1.00  0.00     0.880 C  
HETATM    4  C   UNL     1      -9.388  15.416  66.169  1.00  0.00    -0.367 C  
HETATM    5  C   UNL     1      -8.340  13.969  64.399  1.00  0.00     8.747 C  
HETATM    6  C   UNL     1     -10.591  13.390  65.249  1.00  0.00    -0.333 C  
HETATM    7  C   UNL     1     -10.400  14.308  66.456  1.00  0.00    -0.278 C  
HETATM    8  C   UNL     1      -8.079  14.871  65.605  1.00  0.00     3.225 C  
ENDBRANCH   2   3
BRANCH   2   9
HETATM    9  C   UNL     1      -7.300  12.286  66.164  1.00  0.00     1.192 C  
BRANCH   9  10
HETATM   10  C   UNL     1      -6.919  12.070  67.624  1.00  0.00    -0.118 A  
HETATM   11  C   UNL     1      -6.123  11.774  70.317  1.00  0.00    -0.116 A  
HETATM   12 BR   UNL     1      -6.660  14.476  71.034  1.00  0.00     0.613 Br 
HETATM   13  C   UNL     1      -6.935  13.162  68.517  1.00  0.00    -0.103 A  
HETATM   14  C   UNL     1      -6.567  13.004  69.852  1.00  0.00     0.129 A  
HETATM   15  C   UNL     1      -6.043  10.702  69.430  1.00  0.00    -0.047 A  
HETATM   16 BR   UNL     1      -5.374   9.050  70.107  1.00  0.00    -0.027 Br 
HETATM   17  C   UNL     1      -6.460  10.813  68.084  1.00  0.00    -0.058 A  
HETATM   18  N   UNL     1      -6.191   9.762  67.181  1.00  0.00    -0.063 NA 
HETATM   19  H1  UNL     1      -5.860   8.855  67.513  1.00  0.00     0.000 HD 
HETATM   20  H2  UNL     1      -5.530  10.104  66.484  1.00  0.00     0.000 HD 
ENDBRANCH   9  10
ENDBRANCH   2   9
TORSDOF 3
ENDMDL
MODEL      274
REMARK 921   NORMALIZED FREE ENERGY PREDICTED BY IDOCK:   12.32 KCAL/MOL
REMARK 922        TOTAL FREE ENERGY PREDICTED BY IDOCK:   13.86 KCAL/MOL
REMARK 923 INTER-LIGAND FREE ENERGY PREDICTED BY IDOCK:   14.48 KCAL/MOL
REMARK 924 INTRA-LIGAND FREE ENERGY PREDICTED BY IDOCK:   -0.62 KCAL/MOL
REMARK 927      BINDING AFFINITY PREDICTED BY RF-SCORE:    0.00 PKD
ROOT
HETATM    1  C   UNL     1      -7.328  15.976  66.880  1.00  0.00    -0.201 C  
HETATM    2  N   UNL     1      -8.586  15.468  66.303  1.00  0.00    -0.258 NA 
ENDROOT
BRANCH   2   3
HETATM    3  C   UNL     1      -9.753  16.248  66.830  1.00  0.00    -0.241 C  
HETATM    4  C   UNL     1     -10.902  17.685  64.462  1.00  0.00     2.082 C  
HETATM    5  C   UNL     1     -11.106  15.862  66.183  1.00  0.00    -0.024 C  
HETATM    6  C   UNL     1      -9.606  17.778  66.631  1.00  0.00    -0.311 C  
HETATM    7  C   UNL     1      -9.636  18.181  65.157  1.00  0.00     2.073 C  
HETATM    8  C   UNL     1     -11.142  16.195  64.692  1.00  0.00    -0.310 C  
ENDBRANCH   2   3
BRANCH   2   9
HETATM    9  C   UNL     1      -8.740  14.019  66.610  1.00  0.00    -0.028 C  
BRANCH   9  10
HETATM   10  C   UNL     1      -8.872  13.072  65.422  1.00  0.00     1.291 A  
HETATM   11  C   UNL     1      -9.199  11.237  63.301  1.00  0.00    -0.235 A  
HETATM   12 BR   UNL     1     -12.042  11.390  63.276  1.00  0.00     0.494 Br 
HETATM   13  C   UNL     1     -10.154  12.701  64.966  1.00  0.00    -0.252 A  
HETATM   14  C   UNL     1     -10.309  11.816  63.901  1.00  0.00    -0.385 A  
HETATM   15  C   UNL     1      -7.928  11.548  63.783  1.00  0.00     1.413 A  
HETATM   16 BR   UNL     1      -6.442  10.683  62.961  1.00  0.00     0.085 Br 
HETATM   17  C   UNL     1      -7.733  12.482  64.826  1.00  0.00     5.133 A  
HETATM   18  N   UNL     1      -6.452  12.626  65.401  1.00  0.00     4.152 NA 
HETATM   19  H1  UNL     1      -5.630  12.201  64.971  1.00  0.00     0.000 HD 
HETATM   20  H2  UNL     1      -6.502  12.308  66.369  1.00  0.00     0.000 HD 
ENDBRANCH   9  10
ENDBRANCH   2   9
TORSDOF 3
ENDMDL
MODEL      275
REMARK 921   NORMALIZED FREE ENERGY PREDICTED BY IDOCK:   12.84 KCAL/MOL
REMARK 922        TOTAL FREE ENERGY PREDICTED BY IDOCK:   14.47 KCAL/MOL
REMARK 923 INTER-LIGAND FREE ENERGY PREDICTED BY IDOCK:    5.88 KCAL/MOL
REMARK 924 INTRA-LIGAND FREE ENERGY PREDICTED BY IDOCK:    8.59 KCAL/MOL
REMARK 927      BINDING AFFINITY PREDICTED BY RF-SCORE:    0.00 PKD
ROOT
HETATM    1  C   UNL     1      -7.820  17.248  70.501  1.00  0.00     3.685 C  
HETATM    2  N   UNL     1      -6.977  16.039  70.561  1.00  0.00     0.853 NA 
ENDROOT
BRANCH   2   3
HETATM    3  C   UNL     1      -5.535  16.416  70.707  1.00  0.00    -0.056 C  
HETATM    4  C   UNL     1      -5.533  19.226  71.755  1.00  0.00    -0.310 C  
HETATM    5  C   UNL     1      -5.126  16.777  72.157  1.00  0.00     1.071 C  
HETATM    6  C   UNL     1      -5.128  17.631  69.834  1.00  0.00    -0.194 C  
HETATM    7  C   UNL     1      -5.807  18.925  70.282  1.00  0.00    -0.214 C  
HETATM    8  C   UNL     1      -5.840  18.033  72.655  1.00  0.00     2.689 C  
ENDBRANCH   2   3
BRANCH   2   9
HETATM    9  C   UNL     1      -7.185  15.212  69.340  1.00  0.00    -0.198 C  
BRANCH   9  10
HETATM   10  C   UNL     1      -8.323  15.621  68.413  1.00  0.00    -0.162 A  
HETATM   11  C   UNL     1     -10.345  16.365  66.587  1.00  0.00    -0.292 A  
HETATM   12 BR   UNL     1     -10.133  14.006  65.007  1.00  0.00    -0.230 Br 
HETATM   13  C   UNL     1      -8.656  14.801  67.314  1.00  0.00    -0.230 A  
HETATM   14  C   UNL     1      -9.673  15.160  66.432  1.00  0.00    -0.278 A  
HETATM   15  C   UNL     1      -9.983  17.214  67.632  1.00  0.00    -0.283 A  
HETATM   16 BR   UNL     1     -10.899  18.880  67.767  1.00  0.00    -0.234 Br 
HETATM   17  C   UNL     1      -8.994  16.856  68.577  1.00  0.00    -0.254 A  
HETATM   18  N   UNL     1      -8.535  17.817  69.503  1.00  0.00     0.517 NA 
HETATM   19  H1  UNL     1      -9.019  18.708  69.621  1.00  0.00     0.000 HD 
HETATM   20  H2  UNL     1      -7.556  18.015  69.295  1.00  0.00     0.000 HD 
ENDBRANCH   9  10
ENDBRANCH   2   9
TORSDOF 3
ENDMDL
