MODEL        1
REMARK 921   NORMALIZED FREE ENERGY PREDICTED BY IDOCK:   -9.11 KCAL/MOL
REMARK 922        TOTAL FREE ENERGY PREDICTED BY IDOCK:  -10.25 KCAL/MOL
REMARK 923 INTER-LIGAND FREE ENERGY PREDICTED BY IDOCK:  -10.71 KCAL/MOL
REMARK 924 INTRA-LIGAND FREE ENERGY PREDICTED BY IDOCK:    0.47 KCAL/MOL
REMARK 927      BINDING AFFINITY PREDICTED BY RF-SCORE:    0.00 PKD
ROOT
HETATM    1  C   UNL     1     -10.383  14.866  68.736  1.00  0.00    -0.245 C  
HETATM    2  C   UNL     1     -10.410  15.816  69.930  1.00  0.00    -0.313 C  
HETATM    3  C   UNL     1     -10.591  17.213  69.264  1.00  0.00    -0.220 C  
HETATM    4  C   UNL     1     -10.388  17.002  67.764  1.00  0.00    -0.335 C  
HETATM    5  N   UNL     1      -9.861  15.666  67.650  1.00  0.00    -0.226 N  
HETATM    6  C   UNL     1      -9.798  15.106  66.399  1.00  0.00    -0.280 C  
HETATM    7  O   UNL     1      -9.413  15.745  65.425  1.00  0.00    -0.321 OA 
HETATM    8  C   UNL     1     -10.119  13.600  66.360  1.00  0.00    -0.295 C  
HETATM    9  N   UNL     1     -10.968  13.016  67.529  1.00  0.00    -0.253 N  
HETATM   10  C   UNL     1     -10.524   8.688  66.949  1.00  0.00    -0.329 C  
HETATM   11  C   UNL     1     -11.167  11.653  67.675  1.00  0.00    -0.281 C  
HETATM   12  C   UNL     1      -9.981  10.209  65.180  1.00  0.00    -0.379 C  
HETATM   13  O   UNL     1     -12.267  11.112  67.726  1.00  0.00    -0.432 OA 
HETATM   14  C   UNL     1      -9.803  11.028  67.957  1.00  0.00    -0.171 C  
HETATM   15  C   UNL     1     -10.194  13.283  68.675  1.00  0.00    -0.172 C  
HETATM   16  O   UNL     1     -10.736  12.813  69.912  1.00  0.00    -0.131 OA 
HETATM   17  H   UNL     1     -10.623  11.870  69.876  1.00  0.00     0.000 HD 
HETATM   18  C   UNL     1      -9.642   9.959  66.661  1.00  0.00    -0.235 C  
HETATM   19  O   UNL     1      -9.140  12.388  68.290  1.00  0.00    -0.195 OA 
ENDROOT
BRANCH   8  20
HETATM   20  C   UNL     1     -10.602  13.233  65.000  1.00  0.00    -0.360 C  
HETATM   21  C   UNL     1     -13.034  13.721  65.349  1.00  0.00    -0.361 C  
HETATM   22  C   UNL     1     -11.828  13.890  64.428  1.00  0.00    -0.456 C  
HETATM   23  C   UNL     1     -12.059  13.163  63.100  1.00  0.00    -0.282 C  
ENDBRANCH   8  20
BRANCH  14  24
HETATM   24  N   UNL     1      -9.363  10.235  69.096  1.00  0.00    -0.195 N  
HETATM   25  H   UNL     1      -9.989   9.852  69.805  1.00  0.00     0.000 HD 
HETATM   26  O   UNL     1      -7.299  10.832  68.413  1.00  0.00    -0.085 OA 
HETATM   27  C   UNL     1      -7.990  10.066  69.098  1.00  0.00    -0.116 C  
BRANCH  27  28
HETATM   28  C   UNL     1      -7.337   8.976  69.940  1.00  0.00    -0.060 C  
HETATM   29  C   UNL     1      -6.450   9.368  71.144  1.00  0.00    -0.067 C  
HETATM   30  N   UNL     1      -6.590   8.283  72.181  1.00  0.00    -0.069 NA 
HETATM   31  C   UNL     1      -7.921   8.432  72.896  1.00  0.00    -0.091 C  
HETATM   32  C   UNL     1      -5.383   8.106  72.945  1.00  0.00    -0.042 C  
HETATM   33  C   UNL     1      -8.523   7.191  73.735  1.00  0.00    -0.176 C  
HETATM   34  C   UNL     1      -9.964   6.828  73.353  1.00  0.00    -0.247 A  
HETATM   35  C   UNL     1     -10.777   5.722  73.450  1.00  0.00    -0.273 A  
HETATM   36 BR   UNL     1     -10.355   4.113  74.289  1.00  0.00    -0.292 Br 
HETATM   37  N   UNL     1     -11.936   5.940  72.736  1.00  0.00    -0.539 NA 
HETATM   38  C   UNL     1     -11.916   7.186  72.147  1.00  0.00    -0.266 A  
HETATM   39  H   UNL     1     -12.701   5.271  72.654  1.00  0.00     0.000 HD 
HETATM   40  C   UNL     1     -12.713   7.817  71.176  1.00  0.00    -0.205 A  
HETATM   41  C   UNL     1     -12.323   9.101  70.743  1.00  0.00    -0.103 A  
HETATM   42  C   UNL     1     -11.146   9.684  71.189  1.00  0.00    -0.444 A  
HETATM   43  C   UNL     1     -10.307   8.920  71.995  1.00  0.00    -0.378 A  
HETATM   44  C   UNL     1     -10.740   7.746  72.596  1.00  0.00    -0.402 A  
HETATM   45  C   UNL     1      -8.877   8.831  71.774  1.00  0.00    -0.256 C  
HETATM   46  C   UNL     1      -8.573   8.344  70.541  1.00  0.00    -0.137 C  
ENDBRANCH  27  28
ENDBRANCH  14  24
TORSDOF 3
ENDMDL
MODEL        2
REMARK 921   NORMALIZED FREE ENERGY PREDICTED BY IDOCK:   -8.82 KCAL/MOL
REMARK 922        TOTAL FREE ENERGY PREDICTED BY IDOCK:   -9.91 KCAL/MOL
REMARK 923 INTER-LIGAND FREE ENERGY PREDICTED BY IDOCK:   -9.74 KCAL/MOL
REMARK 924 INTRA-LIGAND FREE ENERGY PREDICTED BY IDOCK:   -0.16 KCAL/MOL
REMARK 927      BINDING AFFINITY PREDICTED BY RF-SCORE:    0.00 PKD
ROOT
HETATM    1  C   UNL     1     -11.191  12.120  64.863  1.00  0.00    -0.323 C  
HETATM    2  C   UNL     1     -12.028  12.103  63.587  1.00  0.00    -0.628 C  
HETATM    3  C   UNL     1     -12.527  13.574  63.474  1.00  0.00    -0.234 C  
HETATM    4  C   UNL     1     -12.178  14.248  64.800  1.00  0.00    -0.443 C  
HETATM    5  N   UNL     1     -11.782  13.168  65.667  1.00  0.00    -0.346 N  
HETATM    6  C   UNL     1     -11.185  13.489  66.860  1.00  0.00    -0.311 C  
HETATM    7  O   UNL     1     -11.604  14.401  67.566  1.00  0.00    -0.336 OA 
HETATM    8  C   UNL     1     -10.053  12.533  67.282  1.00  0.00    -0.213 C  
HETATM    9  N   UNL     1      -9.357  11.705  66.161  1.00  0.00    -0.222 N  
HETATM   10  C   UNL     1      -7.041   8.767  68.456  1.00  0.00    -0.073 C  
HETATM   11  C   UNL     1      -8.450  10.700  66.454  1.00  0.00    -0.152 C  
HETATM   12  C   UNL     1      -7.891  10.738  69.520  1.00  0.00    -0.045 C  
HETATM   13  O   UNL     1      -7.298  10.657  66.032  1.00  0.00    -0.133 OA 
HETATM   14  C   UNL     1      -9.214   9.609  67.199  1.00  0.00    -0.134 C  
HETATM   15  C   UNL     1     -10.404  10.946  65.602  1.00  0.00    -0.242 C  
HETATM   16  O   UNL     1     -10.029  10.053  64.550  1.00  0.00    -0.376 OA 
HETATM   17  H   UNL     1      -9.560   9.354  64.990  1.00  0.00     0.000 HD 
HETATM   18  C   UNL     1      -8.386   9.555  68.669  1.00  0.00    -0.117 C  
HETATM   19  O   UNL     1     -10.601  10.165  66.790  1.00  0.00    -0.223 OA 
ENDROOT
BRANCH   8  20
HETATM   20  C   UNL     1      -9.118  13.248  68.195  1.00  0.00    -0.207 C  
HETATM   21  C   UNL     1      -8.315  14.988  66.583  1.00  0.00    -0.115 C  
HETATM   22  C   UNL     1      -8.829  14.710  67.992  1.00  0.00    -0.169 C  
HETATM   23  C   UNL     1      -7.750  15.027  69.032  1.00  0.00    -0.170 C  
ENDBRANCH   8  20
BRANCH  14  24
HETATM   24  N   UNL     1      -9.386   8.202  66.865  1.00  0.00    -0.162 N  
HETATM   25  H   UNL     1      -8.811   7.699  66.189  1.00  0.00     0.000 HD 
HETATM   26  O   UNL     1     -11.262   8.381  68.101  1.00  0.00     0.276 OA 
HETATM   27  C   UNL     1     -10.427   7.633  67.577  1.00  0.00    -0.266 C  
BRANCH  27  28
HETATM   28  C   UNL     1     -10.555   6.119  67.699  1.00  0.00    -0.340 C  
HETATM   29  C   UNL     1      -9.347   5.219  67.352  1.00  0.00    -0.116 C  
HETATM   30  N   UNL     1      -9.424   3.999  68.234  1.00  0.00    -0.164 NA 
HETATM   31  C   UNL     1      -8.969   4.357  69.637  1.00  0.00    -0.099 C  
HETATM   32  C   UNL     1      -8.892   2.829  67.585  1.00  0.00    -0.138 C  
HETATM   33  C   UNL     1      -9.345   3.388  70.873  1.00  0.00    -0.219 C  
HETATM   34  C   UNL     1     -10.025   4.112  72.041  1.00  0.00    -0.250 A  
HETATM   35  C   UNL     1     -10.839   3.767  73.096  1.00  0.00    -0.161 A  
HETATM   36 BR   UNL     1     -11.366   2.041  73.563  1.00  0.00    -0.301 Br 
HETATM   37  N   UNL     1     -11.302   4.909  73.712  1.00  0.00    -0.413 NA 
HETATM   38  C   UNL     1     -10.814   6.033  73.082  1.00  0.00    -0.259 A  
HETATM   39  H   UNL     1     -11.921   4.921  74.523  1.00  0.00     0.000 HD 
HETATM   40  C   UNL     1     -11.119   7.403  73.159  1.00  0.00    -0.357 A  
HETATM   41  C   UNL     1     -10.456   8.273  72.268  1.00  0.00    -0.392 A  
HETATM   42  C   UNL     1      -9.602   7.786  71.289  1.00  0.00    -0.178 A  
HETATM   43  C   UNL     1      -9.502   6.405  71.143  1.00  0.00    -0.177 A  
HETATM   44  C   UNL     1      -9.975   5.530  72.111  1.00  0.00    -0.219 A  
HETATM   45  C   UNL     1      -9.562   5.749  69.852  1.00  0.00    -0.201 C  
HETATM   46  C   UNL     1     -10.728   5.998  69.197  1.00  0.00    -0.399 C  
ENDBRANCH  27  28
ENDBRANCH  14  24
TORSDOF 3
ENDMDL
MODEL        3
REMARK 921   NORMALIZED FREE ENERGY PREDICTED BY IDOCK:   -8.49 KCAL/MOL
REMARK 922        TOTAL FREE ENERGY PREDICTED BY IDOCK:   -9.51 KCAL/MOL
REMARK 923 INTER-LIGAND FREE ENERGY PREDICTED BY IDOCK:  -10.26 KCAL/MOL
REMARK 924 INTRA-LIGAND FREE ENERGY PREDICTED BY IDOCK:    0.75 KCAL/MOL
REMARK 927      BINDING AFFINITY PREDICTED BY RF-SCORE:    0.00 PKD
ROOT
HETATM    1  C   UNL     1     -12.484  13.474  70.524  1.00  0.00    -0.302 C  
HETATM    2  C   UNL     1     -13.104  12.733  71.706  1.00  0.00    -0.455 C  
HETATM    3  C   UNL     1     -13.517  13.887  72.668  1.00  0.00    -0.652 C  
HETATM    4  C   UNL     1     -12.878  15.158  72.110  1.00  0.00    -0.344 C  
HETATM    5  N   UNL     1     -11.964  14.696  71.098  1.00  0.00    -0.337 N  
HETATM    6  C   UNL     1     -11.413  15.629  70.256  1.00  0.00    -0.349 C  
HETATM    7  O   UNL     1     -10.998  16.707  70.671  1.00  0.00    -0.174 OA 
HETATM    8  C   UNL     1     -11.245  15.151  68.801  1.00  0.00    -0.284 C  
HETATM    9  N   UNL     1     -12.152  13.979  68.321  1.00  0.00    -0.334 N  
HETATM   10  C   UNL     1     -10.296  12.848  64.508  1.00  0.00    -0.380 C  
HETATM   11  C   UNL     1     -11.964  13.368  67.093  1.00  0.00    -0.366 C  
HETATM   12  C   UNL     1      -9.794  14.961  65.520  1.00  0.00    -0.348 C  
HETATM   13  O   UNL     1     -12.824  13.273  66.222  1.00  0.00    -0.206 OA 
HETATM   14  C   UNL     1     -10.597  12.689  67.134  1.00  0.00    -0.236 C  
HETATM   15  C   UNL     1     -11.820  12.918  69.185  1.00  0.00    -0.303 C  
HETATM   16  O   UNL     1     -12.497  11.683  68.939  1.00  0.00    -0.266 OA 
HETATM   17  H   UNL     1     -12.101  11.352  68.142  1.00  0.00     0.000 HD 
HETATM   18  C   UNL     1      -9.793  13.461  65.868  1.00  0.00    -0.251 C  
HETATM   19  O   UNL     1     -10.484  12.795  68.676  1.00  0.00    -0.244 OA 
ENDROOT
BRANCH   8  20
HETATM   20  C   UNL     1     -11.226  16.332  67.893  1.00  0.00    -0.213 C  
HETATM   21  C   UNL     1      -8.994  17.251  68.559  1.00  0.00    -0.273 C  
HETATM   22  C   UNL     1      -9.919  16.889  67.401  1.00  0.00    -0.269 C  
HETATM   23  C   UNL     1     -10.317  18.143  66.617  1.00  0.00    -0.387 C  
ENDBRANCH   8  20
BRANCH  14  24
HETATM   24  N   UNL     1     -10.251  11.288  66.940  1.00  0.00    -0.212 N  
HETATM   25  H   UNL     1     -10.904  10.575  66.615  1.00  0.00     0.000 HD 
HETATM   26  O   UNL     1      -8.320  11.871  67.947  1.00  0.00    -0.136 OA 
HETATM   27  C   UNL     1      -8.926  11.044  67.253  1.00  0.00    -0.138 C  
BRANCH  27  28
HETATM   28  C   UNL     1      -8.229   9.776  66.773  1.00  0.00    -0.120 C  
HETATM   29  C   UNL     1      -6.707   9.611  66.989  1.00  0.00    -0.075 C  
HETATM   30  N   UNL     1      -6.434   8.140  67.177  1.00  0.00    -0.056 NA 
HETATM   31  C   UNL     1      -6.849   7.721  68.575  1.00  0.00    -0.066 C  
HETATM   32  C   UNL     1      -5.141   7.762  66.669  1.00  0.00    -0.024 C  
HETATM   33  C   UNL     1      -7.073   6.158  68.910  1.00  0.00    -0.081 C  
HETATM   34  C   UNL     1      -8.432   5.852  69.551  1.00  0.00    -0.114 A  
HETATM   35  C   UNL     1      -9.252   4.755  69.685  1.00  0.00    -0.122 A  
HETATM   36 BR   UNL     1      -8.866   3.016  69.134  1.00  0.00    -0.172 Br 
HETATM   37  N   UNL     1     -10.466   5.149  70.203  1.00  0.00    -0.275 NA 
HETATM   38  C   UNL     1     -10.483   6.510  70.419  1.00  0.00    -0.212 A  
HETATM   39  H   UNL     1     -11.245   4.520  70.399  1.00  0.00     0.000 HD 
HETATM   40  C   UNL     1     -11.496   7.435  70.725  1.00  0.00    -0.313 A  
HETATM   41  C   UNL     1     -11.141   8.799  70.784  1.00  0.00    -0.306 A  
HETATM   42  C   UNL     1      -9.860   9.224  70.461  1.00  0.00    -0.310 A  
HETATM   43  C   UNL     1      -8.965   8.275  69.975  1.00  0.00    -0.142 A  
HETATM   44  C   UNL     1      -9.207   6.913  70.089  1.00  0.00    -0.155 A  
HETATM   45  C   UNL     1      -8.139   8.506  68.806  1.00  0.00    -0.120 C  
HETATM   46  C   UNL     1      -8.877   8.765  67.693  1.00  0.00    -0.138 C  
ENDBRANCH  27  28
ENDBRANCH  14  24
TORSDOF 3
ENDMDL
MODEL        4
REMARK 921   NORMALIZED FREE ENERGY PREDICTED BY IDOCK:   -8.18 KCAL/MOL
REMARK 922        TOTAL FREE ENERGY PREDICTED BY IDOCK:   -9.15 KCAL/MOL
REMARK 923 INTER-LIGAND FREE ENERGY PREDICTED BY IDOCK:   -8.96 KCAL/MOL
REMARK 924 INTRA-LIGAND FREE ENERGY PREDICTED BY IDOCK:   -0.19 KCAL/MOL
REMARK 927      BINDING AFFINITY PREDICTED BY RF-SCORE:    0.00 PKD
ROOT
HETATM    1  C   UNL     1     -12.388  13.071  70.363  1.00  0.00    -0.277 C  
HETATM    2  C   UNL     1     -13.283  12.958  71.595  1.00  0.00    -0.416 C  
HETATM    3  C   UNL     1     -13.714  14.433  71.852  1.00  0.00    -0.518 C  
HETATM    4  C   UNL     1     -12.844  15.299  70.942  1.00  0.00    -0.449 C  
HETATM    5  N   UNL     1     -11.832  14.404  70.443  1.00  0.00    -0.302 N  
HETATM    6  C   UNL     1     -11.040  14.843  69.411  1.00  0.00    -0.280 C  
HETATM    7  O   UNL     1     -10.578  15.980  69.391  1.00  0.00    -0.232 OA 
HETATM    8  C   UNL     1     -10.686  13.758  68.377  1.00  0.00    -0.254 C  
HETATM    9  N   UNL     1     -11.630  12.522  68.279  1.00  0.00    -0.307 N  
HETATM   10  C   UNL     1      -9.299   9.745  65.806  1.00  0.00    -0.278 C  
HETATM   11  C   UNL     1     -11.308  11.420  67.505  1.00  0.00    -0.292 C  
HETATM   12  C   UNL     1      -8.731  12.071  65.878  1.00  0.00     0.200 C  
HETATM   13  O   UNL     1     -12.014  10.969  66.607  1.00  0.00     0.140 OA 
HETATM   14  C   UNL     1     -10.059  10.791  68.117  1.00  0.00    -0.164 C  
HETATM   15  C   UNL     1     -11.576  11.953  69.566  1.00  0.00    -0.327 C  
HETATM   16  O   UNL     1     -12.342  10.760  69.748  1.00  0.00    -0.419 OA 
HETATM   17  H   UNL     1     -11.859  10.094  69.274  1.00  0.00     0.000 HD 
HETATM   18  C   UNL     1      -8.966  10.888  66.835  1.00  0.00    -0.158 C  
HETATM   19  O   UNL     1     -10.197  11.574  69.446  1.00  0.00    -0.014 OA 
ENDROOT
BRANCH   8  20
HETATM   20  C   UNL     1     -10.374  14.404  67.071  1.00  0.00    -0.263 C  
HETATM   21  C   UNL     1     -12.651  14.236  66.044  1.00  0.00    -0.335 C  
HETATM   22  C   UNL     1     -11.446  15.134  66.311  1.00  0.00    -0.153 C  
HETATM   23  C   UNL     1     -10.769  15.532  64.996  1.00  0.00    -0.463 C  
ENDBRANCH   8  20
BRANCH  14  24
HETATM   24  N   UNL     1      -9.852   9.443  68.626  1.00  0.00    -0.159 N  
HETATM   25  H   UNL     1     -10.564   8.712  68.620  1.00  0.00     0.000 HD 
HETATM   26  O   UNL     1      -7.907  10.286  69.393  1.00  0.00    -0.129 OA 
HETATM   27  C   UNL     1      -8.570   9.276  69.119  1.00  0.00    -0.134 C  
BRANCH  27  28
HETATM   28  C   UNL     1      -7.992   7.884  69.342  1.00  0.00    -0.117 C  
HETATM   29  C   UNL     1      -6.685   7.719  70.151  1.00  0.00    -0.041 C  
HETATM   30  N   UNL     1      -6.757   6.392  70.862  1.00  0.00    -0.056 NA 
HETATM   31  C   UNL     1      -7.683   6.508  72.060  1.00  0.00    -0.098 C  
HETATM   32  C   UNL     1      -5.459   5.790  71.015  1.00  0.00    -0.013 C  
HETATM   33  C   UNL     1      -8.281   5.172  72.741  1.00  0.00    -0.109 C  
HETATM   34  C   UNL     1      -9.808   5.184  72.888  1.00  0.00    -0.181 A  
HETATM   35  C   UNL     1     -10.807   4.249  73.030  1.00  0.00    -0.183 A  
HETATM   36 BR   UNL     1     -10.578   2.408  73.216  1.00  0.00    -0.269 Br 
HETATM   37  N   UNL     1     -12.034   4.865  72.910  1.00  0.00    -0.211 NA 
HETATM   38  C   UNL     1     -11.878   6.215  72.682  1.00  0.00    -0.093 A  
HETATM   39  H   UNL     1     -12.932   4.388  72.980  1.00  0.00     0.000 HD 
HETATM   40  C   UNL     1     -12.752   7.244  72.292  1.00  0.00    -0.017 A  
HETATM   41  C   UNL     1     -12.200   8.522  72.064  1.00  0.00    -0.429 A  
HETATM   42  C   UNL     1     -10.831   8.736  72.132  1.00  0.00    -0.400 A  
HETATM   43  C   UNL     1     -10.009   7.630  72.328  1.00  0.00    -0.242 A  
HETATM   44  C   UNL     1     -10.515   6.408  72.749  1.00  0.00    -0.238 A  
HETATM   45  C   UNL     1      -8.814   7.394  71.542  1.00  0.00    -0.131 C  
HETATM   46  C   UNL     1      -9.079   7.293  70.212  1.00  0.00    -0.152 C  
ENDBRANCH  27  28
ENDBRANCH  14  24
TORSDOF 3
ENDMDL
MODEL        5
REMARK 921   NORMALIZED FREE ENERGY PREDICTED BY IDOCK:   -8.15 KCAL/MOL
REMARK 922        TOTAL FREE ENERGY PREDICTED BY IDOCK:   -9.11 KCAL/MOL
REMARK 923 INTER-LIGAND FREE ENERGY PREDICTED BY IDOCK:   -8.53 KCAL/MOL
REMARK 924 INTRA-LIGAND FREE ENERGY PREDICTED BY IDOCK:   -0.59 KCAL/MOL
REMARK 927      BINDING AFFINITY PREDICTED BY RF-SCORE:    0.00 PKD
ROOT
HETATM    1  C   UNL     1      -9.464   4.762  66.814  1.00  0.00    -0.155 C  
HETATM    2  C   UNL     1      -9.811   3.935  65.579  1.00  0.00    -0.156 C  
HETATM    3  C   UNL     1      -8.994   2.626  65.791  1.00  0.00    -0.133 C  
HETATM    4  C   UNL     1      -8.050   2.895  66.962  1.00  0.00    -0.079 C  
HETATM    5  N   UNL     1      -8.139   4.315  67.186  1.00  0.00    -0.100 N  
HETATM    6  C   UNL     1      -7.579   4.821  68.332  1.00  0.00    -0.077 C  
HETATM    7  O   UNL     1      -6.480   4.447  68.731  1.00  0.00    -0.035 OA 
HETATM    8  C   UNL     1      -8.377   5.969  68.977  1.00  0.00    -0.111 C  
HETATM    9  N   UNL     1      -9.895   6.066  68.639  1.00  0.00    -0.132 N  
HETATM   10  C   UNL     1     -10.953  10.039  70.178  1.00  0.00    -0.368 C  
HETATM   11  C   UNL     1     -10.660   7.152  69.031  1.00  0.00    -0.210 C  
HETATM   12  C   UNL     1      -8.925   8.970  70.875  1.00  0.00    -0.300 C  
HETATM   13  O   UNL     1     -11.679   7.077  69.711  1.00  0.00    -0.134 OA 
HETATM   14  C   UNL     1     -10.114   8.374  68.297  1.00  0.00    -0.199 C  
HETATM   15  C   UNL     1      -9.921   6.229  67.241  1.00  0.00    -0.146 C  
HETATM   16  O   UNL     1     -11.218   6.380  66.659  1.00  0.00    -0.707 OA 
HETATM   17  H   UNL     1     -11.490   7.254  66.913  1.00  0.00     0.000 HD 
HETATM   18  C   UNL     1      -9.659   9.369  69.582  1.00  0.00    -0.199 C  
HETATM   19  O   UNL     1      -9.306   7.525  67.284  1.00  0.00    -0.133 OA 
ENDROOT
BRANCH   8  20
HETATM   20  C   UNL     1      -8.061   6.035  70.431  1.00  0.00    -0.111 C  
HETATM   21  C   UNL     1      -9.810   4.437  71.243  1.00  0.00    -0.260 C  
HETATM   22  C   UNL     1      -8.345   4.858  71.323  1.00  0.00    -0.115 C  
HETATM   23  C   UNL     1      -8.004   5.361  72.729  1.00  0.00    -0.102 C  
ENDBRANCH   8  20
BRANCH  14  24
HETATM   24  N   UNL     1     -10.790   9.292  67.391  1.00  0.00    -0.412 N  
HETATM   25  H   UNL     1     -11.802   9.340  67.272  1.00  0.00     0.000 HD 
HETATM   26  O   UNL     1      -8.703   9.736  66.664  1.00  0.00    -0.130 OA 
HETATM   27  C   UNL     1      -9.889  10.091  66.710  1.00  0.00    -0.198 C  
BRANCH  27  28
HETATM   28  C   UNL     1     -10.345  11.368  66.015  1.00  0.00    -0.297 C  
HETATM   29  C   UNL     1     -11.640  12.072  66.483  1.00  0.00    -0.314 C  
HETATM   30  N   UNL     1     -11.458  13.551  66.255  1.00  0.00    -0.316 NA 
HETATM   31  C   UNL     1     -10.557  14.124  67.333  1.00  0.00    -0.279 C  
HETATM   32  C   UNL     1     -12.701  14.205  65.938  1.00  0.00    -0.354 C  
HETATM   33  C   UNL     1      -9.850  15.558  67.108  1.00  0.00    -0.236 C  
HETATM   34  C   UNL     1      -8.332  15.539  67.322  1.00  0.00    -0.218 A  
HETATM   35  C   UNL     1      -7.256  16.303  66.931  1.00  0.00    -0.222 A  
HETATM   36 BR   UNL     1      -7.326  17.892  65.958  1.00  0.00    -0.260 Br 
HETATM   37  N   UNL     1      -6.086  15.663  67.279  1.00  0.00    -0.329 NA 
HETATM   38  C   UNL     1      -6.357  14.463  67.901  1.00  0.00    -0.162 A  
HETATM   39  H   UNL     1      -5.150  16.026  67.101  1.00  0.00     0.000 HD 
HETATM   40  C   UNL     1      -5.572  13.354  68.261  1.00  0.00    -0.098 A  
HETATM   41  C   UNL     1      -6.232  12.237  68.816  1.00  0.00    -0.072 A  
HETATM   42  C   UNL     1      -7.615  12.196  68.918  1.00  0.00     0.003 A  
HETATM   43  C   UNL     1      -8.339  13.246  68.360  1.00  0.00    -0.131 A  
HETATM   44  C   UNL     1      -7.732  14.438  67.989  1.00  0.00    -0.140 A  
HETATM   45  C   UNL     1      -9.502  13.034  67.522  1.00  0.00    -0.198 C  
HETATM   46  C   UNL     1      -9.218  12.294  66.417  1.00  0.00    -0.203 C  
ENDBRANCH  27  28
ENDBRANCH  14  24
TORSDOF 3
ENDMDL
MODEL        6
REMARK 921   NORMALIZED FREE ENERGY PREDICTED BY IDOCK:   -7.99 KCAL/MOL
REMARK 922        TOTAL FREE ENERGY PREDICTED BY IDOCK:   -8.92 KCAL/MOL
REMARK 923 INTER-LIGAND FREE ENERGY PREDICTED BY IDOCK:   -9.03 KCAL/MOL
REMARK 924 INTRA-LIGAND FREE ENERGY PREDICTED BY IDOCK:    0.11 KCAL/MOL
REMARK 927      BINDING AFFINITY PREDICTED BY RF-SCORE:    0.00 PKD
ROOT
HETATM    1  C   UNL     1      -9.610   5.241  67.990  1.00  0.00    -0.132 C  
HETATM    2  C   UNL     1      -9.720   4.835  66.523  1.00  0.00    -0.206 C  
HETATM    3  C   UNL     1      -8.650   3.710  66.388  1.00  0.00    -0.115 C  
HETATM    4  C   UNL     1      -7.836   3.737  67.681  1.00  0.00    -0.081 C  
HETATM    5  N   UNL     1      -8.237   4.951  68.342  1.00  0.00    -0.085 N  
HETATM    6  C   UNL     1      -7.846   5.132  69.645  1.00  0.00    -0.072 C  
HETATM    7  O   UNL     1      -6.711   4.858  70.022  1.00  0.00    -0.035 OA 
HETATM    8  C   UNL     1      -8.899   5.820  70.535  1.00  0.00    -0.139 C  
HETATM    9  N   UNL     1     -10.387   5.739  70.080  1.00  0.00    -0.233 N  
HETATM   10  C   UNL     1     -12.336   8.675  72.697  1.00  0.00    -0.282 C  
HETATM   11  C   UNL     1     -11.383   6.462  70.715  1.00  0.00    -0.350 C  
HETATM   12  C   UNL     1     -10.157   7.835  73.231  1.00  0.00    -0.374 C  
HETATM   13  O   UNL     1     -12.390   5.970  71.216  1.00  0.00     0.184 OA 
HETATM   14  C   UNL     1     -11.081   7.941  70.483  1.00  0.00    -0.256 C  
HETATM   15  C   UNL     1     -10.389   6.361  68.816  1.00  0.00    -0.198 C  
HETATM   16  O   UNL     1     -11.662   6.455  68.174  1.00  0.00    -0.469 OA 
HETATM   17  H   UNL     1     -12.126   7.123  68.666  1.00  0.00     0.000 HD 
HETATM   18  C   UNL     1     -10.905   8.505  72.064  1.00  0.00    -0.405 C  
HETATM   19  O   UNL     1     -10.068   7.655  69.347  1.00  0.00    -0.186 OA 
ENDROOT
BRANCH   8  20
HETATM   20  C   UNL     1      -8.665   5.444  71.957  1.00  0.00    -0.131 C  
HETATM   21  C   UNL     1      -9.808   3.216  71.924  1.00  0.00    -0.238 C  
HETATM   22  C   UNL     1      -8.569   3.996  72.353  1.00  0.00    -0.109 C  
HETATM   23  C   UNL     1      -8.456   4.032  73.880  1.00  0.00    -0.091 C  
ENDBRANCH   8  20
BRANCH  14  24
HETATM   24  N   UNL     1     -11.900   8.968  69.855  1.00  0.00    -0.306 N  
HETATM   25  H   UNL     1     -12.799   8.791  69.408  1.00  0.00     0.000 HD 
HETATM   26  O   UNL     1     -10.094  10.275  70.187  1.00  0.00    -0.208 OA 
HETATM   27  C   UNL     1     -11.305  10.214  69.940  1.00  0.00    -0.275 C  
BRANCH  27  28
HETATM   28  C   UNL     1     -12.117  11.485  69.715  1.00  0.00    -0.374 C  
HETATM   29  C   UNL     1     -11.791  12.755  70.535  1.00  0.00    -0.055 C  
HETATM   30  N   UNL     1     -12.106  13.946  69.666  1.00  0.00    -0.340 NA 
HETATM   31  C   UNL     1     -11.008  14.127  68.634  1.00  0.00    -0.258 C  
HETATM   32  C   UNL     1     -12.554  15.075  70.440  1.00  0.00    -0.350 C  
HETATM   33  C   UNL     1     -11.281  15.033  67.325  1.00  0.00    -0.339 C  
HETATM   34  C   UNL     1     -10.959  14.322  66.005  1.00  0.00    -0.312 A  
HETATM   35  C   UNL     1     -11.323  14.451  64.684  1.00  0.00    -0.371 A  
HETATM   36 BR   UNL     1     -12.405  15.787  63.963  1.00  0.00     0.779 Br 
HETATM   37  N   UNL     1     -10.850  13.372  63.969  1.00  0.00    -0.553 NA 
HETATM   38  C   UNL     1     -10.168  12.504  64.795  1.00  0.00    -0.280 A  
HETATM   39  H   UNL     1     -10.986  13.235  62.968  1.00  0.00     0.000 HD 
HETATM   40  C   UNL     1      -9.679  11.196  64.641  1.00  0.00    -0.308 A  
HETATM   41  C   UNL     1      -9.097  10.578  65.768  1.00  0.00    -0.204 A  
HETATM   42  C   UNL     1      -9.091  11.201  67.007  1.00  0.00    -0.158 A  
HETATM   43  C   UNL     1      -9.769  12.410  67.130  1.00  0.00    -0.207 A  
HETATM   44  C   UNL     1     -10.177  13.137  66.019  1.00  0.00    -0.287 A  
HETATM   45  C   UNL     1     -10.672  12.693  68.229  1.00  0.00    -0.248 C  
HETATM   46  C   UNL     1     -11.700  11.806  68.297  1.00  0.00    -0.377 C  
ENDBRANCH  27  28
ENDBRANCH  14  24
TORSDOF 3
ENDMDL
MODEL        7
REMARK 921   NORMALIZED FREE ENERGY PREDICTED BY IDOCK:   -7.93 KCAL/MOL
REMARK 922        TOTAL FREE ENERGY PREDICTED BY IDOCK:   -8.86 KCAL/MOL
REMARK 923 INTER-LIGAND FREE ENERGY PREDICTED BY IDOCK:   -9.65 KCAL/MOL
REMARK 924 INTRA-LIGAND FREE ENERGY PREDICTED BY IDOCK:    0.79 KCAL/MOL
REMARK 927      BINDING AFFINITY PREDICTED BY RF-SCORE:    0.00 PKD
ROOT
HETATM    1  C   UNL     1     -12.528  13.349  70.507  1.00  0.00    -0.279 C  
HETATM    2  C   UNL     1     -13.354  12.941  71.724  1.00  0.00    -0.451 C  
HETATM    3  C   UNL     1     -13.744  14.309  72.359  1.00  0.00    -0.616 C  
HETATM    4  C   UNL     1     -12.911  15.369  71.639  1.00  0.00    -0.436 C  
HETATM    5  N   UNL     1     -11.945  14.620  70.878  1.00  0.00    -0.309 N  
HETATM    6  C   UNL     1     -11.203  15.295  69.941  1.00  0.00    -0.288 C  
HETATM    7  O   UNL     1     -10.723  16.401  70.173  1.00  0.00    -0.299 OA 
HETATM    8  C   UNL     1     -10.926  14.496  68.654  1.00  0.00    -0.251 C  
HETATM    9  N   UNL     1     -11.896  13.325  68.312  1.00  0.00    -0.351 N  
HETATM   10  C   UNL     1      -9.756  11.230  65.103  1.00  0.00    -0.285 C  
HETATM   11  C   UNL     1     -11.638  12.445  67.275  1.00  0.00    -0.365 C  
HETATM   12  C   UNL     1      -9.143  13.466  65.709  1.00  0.00     0.462 C  
HETATM   13  O   UNL     1     -12.400  12.231  66.337  1.00  0.00    -0.531 OA 
HETATM   14  C   UNL     1     -10.368  11.681  67.640  1.00  0.00    -0.189 C  
HETATM   15  C   UNL     1     -11.782  12.458  69.415  1.00  0.00    -0.322 C  
HETATM   16  O   UNL     1     -12.557  11.259  69.345  1.00  0.00    -0.239 OA 
HETATM   17  H   UNL     1     -12.113  10.728  68.694  1.00  0.00     0.000 HD 
HETATM   18  C   UNL     1      -9.346  12.085  66.360  1.00  0.00    -0.232 C  
HETATM   19  O   UNL     1     -10.418  12.115  69.126  1.00  0.00    -0.098 OA 
ENDROOT
BRANCH   8  20
HETATM   20  C   UNL     1     -10.675  15.440  67.530  1.00  0.00    -0.295 C  
HETATM   21  C   UNL     1      -8.396  16.212  68.222  1.00  0.00    -0.171 C  
HETATM   22  C   UNL     1      -9.270  15.720  67.073  1.00  0.00    -0.233 C  
HETATM   23  C   UNL     1      -9.431  16.812  66.011  1.00  0.00    -0.257 C  
ENDBRANCH   8  20
BRANCH  14  24
HETATM   24  N   UNL     1     -10.157  10.248  67.792  1.00  0.00    -0.172 N  
HETATM   25  H   UNL     1     -10.834   9.536  67.516  1.00  0.00     0.000 HD 
HETATM   26  O   UNL     1      -8.334  10.879  68.957  1.00  0.00    -0.152 OA 
HETATM   27  C   UNL     1      -8.925   9.972  68.357  1.00  0.00    -0.121 C  
BRANCH  27  28
HETATM   28  C   UNL     1      -8.315   8.578  68.261  1.00  0.00    -0.124 C  
HETATM   29  C   UNL     1      -6.835   8.363  68.654  1.00  0.00    -0.063 C  
HETATM   30  N   UNL     1      -6.714   6.968  69.212  1.00  0.00    -0.048 NA 
HETATM   31  C   UNL     1      -7.270   6.935  70.624  1.00  0.00    -0.069 C  
HETATM   32  C   UNL     1      -5.427   6.385  68.935  1.00  0.00    -0.015 C  
HETATM   33  C   UNL     1      -7.663   5.522  71.298  1.00  0.00    -0.108 C  
HETATM   34  C   UNL     1      -9.089   5.481  71.861  1.00  0.00    -0.149 A  
HETATM   35  C   UNL     1     -10.015   4.511  72.173  1.00  0.00    -0.183 A  
HETATM   36 BR   UNL     1      -9.752   2.668  72.092  1.00  0.00    -0.225 Br 
HETATM   37  N   UNL     1     -11.223   5.107  72.464  1.00  0.00    -0.201 NA 
HETATM   38  C   UNL     1     -11.130   6.476  72.347  1.00  0.00    -0.259 A  
HETATM   39  H   UNL     1     -12.069   4.603  72.729  1.00  0.00     0.000 HD 
HETATM   40  C   UNL     1     -12.073   7.518  72.326  1.00  0.00    -0.269 A  
HETATM   41  C   UNL     1     -11.598   8.826  72.092  1.00  0.00    -0.434 A  
HETATM   42  C   UNL     1     -10.263   9.066  71.801  1.00  0.00    -0.389 A  
HETATM   43  C   UNL     1      -9.425   7.966  71.643  1.00  0.00    -0.194 A  
HETATM   44  C   UNL     1      -9.801   6.694  72.055  1.00  0.00    -0.166 A  
HETATM   45  C   UNL     1      -8.496   7.843  70.537  1.00  0.00    -0.126 C  
HETATM   46  C   UNL     1      -9.121   7.873  69.330  1.00  0.00    -0.148 C  
ENDBRANCH  27  28
ENDBRANCH  14  24
TORSDOF 3
ENDMDL
MODEL        8
REMARK 921   NORMALIZED FREE ENERGY PREDICTED BY IDOCK:   -7.55 KCAL/MOL
REMARK 922        TOTAL FREE ENERGY PREDICTED BY IDOCK:   -8.41 KCAL/MOL
REMARK 923 INTER-LIGAND FREE ENERGY PREDICTED BY IDOCK:   -8.32 KCAL/MOL
REMARK 924 INTRA-LIGAND FREE ENERGY PREDICTED BY IDOCK:   -0.09 KCAL/MOL
REMARK 927      BINDING AFFINITY PREDICTED BY RF-SCORE:    0.00 PKD
ROOT
HETATM    1  C   UNL     1     -10.907   7.229  71.373  1.00  0.00    -0.230 C  
HETATM    2  C   UNL     1     -12.362   7.648  71.570  1.00  0.00    -0.356 C  
HETATM    3  C   UNL     1     -12.942   6.503  72.452  1.00  0.00     0.225 C  
HETATM    4  C   UNL     1     -11.884   5.400  72.472  1.00  0.00    -0.038 C  
HETATM    5  N   UNL     1     -10.934   5.785  71.461  1.00  0.00    -0.259 N  
HETATM    6  C   UNL     1      -9.742   5.107  71.409  1.00  0.00    -0.168 C  
HETATM    7  O   UNL     1      -9.688   3.887  71.528  1.00  0.00    -0.159 OA 
HETATM    8  C   UNL     1      -8.525   5.986  71.061  1.00  0.00    -0.124 C  
HETATM    9  N   UNL     1      -8.641   7.515  71.338  1.00  0.00    -0.119 N  
HETATM   10  C   UNL     1      -5.151   9.126  69.219  1.00  0.00    -0.036 C  
HETATM   11  C   UNL     1      -7.675   8.408  70.907  1.00  0.00    -0.088 C  
HETATM   12  C   UNL     1      -5.287   6.788  69.726  1.00  0.00    -0.015 C  
HETATM   13  O   UNL     1      -7.061   9.179  71.640  1.00  0.00    -0.286 OA 
HETATM   14  C   UNL     1      -7.687   8.381  69.380  1.00  0.00    -0.097 C  
HETATM   15  C   UNL     1      -9.732   7.921  70.545  1.00  0.00    -0.174 C  
HETATM   16  O   UNL     1     -10.043   9.316  70.586  1.00  0.00    -0.233 OA 
HETATM   17  H   UNL     1      -9.343   9.728  70.093  1.00  0.00     0.000 HD 
HETATM   18  C   UNL     1      -6.109   7.891  69.035  1.00  0.00    -0.039 C  
HETATM   19  O   UNL     1      -9.055   7.658  69.308  1.00  0.00    -0.146 OA 
ENDROOT
BRANCH   8  20
HETATM   20  C   UNL     1      -7.289   5.352  71.595  1.00  0.00    -0.089 C  
HETATM   21  C   UNL     1      -7.436   6.218  73.940  1.00  0.00    -0.086 C  
HETATM   22  C   UNL     1      -7.186   5.001  73.054  1.00  0.00    -0.086 C  
HETATM   23  C   UNL     1      -5.748   4.499  73.219  1.00  0.00    -0.009 C  
ENDBRANCH   8  20
BRANCH  14  24
HETATM   24  N   UNL     1      -7.911   9.465  68.434  1.00  0.00    -0.094 N  
HETATM   25  H   UNL     1      -7.885  10.455  68.679  1.00  0.00     0.000 HD 
HETATM   26  O   UNL     1      -8.507   7.802  67.034  1.00  0.00    -0.121 OA 
HETATM   27  C   UNL     1      -8.164   8.985  67.162  1.00  0.00    -0.110 C  
BRANCH  27  28
HETATM   28  C   UNL     1      -8.045   9.895  65.945  1.00  0.00    -0.121 C  
HETATM   29  C   UNL     1      -8.547   9.400  64.569  1.00  0.00    -0.198 C  
HETATM   30  N   UNL     1      -9.038  10.605  63.807  1.00  0.00    -0.212 NA 
HETATM   31  C   UNL     1     -10.395  11.025  64.340  1.00  0.00    -0.358 C  
HETATM   32  C   UNL     1      -8.838  10.464  62.388  1.00  0.00    -0.250 C  
HETATM   33  C   UNL     1     -10.958  12.505  64.022  1.00  0.00    -0.443 C  
HETATM   34  C   UNL     1     -11.397  13.280  65.270  1.00  0.00    -0.317 A  
HETATM   35  C   UNL     1     -11.579  14.599  65.617  1.00  0.00    -0.328 A  
HETATM   36 BR   UNL     1     -11.421  16.070  64.482  1.00  0.00    -0.109 Br 
HETATM   37  N   UNL     1     -11.800  14.692  66.974  1.00  0.00    -0.374 NA 
HETATM   38  C   UNL     1     -11.765  13.444  67.557  1.00  0.00    -0.366 A  
HETATM   39  H   UNL     1     -11.966  15.563  67.477  1.00  0.00     0.000 HD 
HETATM   40  C   UNL     1     -11.722  12.992  68.887  1.00  0.00    -0.371 A  
HETATM   41  C   UNL     1     -11.598  11.603  69.103  1.00  0.00    -0.378 A  
HETATM   42  C   UNL     1     -11.433  10.722  68.044  1.00  0.00    -0.333 A  
HETATM   43  C   UNL     1     -11.286  11.260  66.769  1.00  0.00    -0.265 A  
HETATM   44  C   UNL     1     -11.596  12.585  66.493  1.00  0.00    -0.447 A  
HETATM   45  C   UNL     1     -10.255  10.821  65.848  1.00  0.00    -0.319 C  
HETATM   46  C   UNL     1      -9.004  10.991  66.351  1.00  0.00    -0.190 C  
ENDBRANCH  27  28
ENDBRANCH  14  24
TORSDOF 3
ENDMDL
MODEL        9
REMARK 921   NORMALIZED FREE ENERGY PREDICTED BY IDOCK:   -7.44 KCAL/MOL
REMARK 922        TOTAL FREE ENERGY PREDICTED BY IDOCK:   -8.28 KCAL/MOL
REMARK 923 INTER-LIGAND FREE ENERGY PREDICTED BY IDOCK:   -8.23 KCAL/MOL
REMARK 924 INTRA-LIGAND FREE ENERGY PREDICTED BY IDOCK:   -0.05 KCAL/MOL
REMARK 927      BINDING AFFINITY PREDICTED BY RF-SCORE:    0.00 PKD
ROOT
HETATM    1  C   UNL     1      -7.373  14.387  68.977  1.00  0.00    -0.127 C  
HETATM    2  C   UNL     1      -6.477  13.978  70.143  1.00  0.00    -0.055 C  
HETATM    3  C   UNL     1      -5.663  15.275  70.433  1.00  0.00    -0.132 C  
HETATM    4  C   UNL     1      -5.945  16.226  69.271  1.00  0.00    -0.146 C  
HETATM    5  N   UNL     1      -6.623  15.417  68.291  1.00  0.00    -0.113 N  
HETATM    6  C   UNL     1      -7.214  16.056  67.229  1.00  0.00    -0.206 C  
HETATM    7  O   UNL     1      -6.654  16.973  66.636  1.00  0.00    -0.205 OA 
HETATM    8  C   UNL     1      -8.552  15.439  66.781  1.00  0.00    -0.273 C  
HETATM    9  N   UNL     1      -9.335  14.586  67.824  1.00  0.00    -0.195 N  
HETATM   10  C   UNL     1     -12.383  12.627  65.347  1.00  0.00    -0.499 C  
HETATM   11  C   UNL     1     -10.456  13.854  67.472  1.00  0.00    -0.248 C  
HETATM   12  C   UNL     1     -11.197  14.539  64.522  1.00  0.00    -0.302 C  
HETATM   13  O   UNL     1     -11.560  13.973  67.997  1.00  0.00    -0.298 OA 
HETATM   14  C   UNL     1     -10.000  12.777  66.491  1.00  0.00    -0.253 C  
HETATM   15  C   UNL     1      -8.444  13.545  68.148  1.00  0.00    -0.172 C  
HETATM   16  O   UNL     1      -8.933  12.578  69.080  1.00  0.00    -0.346 OA 
HETATM   17  H   UNL     1      -9.572  12.076  68.586  1.00  0.00     0.000 HD 
HETATM   18  C   UNL     1     -10.915  13.150  65.124  1.00  0.00    -0.317 C  
HETATM   19  O   UNL     1      -8.501  12.960  66.839  1.00  0.00    -0.174 OA 
ENDROOT
BRANCH   8  20
HETATM   20  C   UNL     1      -9.368  16.476  66.091  1.00  0.00    -0.339 C  
HETATM   21  C   UNL     1     -10.460  17.467  68.115  1.00  0.00    -0.389 C  
HETATM   22  C   UNL     1      -9.735  17.749  66.803  1.00  0.00    -0.309 C  
HETATM   23  C   UNL     1     -10.660  18.475  65.821  1.00  0.00    -0.265 C  
ENDBRANCH   8  20
BRANCH  14  24
HETATM   24  N   UNL     1     -10.116  11.329  66.583  1.00  0.00    -0.208 N  
HETATM   25  H   UNL     1     -10.784  10.844  67.182  1.00  0.00     0.000 HD 
HETATM   26  O   UNL     1      -8.237  11.336  65.337  1.00  0.00     0.062 OA 
HETATM   27  C   UNL     1      -9.209  10.692  65.755  1.00  0.00    -0.189 C  
BRANCH  27  28
HETATM   28  C   UNL     1      -9.387   9.226  65.379  1.00  0.00    -0.292 C  
HETATM   29  C   UNL     1      -8.328   8.529  64.495  1.00  0.00    -0.128 C  
HETATM   30  N   UNL     1      -8.280   7.079  64.904  1.00  0.00    -0.112 NA 
HETATM   31  C   UNL     1      -7.522   6.944  66.212  1.00  0.00    -0.077 C  
HETATM   32  C   UNL     1      -7.959   6.216  63.797  1.00  0.00    -0.101 C  
HETATM   33  C   UNL     1      -7.680   5.601  67.094  1.00  0.00    -0.101 C  
HETATM   34  C   UNL     1      -8.060   5.864  68.556  1.00  0.00    -0.106 A  
HETATM   35  C   UNL     1      -8.650   5.158  69.580  1.00  0.00    -0.092 A  
HETATM   36 BR   UNL     1      -9.156   3.365  69.534  1.00  0.00    -0.219 Br 
HETATM   37  N   UNL     1      -8.913   6.008  70.632  1.00  0.00    -0.145 NA 
HETATM   38  C   UNL     1      -8.511   7.291  70.332  1.00  0.00    -0.139 A  
HETATM   39  H   UNL     1      -9.345   5.725  71.512  1.00  0.00     0.000 HD 
HETATM   40  C   UNL     1      -8.721   8.543  70.935  1.00  0.00    -0.196 A  
HETATM   41  C   UNL     1      -8.216   9.682  70.272  1.00  0.00    -0.217 A  
HETATM   42  C   UNL     1      -7.614   9.581  69.026  1.00  0.00    -0.075 A  
HETATM   43  C   UNL     1      -7.619   8.338  68.401  1.00  0.00    -0.101 A  
HETATM   44  C   UNL     1      -7.922   7.172  69.092  1.00  0.00    -0.119 A  
HETATM   45  C   UNL     1      -7.984   8.163  67.009  1.00  0.00    -0.104 C  
HETATM   46  C   UNL     1      -9.246   8.594  66.746  1.00  0.00    -0.211 C  
ENDBRANCH  27  28
ENDBRANCH  14  24
TORSDOF 3
ENDMDL
MODEL       10
REMARK 921   NORMALIZED FREE ENERGY PREDICTED BY IDOCK:   -7.40 KCAL/MOL
REMARK 922        TOTAL FREE ENERGY PREDICTED BY IDOCK:   -8.23 KCAL/MOL
REMARK 923 INTER-LIGAND FREE ENERGY PREDICTED BY IDOCK:   -7.89 KCAL/MOL
REMARK 924 INTRA-LIGAND FREE ENERGY PREDICTED BY IDOCK:   -0.33 KCAL/MOL
REMARK 927      BINDING AFFINITY PREDICTED BY RF-SCORE:    0.00 PKD
ROOT
HETATM    1  C   UNL     1      -7.292   6.569  68.639  1.00  0.00    -0.087 C  
HETATM    2  C   UNL     1      -6.373   6.867  67.457  1.00  0.00    -0.045 C  
HETATM    3  C   UNL     1      -5.127   5.977  67.747  1.00  0.00    -0.004 C  
HETATM    4  C   UNL     1      -5.297   5.453  69.172  1.00  0.00     0.000 C  
HETATM    5  N   UNL     1      -6.392   6.216  69.715  1.00  0.00    -0.033 N  
HETATM    6  C   UNL     1      -6.931   5.805  70.908  1.00  0.00    -0.066 C  
HETATM    7  O   UNL     1      -6.226   5.444  71.845  1.00  0.00    -0.032 OA 
HETATM    8  C   UNL     1      -8.461   5.965  71.002  1.00  0.00    -0.124 C  
HETATM    9  N   UNL     1      -9.260   6.029  69.666  1.00  0.00    -0.137 N  
HETATM   10  C   UNL     1     -13.223   7.366  70.998  1.00  0.00    -0.161 C  
HETATM   11  C   UNL     1     -10.609   6.339  69.638  1.00  0.00    -0.264 C  
HETATM   12  C   UNL     1     -11.651   6.478  72.573  1.00  0.00    -0.243 C  
HETATM   13  O   UNL     1     -11.477   5.626  69.143  1.00  0.00     0.159 OA 
HETATM   14  C   UNL     1     -10.751   7.774  70.139  1.00  0.00    -0.240 C  
HETATM   15  C   UNL     1      -8.728   7.155  69.008  1.00  0.00    -0.132 C  
HETATM   16  O   UNL     1      -9.319   7.471  67.744  1.00  0.00    -0.140 OA 
HETATM   17  H   UNL     1     -10.174   7.820  67.964  1.00  0.00     0.000 HD 
HETATM   18  C   UNL     1     -11.741   7.568  71.490  1.00  0.00    -0.309 C  
HETATM   19  O   UNL     1      -9.242   8.082  69.975  1.00  0.00    -0.154 OA 
ENDROOT
BRANCH   8  20
HETATM   20  C   UNL     1      -8.997   4.997  71.998  1.00  0.00    -0.145 C  
HETATM   21  C   UNL     1      -9.434   3.090  70.436  1.00  0.00    -0.218 C  
HETATM   22  C   UNL     1      -8.845   3.517  71.777  1.00  0.00    -0.135 C  
HETATM   23  C   UNL     1      -9.623   2.883  72.934  1.00  0.00    -0.155 C  
ENDBRANCH   8  20
BRANCH  14  24
HETATM   24  N   UNL     1     -11.330   8.934  69.478  1.00  0.00    -0.423 N  
HETATM   25  H   UNL     1     -11.703   8.927  68.528  1.00  0.00     0.000 HD 
HETATM   26  O   UNL     1     -10.554  10.050  71.276  1.00  0.00    -0.071 OA 
HETATM   27  C   UNL     1     -11.313  10.048  70.298  1.00  0.00    -0.308 C  
BRANCH  27  28
HETATM   28  C   UNL     1     -12.194  11.255  69.997  1.00  0.00    -0.389 C  
HETATM   29  C   UNL     1     -12.047  12.539  70.846  1.00  0.00    -0.041 C  
HETATM   30  N   UNL     1     -12.366  13.711  69.953  1.00  0.00    -0.289 NA 
HETATM   31  C   UNL     1     -11.190  13.983  69.032  1.00  0.00    -0.276 C  
HETATM   32  C   UNL     1     -12.972  14.795  70.680  1.00  0.00    -0.324 C  
HETATM   33  C   UNL     1     -11.403  14.877  67.704  1.00  0.00    -0.348 C  
HETATM   34  C   UNL     1     -10.901  14.204  66.420  1.00  0.00    -0.304 A  
HETATM   35  C   UNL     1     -11.144  14.316  65.070  1.00  0.00    -0.373 A  
HETATM   36 BR   UNL     1     -12.250  15.573  64.249  1.00  0.00     0.150 Br 
HETATM   37  N   UNL     1     -10.523  13.282  64.404  1.00  0.00    -0.463 NA 
HETATM   38  C   UNL     1      -9.861  12.462  65.291  1.00  0.00    -0.161 A  
HETATM   39  H   UNL     1     -10.550  13.144  63.394  1.00  0.00     0.000 HD 
HETATM   40  C   UNL     1      -9.260  11.196  65.184  1.00  0.00    -0.209 A  
HETATM   41  C   UNL     1      -8.745  10.614  66.362  1.00  0.00    -0.155 A  
HETATM   42  C   UNL     1      -8.906  11.225  67.596  1.00  0.00    -0.138 A  
HETATM   43  C   UNL     1      -9.684  12.378  67.654  1.00  0.00    -0.195 A  
HETATM   44  C   UNL     1     -10.036  13.081  66.510  1.00  0.00    -0.262 A  
HETATM   45  C   UNL     1     -10.708  12.582  68.660  1.00  0.00    -0.263 C  
HETATM   46  C   UNL     1     -11.667  11.619  68.626  1.00  0.00    -0.386 C  
ENDBRANCH  27  28
ENDBRANCH  14  24
TORSDOF 3
ENDMDL
MODEL       11
REMARK 921   NORMALIZED FREE ENERGY PREDICTED BY IDOCK:   -7.37 KCAL/MOL
REMARK 922        TOTAL FREE ENERGY PREDICTED BY IDOCK:   -8.19 KCAL/MOL
REMARK 923 INTER-LIGAND FREE ENERGY PREDICTED BY IDOCK:  -10.18 KCAL/MOL
REMARK 924 INTRA-LIGAND FREE ENERGY PREDICTED BY IDOCK:    1.98 KCAL/MOL
REMARK 927      BINDING AFFINITY PREDICTED BY RF-SCORE:    0.00 PKD
ROOT
HETATM    1  C   UNL     1     -12.218  13.019  70.435  1.00  0.00    -0.310 C  
HETATM    2  C   UNL     1     -12.673  14.235  71.239  1.00  0.00    -0.427 C  
HETATM    3  C   UNL     1     -13.289  13.599  72.521  1.00  0.00    -0.638 C  
HETATM    4  C   UNL     1     -13.388  12.098  72.249  1.00  0.00    -0.211 C  
HETATM    5  N   UNL     1     -13.118  11.962  70.841  1.00  0.00     0.017 N  
HETATM    6  C   UNL     1     -12.905  10.700  70.347  1.00  0.00    -0.207 C  
HETATM    7  O   UNL     1     -13.600   9.747  70.689  1.00  0.00    -0.152 OA 
HETATM    8  C   UNL     1     -11.826  10.620  69.250  1.00  0.00    -0.237 C  
HETATM    9  N   UNL     1     -10.765  11.759  69.202  1.00  0.00    -0.172 N  
HETATM   10  C   UNL     1      -8.830  11.086  65.321  1.00  0.00    -0.139 C  
HETATM   11  C   UNL     1      -9.861  11.870  68.159  1.00  0.00    -0.192 C  
HETATM   12  C   UNL     1     -10.154   9.363  66.329  1.00  0.00    -0.328 C  
HETATM   13  O   UNL     1      -8.641  11.889  68.293  1.00  0.00    -0.154 OA 
HETATM   14  C   UNL     1     -10.667  12.161  66.896  1.00  0.00    -0.236 C  
HETATM   15  C   UNL     1     -11.529  12.925  69.000  1.00  0.00    -0.308 C  
HETATM   16  O   UNL     1     -10.786  14.140  68.882  1.00  0.00    -0.251 OA 
HETATM   17  H   UNL     1     -10.375  14.084  68.027  1.00  0.00     0.000 HD 
HETATM   18  C   UNL     1     -10.264  10.843  65.922  1.00  0.00    -0.314 C  
HETATM   19  O   UNL     1     -11.947  12.538  67.683  1.00  0.00    -0.414 OA 
ENDROOT
BRANCH   8  20
HETATM   20  C   UNL     1     -11.259   9.243  69.215  1.00  0.00     0.066 C  
HETATM   21  C   UNL     1      -9.431   9.574  70.894  1.00  0.00    -0.186 C  
HETATM   22  C   UNL     1     -10.571   8.675  70.426  1.00  0.00    -0.244 C  
HETATM   23  C   UNL     1     -10.031   7.322  69.951  1.00  0.00    -0.183 C  
ENDBRANCH   8  20
BRANCH  14  24
HETATM   24  N   UNL     1     -10.581  13.289  65.979  1.00  0.00    -0.282 N  
HETATM   25  H   UNL     1     -11.224  13.448  65.203  1.00  0.00     0.000 HD 
HETATM   26  O   UNL     1      -8.615  13.674  67.013  1.00  0.00    -0.209 OA 
HETATM   27  C   UNL     1      -9.518  14.118  66.291  1.00  0.00    -0.241 C  
BRANCH  27  28
HETATM   28  C   UNL     1      -9.447  15.538  65.742  1.00  0.00    -0.334 C  
HETATM   29  C   UNL     1     -10.662  16.481  65.903  1.00  0.00    -0.190 C  
HETATM   30  N   UNL     1     -10.129  17.886  66.028  1.00  0.00    -0.540 NA 
HETATM   31  C   UNL     1      -9.569  18.094  67.423  1.00  0.00    -0.275 C  
HETATM   32  C   UNL     1     -11.032  18.857  65.466  1.00  0.00     0.241 C  
HETATM   33  C   UNL     1      -8.565  19.327  67.707  1.00  0.00    -0.341 C  
HETATM   34  C   UNL     1      -7.251  18.911  68.381  1.00  0.00    -0.309 A  
HETATM   35  C   UNL     1      -5.981  19.426  68.501  1.00  0.00    -0.217 A  
HETATM   36 BR   UNL     1      -5.399  21.082  67.874  1.00  0.00    -0.352 Br 
HETATM   37  N   UNL     1      -5.154  18.483  69.071  1.00  0.00    -0.186 NA 
HETATM   38  C   UNL     1      -5.851  17.324  69.337  1.00  0.00    -0.222 A  
HETATM   39  H   UNL     1      -4.164  18.622  69.269  1.00  0.00     0.000 HD 
HETATM   40  C   UNL     1      -5.472  16.023  69.709  1.00  0.00    -0.137 A  
HETATM   41  C   UNL     1      -6.487  15.047  69.806  1.00  0.00    -0.163 A  
HETATM   42  C   UNL     1      -7.798  15.336  69.458  1.00  0.00    -0.204 A  
HETATM   43  C   UNL     1      -8.064  16.588  68.910  1.00  0.00    -0.240 A  
HETATM   44  C   UNL     1      -7.148  17.628  68.982  1.00  0.00    -0.227 A  
HETATM   45  C   UNL     1      -8.879  16.765  67.724  1.00  0.00    -0.208 C  
HETATM   46  C   UNL     1      -8.375  16.107  66.646  1.00  0.00    -0.321 C  
ENDBRANCH  27  28
ENDBRANCH  14  24
TORSDOF 3
ENDMDL
MODEL       12
REMARK 921   NORMALIZED FREE ENERGY PREDICTED BY IDOCK:   -7.22 KCAL/MOL
REMARK 922        TOTAL FREE ENERGY PREDICTED BY IDOCK:   -8.02 KCAL/MOL
REMARK 923 INTER-LIGAND FREE ENERGY PREDICTED BY IDOCK:  -10.04 KCAL/MOL
REMARK 924 INTRA-LIGAND FREE ENERGY PREDICTED BY IDOCK:    2.02 KCAL/MOL
REMARK 927      BINDING AFFINITY PREDICTED BY RF-SCORE:    0.00 PKD
ROOT
HETATM    1  C   UNL     1      -7.371  15.111  68.895  1.00  0.00    -0.142 C  
HETATM    2  C   UNL     1      -6.513  14.382  69.926  1.00  0.00    -0.152 C  
HETATM    3  C   UNL     1      -5.650  15.526  70.537  1.00  0.00    -0.127 C  
HETATM    4  C   UNL     1      -5.872  16.750  69.650  1.00  0.00    -0.207 C  
HETATM    5  N   UNL     1      -6.567  16.245  68.494  1.00  0.00    -0.127 N  
HETATM    6  C   UNL     1      -7.112  17.155  67.624  1.00  0.00    -0.153 C  
HETATM    7  O   UNL     1      -6.504  18.165  67.283  1.00  0.00    -0.173 OA 
HETATM    8  C   UNL     1      -8.467  16.731  67.027  1.00  0.00    -0.199 C  
HETATM    9  N   UNL     1      -9.303  15.680  67.818  1.00  0.00    -0.201 N  
HETATM   10  C   UNL     1     -12.388  14.544  64.909  1.00  0.00    -0.378 C  
HETATM   11  C   UNL     1     -10.448  15.111  67.286  1.00  0.00    -0.271 C  
HETATM   12  C   UNL     1     -11.109  16.546  64.599  1.00  0.00    -0.135 C  
HETATM   13  O   UNL     1     -11.554  15.145  67.818  1.00  0.00    -0.332 OA 
HETATM   14  C   UNL     1     -10.020  14.295  66.069  1.00  0.00    -0.319 C  
HETATM   15  C   UNL     1      -8.462  14.552  67.875  1.00  0.00    -0.161 C  
HETATM   16  O   UNL     1      -9.008  13.405  68.531  1.00  0.00    -0.292 OA 
HETATM   17  H   UNL     1      -9.658  13.073  67.923  1.00  0.00     0.000 HD 
HETATM   18  C   UNL     1     -10.896  15.040  64.833  1.00  0.00    -0.430 C  
HETATM   19  O   UNL     1      -8.521  14.317  66.460  1.00  0.00    -0.008 OA 
ENDROOT
BRANCH   8  20
HETATM   20  C   UNL     1      -9.226  17.944  66.615  1.00  0.00    -0.288 C  
HETATM   21  C   UNL     1     -10.155  18.555  68.859  1.00  0.00    -0.348 C  
HETATM   22  C   UNL     1      -9.464  19.059  67.596  1.00  0.00    -0.355 C  
HETATM   23  C   UNL     1     -10.368  20.037  66.840  1.00  0.00    -0.567 C  
ENDBRANCH   8  20
BRANCH  14  24
HETATM   24  N   UNL     1     -10.199  12.877  65.793  1.00  0.00    -0.285 N  
HETATM   25  H   UNL     1      -9.735  12.377  65.034  1.00  0.00     0.000 HD 
HETATM   26  O   UNL     1     -11.834  13.024  67.338  1.00  0.00    -0.358 OA 
HETATM   27  C   UNL     1     -11.078  12.291  66.687  1.00  0.00    -0.297 C  
BRANCH  27  28
HETATM   28  C   UNL     1     -11.130  10.777  66.854  1.00  0.00    -0.204 C  
HETATM   29  C   UNL     1      -9.814   9.976  66.977  1.00  0.00    -0.189 C  
HETATM   30  N   UNL     1     -10.091   8.785  67.859  1.00  0.00    -0.195 NA 
HETATM   31  C   UNL     1     -10.153   9.231  69.309  1.00  0.00    -0.200 C  
HETATM   32  C   UNL     1      -9.291   7.645  67.494  1.00  0.00    -0.139 C  
HETATM   33  C   UNL     1     -10.847   8.276  70.411  1.00  0.00    -0.241 C  
HETATM   34  C   UNL     1     -11.925   8.977  71.245  1.00  0.00    -0.374 A  
HETATM   35  C   UNL     1     -13.015   8.599  71.995  1.00  0.00    -0.378 A  
HETATM   36 BR   UNL     1     -13.542   6.850  72.371  1.00  0.00     0.471 Br 
HETATM   37  N   UNL     1     -13.737   9.716  72.354  1.00  0.00    -0.634 NA 
HETATM   38  C   UNL     1     -13.150  10.856  71.849  1.00  0.00    -0.432 A  
HETATM   39  H   UNL     1     -14.589   9.701  72.915  1.00  0.00     0.000 HD 
HETATM   40  C   UNL     1     -13.561  12.195  71.738  1.00  0.00    -0.038 A  
HETATM   41  C   UNL     1     -12.705  13.089  71.061  1.00  0.00    -0.347 A  
HETATM   42  C   UNL     1     -11.542  12.645  70.447  1.00  0.00     0.082 A  
HETATM   43  C   UNL     1     -11.300  11.275  70.428  1.00  0.00    -0.068 A  
HETATM   44  C   UNL     1     -12.003  10.396  71.240  1.00  0.00    -0.425 A  
HETATM   45  C   UNL     1     -10.882  10.571  69.231  1.00  0.00    -0.284 C  
HETATM   46  C   UNL     1     -11.780  10.693  68.217  1.00  0.00    -0.136 C  
ENDBRANCH  27  28
ENDBRANCH  14  24
TORSDOF 3
ENDMDL
MODEL       13
REMARK 921   NORMALIZED FREE ENERGY PREDICTED BY IDOCK:   -7.19 KCAL/MOL
REMARK 922        TOTAL FREE ENERGY PREDICTED BY IDOCK:   -7.98 KCAL/MOL
REMARK 923 INTER-LIGAND FREE ENERGY PREDICTED BY IDOCK:   -9.85 KCAL/MOL
REMARK 924 INTRA-LIGAND FREE ENERGY PREDICTED BY IDOCK:    1.87 KCAL/MOL
REMARK 927      BINDING AFFINITY PREDICTED BY RF-SCORE:    0.00 PKD
ROOT
HETATM    1  C   UNL     1      -6.928  16.718  69.052  1.00  0.00    -0.218 C  
HETATM    2  C   UNL     1      -5.924  16.584  70.194  1.00  0.00    -0.132 C  
HETATM    3  C   UNL     1      -5.302  18.010  70.285  1.00  0.00    -0.250 C  
HETATM    4  C   UNL     1      -5.781  18.765  69.046  1.00  0.00    -0.213 C  
HETATM    5  N   UNL     1      -6.377  17.757  68.209  1.00  0.00    -0.185 N  
HETATM    6  C   UNL     1      -7.109  18.172  67.125  1.00  0.00    -0.194 C  
HETATM    7  O   UNL     1      -6.724  19.083  66.398  1.00  0.00    -0.192 OA 
HETATM    8  C   UNL     1      -8.359  17.320  66.837  1.00  0.00    -0.227 C  
HETATM    9  N   UNL     1      -8.952  16.494  68.018  1.00  0.00    -0.201 N  
HETATM   10  C   UNL     1     -11.787  13.835  65.979  1.00  0.00    -0.415 C  
HETATM   11  C   UNL     1      -9.966  15.570  67.823  1.00  0.00    -0.222 C  
HETATM   12  C   UNL     1     -10.946  15.786  64.872  1.00  0.00    -0.443 C  
HETATM   13  O   UNL     1     -11.047  15.591  68.404  1.00  0.00    -0.283 OA 
HETATM   14  C   UNL     1      -9.400  14.462  66.939  1.00  0.00    -0.256 C  
HETATM   15  C   UNL     1      -7.899  15.638  68.394  1.00  0.00    -0.127 C  
HETATM   16  O   UNL     1      -8.190  14.728  69.458  1.00  0.00    -0.376 OA 
HETATM   17  H   UNL     1      -8.769  14.084  69.066  1.00  0.00     0.000 HD 
HETATM   18  C   UNL     1     -10.428  14.533  65.603  1.00  0.00    -0.351 C  
HETATM   19  O   UNL     1      -7.931  14.899  67.164  1.00  0.00    -0.200 OA 
ENDROOT
BRANCH   8  20
HETATM   20  C   UNL     1      -9.355  18.140  66.093  1.00  0.00    -0.147 C  
HETATM   21  C   UNL     1     -10.330  19.366  68.047  1.00  0.00    -0.536 C  
HETATM   22  C   UNL     1      -9.785  19.479  66.626  1.00  0.00    -0.470 C  
HETATM   23  C   UNL     1     -10.885  19.931  65.661  1.00  0.00    -0.299 C  
ENDBRANCH   8  20
BRANCH  14  24
HETATM   24  N   UNL     1      -9.292  13.033  67.197  1.00  0.00    -0.222 N  
HETATM   25  H   UNL     1      -8.849  12.368  66.563  1.00  0.00     0.000 HD 
HETATM   26  O   UNL     1     -10.659  13.483  68.932  1.00  0.00    -0.231 OA 
HETATM   27  C   UNL     1      -9.866  12.690  68.409  1.00  0.00    -0.200 C  
BRANCH  27  28
HETATM   28  C   UNL     1      -9.546  11.357  69.076  1.00  0.00    -0.004 C  
HETATM   29  C   UNL     1     -10.679  10.547  69.747  1.00  0.00    -0.264 C  
HETATM   30  N   UNL     1     -10.334   9.086  69.608  1.00  0.00    -0.206 NA 
HETATM   31  C   UNL     1     -10.618   8.630  68.189  1.00  0.00    -0.133 C  
HETATM   32  C   UNL     1     -10.815   8.310  70.721  1.00  0.00    -0.227 C  
HETATM   33  C   UNL     1      -9.956   7.263  67.640  1.00  0.00    -0.207 C  
HETATM   34  C   UNL     1      -9.202   7.431  66.315  1.00  0.00    -0.182 A  
HETATM   35  C   UNL     1      -8.209   6.761  65.637  1.00  0.00    -0.134 A  
HETATM   36 BR   UNL     1      -7.423   5.148  66.141  1.00  0.00    -0.087 Br 
HETATM   37  N   UNL     1      -7.797   7.518  64.562  1.00  0.00    -0.126 NA 
HETATM   38  C   UNL     1      -8.498   8.703  64.504  1.00  0.00    -0.110 A  
HETATM   39  H   UNL     1      -7.072   7.240  63.900  1.00  0.00     0.000 HD 
HETATM   40  C   UNL     1      -8.347   9.890  63.767  1.00  0.00    -0.168 A  
HETATM   41  C   UNL     1      -9.229  10.954  64.050  1.00  0.00    -0.218 A  
HETATM   42  C   UNL     1     -10.154  10.867  65.081  1.00  0.00    -0.352 A  
HETATM   43  C   UNL     1     -10.113   9.740  65.896  1.00  0.00    -0.314 A  
HETATM   44  C   UNL     1      -9.406   8.601  65.536  1.00  0.00    -0.105 A  
HETATM   45  C   UNL     1     -10.165   9.818  67.343  1.00  0.00    -0.284 C  
HETATM   46  C   UNL     1      -9.145  10.553  67.859  1.00  0.00    -0.136 C  
ENDBRANCH  27  28
ENDBRANCH  14  24
TORSDOF 3
ENDMDL
MODEL       14
REMARK 921   NORMALIZED FREE ENERGY PREDICTED BY IDOCK:   -7.15 KCAL/MOL
REMARK 922        TOTAL FREE ENERGY PREDICTED BY IDOCK:   -7.94 KCAL/MOL
REMARK 923 INTER-LIGAND FREE ENERGY PREDICTED BY IDOCK:   -7.60 KCAL/MOL
REMARK 924 INTRA-LIGAND FREE ENERGY PREDICTED BY IDOCK:   -0.34 KCAL/MOL
REMARK 927      BINDING AFFINITY PREDICTED BY RF-SCORE:    0.00 PKD
ROOT
HETATM    1  C   UNL     1     -10.396   5.051  72.495  1.00  0.00    -0.202 C  
HETATM    2  C   UNL     1     -11.352   4.561  73.579  1.00  0.00    -0.355 C  
HETATM    3  C   UNL     1     -11.054   3.033  73.646  1.00  0.00    -0.323 C  
HETATM    4  C   UNL     1     -10.168   2.717  72.442  1.00  0.00    -0.145 C  
HETATM    5  N   UNL     1     -10.213   3.906  71.631  1.00  0.00    -0.086 N  
HETATM    6  C   UNL     1      -9.323   4.008  70.592  1.00  0.00    -0.146 C  
HETATM    7  O   UNL     1      -9.082   3.059  69.852  1.00  0.00    -0.098 OA 
HETATM    8  C   UNL     1      -8.769   5.428  70.367  1.00  0.00    -0.129 C  
HETATM    9  N   UNL     1      -8.813   6.415  71.572  1.00  0.00    -0.137 N  
HETATM   10  C   UNL     1      -7.903  10.266  69.672  1.00  0.00    -0.168 C  
HETATM   11  C   UNL     1      -8.498   7.756  71.426  1.00  0.00    -0.116 C  
HETATM   12  C   UNL     1      -7.425   8.211  68.535  1.00  0.00    -0.099 C  
HETATM   13  O   UNL     1      -7.628   8.341  72.066  1.00  0.00    -0.101 OA 
HETATM   14  C   UNL     1      -9.550   8.367  70.504  1.00  0.00    -0.170 C  
HETATM   15  C   UNL     1     -10.183   6.509  71.883  1.00  0.00    -0.194 C  
HETATM   16  O   UNL     1     -10.516   7.396  72.954  1.00  0.00    -0.234 OA 
HETATM   17  H   UNL     1     -10.389   8.264  72.590  1.00  0.00     0.000 HD 
HETATM   18  C   UNL     1      -8.600   8.927  69.226  1.00  0.00    -0.133 C  
HETATM   19  O   UNL     1     -10.516   7.165  70.651  1.00  0.00    -0.207 OA 
ENDROOT
BRANCH   8  20
HETATM   20  C   UNL     1      -7.448   5.341  69.685  1.00  0.00    -0.065 C  
HETATM   21  C   UNL     1      -6.057   4.769  71.687  1.00  0.00    -0.021 C  
HETATM   22  C   UNL     1      -6.371   4.444  70.230  1.00  0.00    -0.027 C  
HETATM   23  C   UNL     1      -5.158   4.730  69.340  1.00  0.00     0.000 C  
ENDBRANCH   8  20
BRANCH  14  24
HETATM   24  N   UNL     1     -10.466   9.472  70.744  1.00  0.00    -0.296 N  
HETATM   25  H   UNL     1     -10.546   9.968  71.632  1.00  0.00     0.000 HD 
HETATM   26  O   UNL     1     -11.294   8.915  68.723  1.00  0.00     0.270 OA 
HETATM   27  C   UNL     1     -11.215   9.766  69.619  1.00  0.00    -0.178 C  
BRANCH  27  28
HETATM   28  C   UNL     1     -11.945  11.098  69.491  1.00  0.00    -0.425 C  
HETATM   29  C   UNL     1     -11.459  12.317  70.309  1.00  0.00     0.185 C  
HETATM   30  N   UNL     1     -11.754  13.553  69.498  1.00  0.00    -0.306 NA 
HETATM   31  C   UNL     1     -10.733  13.682  68.382  1.00  0.00    -0.258 C  
HETATM   32  C   UNL     1     -12.052  14.688  70.331  1.00  0.00    -0.319 C  
HETATM   33  C   UNL     1     -11.042  14.643  67.121  1.00  0.00    -0.328 C  
HETATM   34  C   UNL     1     -10.883  13.949  65.762  1.00  0.00    -0.289 A  
HETATM   35  C   UNL     1     -11.343  14.142  64.480  1.00  0.00    -0.348 A  
HETATM   36 BR   UNL     1     -12.376  15.573  63.882  1.00  0.00     0.702 Br 
HETATM   37  N   UNL     1     -11.011  13.052  63.704  1.00  0.00    -0.558 NA 
HETATM   38  C   UNL     1     -10.332  12.114  64.450  1.00  0.00    -0.319 A  
HETATM   39  H   UNL     1     -11.238  12.954  62.715  1.00  0.00     0.000 HD 
HETATM   40  C   UNL     1      -9.955  10.779  64.227  1.00  0.00    -0.403 A  
HETATM   41  C   UNL     1      -9.332  10.088  65.287  1.00  0.00    -0.294 A  
HETATM   42  C   UNL     1      -9.178  10.673  66.535  1.00  0.00    -0.187 A  
HETATM   43  C   UNL     1      -9.752  11.924  66.741  1.00  0.00    -0.218 A  
HETATM   44  C   UNL     1     -10.193  12.710  65.685  1.00  0.00    -0.290 A  
HETATM   45  C   UNL     1     -10.539  12.240  67.917  1.00  0.00    -0.232 C  
HETATM   46  C   UNL     1     -11.622  11.429  68.051  1.00  0.00    -0.357 C  
ENDBRANCH  27  28
ENDBRANCH  14  24
TORSDOF 3
ENDMDL
MODEL       15
REMARK 921   NORMALIZED FREE ENERGY PREDICTED BY IDOCK:   -7.14 KCAL/MOL
REMARK 922        TOTAL FREE ENERGY PREDICTED BY IDOCK:   -7.93 KCAL/MOL
REMARK 923 INTER-LIGAND FREE ENERGY PREDICTED BY IDOCK:   -7.30 KCAL/MOL
REMARK 924 INTRA-LIGAND FREE ENERGY PREDICTED BY IDOCK:   -0.63 KCAL/MOL
REMARK 927      BINDING AFFINITY PREDICTED BY RF-SCORE:    0.00 PKD
ROOT
HETATM    1  C   UNL     1      -6.880  16.356  68.923  1.00  0.00    -0.180 C  
HETATM    2  C   UNL     1      -5.931  16.965  69.952  1.00  0.00    -0.219 C  
HETATM    3  C   UNL     1      -5.685  18.400  69.397  1.00  0.00    -0.232 C  
HETATM    4  C   UNL     1      -6.275  18.421  67.988  1.00  0.00    -0.189 C  
HETATM    5  N   UNL     1      -6.561  17.041  67.690  1.00  0.00    -0.138 N  
HETATM    6  C   UNL     1      -7.319  16.769  66.578  1.00  0.00    -0.271 C  
HETATM    7  O   UNL     1      -7.136  17.352  65.514  1.00  0.00    -0.211 OA 
HETATM    8  C   UNL     1      -8.304  15.598  66.752  1.00  0.00    -0.278 C  
HETATM    9  N   UNL     1      -8.732  15.229  68.204  1.00  0.00    -0.159 N  
HETATM   10  C   UNL     1     -10.720  11.355  67.649  1.00  0.00    -0.261 C  
HETATM   11  C   UNL     1      -9.476  14.094  68.478  1.00  0.00    -0.202 C  
HETATM   12  C   UNL     1     -10.333  12.798  65.775  1.00  0.00    -0.297 C  
HETATM   13  O   UNL     1     -10.557  14.092  69.062  1.00  0.00    -0.246 OA 
HETATM   14  C   UNL     1      -8.612  12.891  68.109  1.00  0.00    -0.188 C  
HETATM   15  C   UNL     1      -7.521  14.898  68.841  1.00  0.00    -0.137 C  
HETATM   16  O   UNL     1      -7.630  14.480  70.203  1.00  0.00    -0.367 OA 
HETATM   17  H   UNL     1      -8.012  13.612  70.155  1.00  0.00     0.000 HD 
HETATM   18  C   UNL     1      -9.559  12.139  66.932  1.00  0.00    -0.210 C  
HETATM   19  O   UNL     1      -7.309  13.726  68.039  1.00  0.00    -0.103 OA 
ENDROOT
BRANCH   8  20
HETATM   20  C   UNL     1      -9.434  15.757  65.795  1.00  0.00    -0.334 C  
HETATM   21  C   UNL     1     -10.897  17.210  67.216  1.00  0.00    -0.118 C  
HETATM   22  C   UNL     1     -10.292  16.991  65.832  1.00  0.00    -0.310 C  
HETATM   23  C   UNL     1     -11.391  16.716  64.801  1.00  0.00     0.021 C  
ENDBRANCH   8  20
BRANCH  14  24
HETATM   24  N   UNL     1      -8.168  11.778  68.936  1.00  0.00    -0.356 N  
HETATM   25  H   UNL     1      -8.418  11.657  69.918  1.00  0.00     0.000 HD 
HETATM   26  O   UNL     1      -6.848  11.302  67.171  1.00  0.00    -0.095 OA 
HETATM   27  C   UNL     1      -7.363  10.905  68.225  1.00  0.00    -0.087 C  
BRANCH  27  28
HETATM   28  C   UNL     1      -7.098   9.494  68.736  1.00  0.00    -0.068 C  
HETATM   29  C   UNL     1      -8.109   8.826  69.696  1.00  0.00    -0.101 C  
HETATM   30  N   UNL     1      -8.076   7.343  69.427  1.00  0.00    -0.127 NA 
HETATM   31  C   UNL     1      -8.835   7.042  68.147  1.00  0.00    -0.129 C  
HETATM   32  C   UNL     1      -8.340   6.573  70.614  1.00  0.00    -0.133 C  
HETATM   33  C   UNL     1      -8.607   5.632  67.394  1.00  0.00    -0.109 C  
HETATM   34  C   UNL     1      -8.253   5.775  65.909  1.00  0.00    -0.121 A  
HETATM   35  C   UNL     1      -7.631   5.009  64.949  1.00  0.00    -0.078 A  
HETATM   36 BR   UNL     1      -7.022   3.260  65.158  1.00  0.00    -0.058 Br 
HETATM   37  N   UNL     1      -7.425   5.768  63.818  1.00  0.00    -0.063 NA 
HETATM   38  C   UNL     1      -7.897   7.049  64.000  1.00  0.00    -0.109 A  
HETATM   39  H   UNL     1      -6.983   5.428  62.964  1.00  0.00     0.000 HD 
HETATM   40  C   UNL     1      -7.764   8.248  63.279  1.00  0.00    -0.142 A  
HETATM   41  C   UNL     1      -8.329   9.414  63.837  1.00  0.00    -0.175 A  
HETATM   42  C   UNL     1      -8.915   9.399  65.094  1.00  0.00    -0.258 A  
HETATM   43  C   UNL     1      -8.834   8.223  65.834  1.00  0.00    -0.197 A  
HETATM   44  C   UNL     1      -8.470   7.016  65.253  1.00  0.00    -0.060 A  
HETATM   45  C   UNL     1      -8.449   8.203  67.232  1.00  0.00    -0.125 C  
HETATM   46  C   UNL     1      -7.212   8.727  67.437  1.00  0.00    -0.080 C  
ENDBRANCH  27  28
ENDBRANCH  14  24
TORSDOF 3
ENDMDL
MODEL       16
REMARK 921   NORMALIZED FREE ENERGY PREDICTED BY IDOCK:   -7.13 KCAL/MOL
REMARK 922        TOTAL FREE ENERGY PREDICTED BY IDOCK:   -7.92 KCAL/MOL
REMARK 923 INTER-LIGAND FREE ENERGY PREDICTED BY IDOCK:   -7.80 KCAL/MOL
REMARK 924 INTRA-LIGAND FREE ENERGY PREDICTED BY IDOCK:   -0.12 KCAL/MOL
REMARK 927      BINDING AFFINITY PREDICTED BY RF-SCORE:    0.00 PKD
ROOT
HETATM    1  C   UNL     1      -8.856   6.261  68.674  1.00  0.00    -0.119 C  
HETATM    2  C   UNL     1      -9.455   5.722  69.970  1.00  0.00    -0.193 C  
HETATM    3  C   UNL     1      -9.799   4.245  69.612  1.00  0.00    -0.244 C  
HETATM    4  C   UNL     1      -9.629   4.121  68.098  1.00  0.00    -0.134 C  
HETATM    5  N   UNL     1      -9.485   5.477  67.634  1.00  0.00    -0.115 N  
HETATM    6  C   UNL     1      -9.080   5.671  66.337  1.00  0.00    -0.147 C  
HETATM    7  O   UNL     1      -9.535   5.005  65.412  1.00  0.00    -0.154 OA 
HETATM    8  C   UNL     1      -8.125   6.864  66.141  1.00  0.00    -0.115 C  
HETATM    9  N   UNL     1      -7.319   7.350  67.382  1.00  0.00    -0.099 N  
HETATM   10  C   UNL     1      -5.700  11.193  66.012  1.00  0.00    -0.100 C  
HETATM   11  C   UNL     1      -6.567   8.513  67.353  1.00  0.00    -0.059 C  
HETATM   12  C   UNL     1      -6.549   9.604  64.433  1.00  0.00    -0.107 C  
HETATM   13  O   UNL     1      -5.367   8.573  67.605  1.00  0.00    -0.033 OA 
HETATM   14  C   UNL     1      -7.540   9.672  67.158  1.00  0.00    -0.091 C  
HETATM   15  C   UNL     1      -8.313   7.716  68.310  1.00  0.00    -0.125 C  
HETATM   16  O   UNL     1      -7.839   8.239  69.553  1.00  0.00    -0.099 OA 
HETATM   17  H   UNL     1      -7.516   9.106  69.336  1.00  0.00     0.000 HD 
HETATM   18  C   UNL     1      -6.989  10.342  65.711  1.00  0.00    -0.128 C  
HETATM   19  O   UNL     1      -8.781   8.818  67.520  1.00  0.00    -0.132 OA 
ENDROOT
BRANCH   8  20
HETATM   20  C   UNL     1      -7.306   6.645  64.917  1.00  0.00    -0.080 C  
HETATM   21  C   UNL     1      -5.571   5.144  65.920  1.00  0.00    -0.014 C  
HETATM   22  C   UNL     1      -6.520   5.374  64.748  1.00  0.00    -0.038 C  
HETATM   23  C   UNL     1      -5.733   5.589  63.451  1.00  0.00    -0.014 C  
ENDBRANCH   8  20
BRANCH  14  24
HETATM   24  N   UNL     1      -7.771  10.840  67.996  1.00  0.00    -0.098 N  
HETATM   25  H   UNL     1      -7.260  11.041  68.855  1.00  0.00     0.000 HD 
HETATM   26  O   UNL     1      -9.549  11.162  66.647  1.00  0.00    -0.184 OA 
HETATM   27  C   UNL     1      -8.772  11.645  67.481  1.00  0.00    -0.156 C  
BRANCH  27  28
HETATM   28  C   UNL     1      -8.930  13.089  67.944  1.00  0.00    -0.200 C  
HETATM   29  C   UNL     1      -9.581  14.127  67.000  1.00  0.00    -0.262 C  
HETATM   30  N   UNL     1     -10.301  15.133  67.862  1.00  0.00    -0.239 NA 
HETATM   31  C   UNL     1     -11.598  14.531  68.370  1.00  0.00    -0.326 C  
HETATM   32  C   UNL     1     -10.303  16.446  67.272  1.00  0.00    -0.287 C  
HETATM   33  C   UNL     1     -12.350  15.197  69.634  1.00  0.00    -0.242 C  
HETATM   34  C   UNL     1     -12.674  14.203  70.755  1.00  0.00    -0.414 A  
HETATM   35  C   UNL     1     -12.935  14.265  72.105  1.00  0.00    -0.373 A  
HETATM   36 BR   UNL     1     -13.100  15.817  73.125  1.00  0.00    -0.713 Br 
HETATM   37  N   UNL     1     -12.958  12.991  72.629  1.00  0.00    -0.185 NA 
HETATM   38  C   UNL     1     -12.708  12.058  71.646  1.00  0.00    -0.221 A  
HETATM   39  H   UNL     1     -13.134  12.769  73.608  1.00  0.00     0.000 HD 
HETATM   40  C   UNL     1     -12.420  10.683  71.659  1.00  0.00    -0.416 A  
HETATM   41  C   UNL     1     -12.124  10.063  70.427  1.00  0.00    -0.284 A  
HETATM   42  C   UNL     1     -12.031  10.801  69.255  1.00  0.00    -0.334 A  
HETATM   43  C   UNL     1     -12.133  12.185  69.350  1.00  0.00    -0.247 A  
HETATM   44  C   UNL     1     -12.614  12.808  70.493  1.00  0.00    -0.191 A  
HETATM   45  C   UNL     1     -11.213  13.085  68.681  1.00  0.00    -0.316 C  
HETATM   46  C   UNL     1      -9.924  12.890  69.066  1.00  0.00     0.226 C  
ENDBRANCH  27  28
ENDBRANCH  14  24
TORSDOF 3
ENDMDL
MODEL       17
REMARK 921   NORMALIZED FREE ENERGY PREDICTED BY IDOCK:   -7.09 KCAL/MOL
REMARK 922        TOTAL FREE ENERGY PREDICTED BY IDOCK:   -7.87 KCAL/MOL
REMARK 923 INTER-LIGAND FREE ENERGY PREDICTED BY IDOCK:   -9.80 KCAL/MOL
REMARK 924 INTRA-LIGAND FREE ENERGY PREDICTED BY IDOCK:    1.93 KCAL/MOL
REMARK 927      BINDING AFFINITY PREDICTED BY RF-SCORE:    0.00 PKD
ROOT
HETATM    1  C   UNL     1     -10.211  14.552  68.663  1.00  0.00    -0.243 C  
HETATM    2  C   UNL     1     -10.244  15.227  70.031  1.00  0.00    -0.216 C  
HETATM    3  C   UNL     1     -10.712  16.675  69.698  1.00  0.00    -0.286 C  
HETATM    4  C   UNL     1     -10.654  16.804  68.177  1.00  0.00    -0.350 C  
HETATM    5  N   UNL     1      -9.946  15.630  67.736  1.00  0.00    -0.222 N  
HETATM    6  C   UNL     1      -9.943  15.349  66.393  1.00  0.00    -0.278 C  
HETATM    7  O   UNL     1      -9.775  16.226  65.550  1.00  0.00    -0.485 OA 
HETATM    8  C   UNL     1     -10.033  13.848  66.057  1.00  0.00    -0.310 C  
HETATM    9  N   UNL     1     -10.642  12.906  67.138  1.00  0.00    -0.237 N  
HETATM   10  C   UNL     1      -9.615   8.923  65.607  1.00  0.00    -0.175 C  
HETATM   11  C   UNL     1     -10.613  11.528  67.003  1.00  0.00    -0.242 C  
HETATM   12  C   UNL     1      -9.517  10.836  64.168  1.00  0.00    -0.309 C  
HETATM   13  O   UNL     1     -11.605  10.805  67.025  1.00  0.00    -0.322 OA 
HETATM   14  C   UNL     1      -9.147  11.105  67.032  1.00  0.00    -0.153 C  
HETATM   15  C   UNL     1      -9.791  13.070  68.248  1.00  0.00    -0.225 C  
HETATM   16  O   UNL     1     -10.108  12.277  69.394  1.00  0.00    -0.278 OA 
HETATM   17  H   UNL     1      -9.859  11.394  69.147  1.00  0.00     0.000 HD 
HETATM   18  C   UNL     1      -8.976  10.359  65.528  1.00  0.00    -0.199 C  
HETATM   19  O   UNL     1      -8.665  12.466  67.595  1.00  0.00    -0.159 OA 
ENDROOT
BRANCH   8  20
HETATM   20  C   UNL     1     -10.609  13.681  64.694  1.00  0.00    -0.446 C  
HETATM   21  C   UNL     1     -13.019  13.504  65.350  1.00  0.00    -0.292 C  
HETATM   22  C   UNL     1     -12.010  14.143  64.400  1.00  0.00    -0.478 C  
HETATM   23  C   UNL     1     -12.262  13.686  62.960  1.00  0.00     0.369 C  
ENDBRANCH   8  20
BRANCH  14  24
HETATM   24  N   UNL     1      -8.462  10.190  67.934  1.00  0.00    -0.117 N  
HETATM   25  H   UNL     1      -7.458  10.013  67.919  1.00  0.00     0.000 HD 
HETATM   26  O   UNL     1     -10.552   9.603  68.543  1.00  0.00    -0.212 OA 
HETATM   27  C   UNL     1      -9.344   9.590  68.815  1.00  0.00    -0.146 C  
BRANCH  27  28
HETATM   28  C   UNL     1      -8.842   8.909  70.083  1.00  0.00    -0.172 C  
HETATM   29  C   UNL     1      -9.681   8.993  71.379  1.00  0.00    -0.299 C  
HETATM   30  N   UNL     1      -9.446   7.720  72.153  1.00  0.00    -0.154 NA 
HETATM   31  C   UNL     1     -10.230   6.587  71.517  1.00  0.00    -0.192 C  
HETATM   32  C   UNL     1      -9.517   7.932  73.575  1.00  0.00    -0.246 C  
HETATM   33  C   UNL     1      -9.845   5.056  71.857  1.00  0.00    -0.236 C  
HETATM   34  C   UNL     1      -9.610   4.189  70.615  1.00  0.00    -0.264 A  
HETATM   35  C   UNL     1      -8.943   3.021  70.320  1.00  0.00    -0.098 A  
HETATM   36 BR   UNL     1      -8.071   1.912  71.538  1.00  0.00    -0.046 Br 
HETATM   37  N   UNL     1      -8.923   2.835  68.955  1.00  0.00    -0.101 NA 
HETATM   38  C   UNL     1      -9.567   3.871  68.314  1.00  0.00    -0.114 A  
HETATM   39  H   UNL     1      -8.490   2.040  68.484  1.00  0.00     0.000 HD 
HETATM   40  C   UNL     1      -9.658   4.280  66.973  1.00  0.00    -0.227 A  
HETATM   41  C   UNL     1     -10.353   5.477  66.699  1.00  0.00    -0.322 A  
HETATM   42  C   UNL     1     -10.850   6.271  67.723  1.00  0.00    -0.424 A  
HETATM   43  C   UNL     1     -10.550   5.905  69.032  1.00  0.00    -0.360 A  
HETATM   44  C   UNL     1     -10.049   4.649  69.345  1.00  0.00    -0.194 A  
HETATM   45  C   UNL     1     -10.080   6.855  70.021  1.00  0.00    -0.195 C  
HETATM   46  C   UNL     1      -8.923   7.463  69.646  1.00  0.00    -0.141 C  
ENDBRANCH  27  28
ENDBRANCH  14  24
TORSDOF 3
ENDMDL
MODEL       18
REMARK 921   NORMALIZED FREE ENERGY PREDICTED BY IDOCK:   -7.05 KCAL/MOL
REMARK 922        TOTAL FREE ENERGY PREDICTED BY IDOCK:   -7.82 KCAL/MOL
REMARK 923 INTER-LIGAND FREE ENERGY PREDICTED BY IDOCK:   -8.33 KCAL/MOL
REMARK 924 INTRA-LIGAND FREE ENERGY PREDICTED BY IDOCK:    0.51 KCAL/MOL
REMARK 927      BINDING AFFINITY PREDICTED BY RF-SCORE:    0.00 PKD
ROOT
HETATM    1  C   UNL     1     -11.769   9.433  70.926  1.00  0.00    -0.308 C  
HETATM    2  C   UNL     1     -12.914  10.053  71.721  1.00  0.00    -0.560 C  
HETATM    3  C   UNL     1     -13.475   8.846  72.530  1.00  0.00    -0.462 C  
HETATM    4  C   UNL     1     -12.808   7.598  71.954  1.00  0.00    -0.282 C  
HETATM    5  N   UNL     1     -12.159   8.051  70.751  1.00  0.00    -0.154 N  
HETATM    6  C   UNL     1     -11.277   7.197  70.138  1.00  0.00    -0.262 C  
HETATM    7  O   UNL     1     -11.523   6.002  70.003  1.00  0.00    -0.372 OA 
HETATM    8  C   UNL     1     -10.042   7.889  69.530  1.00  0.00    -0.195 C  
HETATM    9  N   UNL     1      -9.643   9.281  70.104  1.00  0.00    -0.204 N  
HETATM   10  C   UNL     1      -6.700  10.704  67.175  1.00  0.00    -0.081 C  
HETATM   11  C   UNL     1      -8.657  10.056  69.517  1.00  0.00    -0.186 C  
HETATM   12  C   UNL     1      -7.301   8.386  67.260  1.00  0.00    -0.085 C  
HETATM   13  O   UNL     1      -7.658  10.471  70.098  1.00  0.00    -0.129 OA 
HETATM   14  C   UNL     1      -9.157  10.441  68.127  1.00  0.00    -0.142 C  
HETATM   15  C   UNL     1     -10.774  10.084  69.863  1.00  0.00    -0.286 C  
HETATM   16  O   UNL     1     -10.663  11.450  70.270  1.00  0.00    -0.213 OA 
HETATM   17  H   UNL     1     -10.070  11.837  69.637  1.00  0.00     0.000 HD 
HETATM   18  C   UNL     1      -7.966   9.770  67.137  1.00  0.00    -0.102 C  
HETATM   19  O   UNL     1     -10.621  10.038  68.436  1.00  0.00    -0.198 OA 
ENDROOT
BRANCH   8  20
HETATM   20  C   UNL     1      -8.922   6.911  69.442  1.00  0.00    -0.138 C  
HETATM   21  C   UNL     1      -8.035   7.182  71.768  1.00  0.00    -0.097 C  
HETATM   22  C   UNL     1      -8.439   6.197  70.674  1.00  0.00    -0.134 C  
HETATM   23  C   UNL     1      -7.224   5.397  70.194  1.00  0.00    -0.067 C  
ENDBRANCH   8  20
BRANCH  14  24
HETATM   24  N   UNL     1      -9.364  11.760  67.547  1.00  0.00    -0.171 N  
HETATM   25  H   UNL     1      -8.910  12.611  67.880  1.00  0.00     0.000 HD 
HETATM   26  O   UNL     1     -10.995  10.730  66.379  1.00  0.00    -0.166 OA 
HETATM   27  C   UNL     1     -10.253  11.716  66.488  1.00  0.00    -0.214 C  
BRANCH  27  28
HETATM   28  C   UNL     1     -10.336  12.863  65.488  1.00  0.00    -0.304 C  
HETATM   29  C   UNL     1     -11.652  13.663  65.348  1.00  0.00    -0.321 C  
HETATM   30  N   UNL     1     -11.285  15.076  64.975  1.00  0.00    -0.390 NA 
HETATM   31  C   UNL     1     -10.773  15.809  66.202  1.00  0.00    -0.290 C  
HETATM   32  C   UNL     1     -12.283  15.690  64.139  1.00  0.00     0.061 C  
HETATM   33  C   UNL     1      -9.920  17.168  66.026  1.00  0.00    -0.270 C  
HETATM   34  C   UNL     1      -8.578  17.156  66.768  1.00  0.00    -0.270 A  
HETATM   35  C   UNL     1      -7.376  17.820  66.674  1.00  0.00    -0.227 A  
HETATM   36 BR   UNL     1      -6.977  19.219  65.508  1.00  0.00    -0.198 Br 
HETATM   37  N   UNL     1      -6.457  17.227  67.511  1.00  0.00    -0.136 NA 
HETATM   38  C   UNL     1      -7.022  16.158  68.173  1.00  0.00    -0.128 A  
HETATM   39  H   UNL     1      -5.492  17.535  67.625  1.00  0.00     0.000 HD 
HETATM   40  C   UNL     1      -6.503  15.112  68.955  1.00  0.00    -0.106 A  
HETATM   41  C   UNL     1      -7.401  14.121  69.403  1.00  0.00     0.033 A  
HETATM   42  C   UNL     1      -8.732  14.125  69.010  1.00  0.00     0.116 A  
HETATM   43  C   UNL     1      -9.129  15.077  68.075  1.00  0.00    -0.178 A  
HETATM   44  C   UNL     1      -8.339  16.175  67.767  1.00  0.00    -0.162 A  
HETATM   45  C   UNL     1      -9.941  14.747  66.920  1.00  0.00    -0.246 C  
HETATM   46  C   UNL     1      -9.350  13.822  66.118  1.00  0.00    -0.104 C  
ENDBRANCH  27  28
ENDBRANCH  14  24
TORSDOF 3
ENDMDL
MODEL       19
REMARK 921   NORMALIZED FREE ENERGY PREDICTED BY IDOCK:   -6.91 KCAL/MOL
REMARK 922        TOTAL FREE ENERGY PREDICTED BY IDOCK:   -7.66 KCAL/MOL
REMARK 923 INTER-LIGAND FREE ENERGY PREDICTED BY IDOCK:   -8.21 KCAL/MOL
REMARK 924 INTRA-LIGAND FREE ENERGY PREDICTED BY IDOCK:    0.55 KCAL/MOL
REMARK 927      BINDING AFFINITY PREDICTED BY RF-SCORE:    0.00 PKD
ROOT
HETATM    1  C   UNL     1      -6.859   8.028  72.684  1.00  0.00    -0.083 C  
HETATM    2  C   UNL     1      -5.947   8.930  73.511  1.00  0.00    -0.058 C  
HETATM    3  C   UNL     1      -5.175   7.919  74.410  1.00  0.00    -0.061 C  
HETATM    4  C   UNL     1      -5.872   6.570  74.235  1.00  0.00    -0.063 C  
HETATM    5  N   UNL     1      -7.089   6.876  73.528  1.00  0.00    -0.075 N  
HETATM    6  C   UNL     1      -7.815   5.829  73.018  1.00  0.00    -0.104 C  
HETATM    7  O   UNL     1      -8.004   4.801  73.662  1.00  0.00    -0.103 OA 
HETATM    8  C   UNL     1      -8.467   6.114  71.652  1.00  0.00    -0.130 C  
HETATM    9  N   UNL     1      -7.839   7.239  70.777  1.00  0.00    -0.093 N  
HETATM   10  C   UNL     1     -10.881   7.827  67.668  1.00  0.00    -0.149 C  
HETATM   11  C   UNL     1      -8.448   7.684  69.615  1.00  0.00    -0.135 C  
HETATM   12  C   UNL     1     -10.894   5.847  69.016  1.00  0.00    -0.383 C  
HETATM   13  O   UNL     1      -7.917   7.691  68.509  1.00  0.00    -0.119 OA 
HETATM   14  C   UNL     1      -9.773   8.326  70.020  1.00  0.00    -0.176 C  
HETATM   15  C   UNL     1      -7.950   8.392  71.578  1.00  0.00    -0.130 C  
HETATM   16  O   UNL     1      -7.470   9.604  70.991  1.00  0.00    -0.327 OA 
HETATM   17  H   UNL     1      -8.119   9.820  70.332  1.00  0.00     0.000 HD 
HETATM   18  C   UNL     1     -10.884   7.378  69.176  1.00  0.00    -0.129 C  
HETATM   19  O   UNL     1      -9.384   8.414  71.517  1.00  0.00    -0.162 OA 
ENDROOT
BRANCH   8  20
HETATM   20  C   UNL     1      -8.695   4.827  70.937  1.00  0.00    -0.135 C  
HETATM   21  C   UNL     1      -6.475   4.666  69.789  1.00  0.00    -0.032 C  
HETATM   22  C   UNL     1      -7.536   3.930  70.602  1.00  0.00    -0.041 C  
HETATM   23  C   UNL     1      -8.161   2.801  69.777  1.00  0.00    -0.064 C  
ENDBRANCH   8  20
BRANCH  14  24
HETATM   24  N   UNL     1     -10.255   9.681  69.794  1.00  0.00    -0.220 N  
HETATM   25  H   UNL     1      -9.818  10.346  69.155  1.00  0.00     0.000 HD 
HETATM   26  O   UNL     1     -11.625   9.230  71.526  1.00  0.00    -0.329 OA 
HETATM   27  C   UNL     1     -11.379   9.955  70.553  1.00  0.00    -0.327 C  
BRANCH  27  28
HETATM   28  C   UNL     1     -12.283  11.134  70.215  1.00  0.00    -0.436 C  
HETATM   29  C   UNL     1     -12.202  12.426  71.060  1.00  0.00    -0.100 C  
HETATM   30  N   UNL     1     -12.526  13.583  70.149  1.00  0.00    -0.257 NA 
HETATM   31  C   UNL     1     -11.328  13.884  69.266  1.00  0.00    -0.272 C  
HETATM   32  C   UNL     1     -13.187  14.653  70.849  1.00  0.00    -0.337 C  
HETATM   33  C   UNL     1     -11.522  14.764  67.926  1.00  0.00    -0.361 C  
HETATM   34  C   UNL     1     -10.959  14.100  66.664  1.00  0.00    -0.303 A  
HETATM   35  C   UNL     1     -11.160  14.197  65.306  1.00  0.00    -0.331 A  
HETATM   36 BR   UNL     1     -12.274  15.416  64.441  1.00  0.00     0.020 Br 
HETATM   37  N   UNL     1     -10.487  13.178  64.667  1.00  0.00    -0.380 NA 
HETATM   38  C   UNL     1      -9.831  12.382  65.581  1.00  0.00    -0.222 A  
HETATM   39  H   UNL     1     -10.477  13.033  63.658  1.00  0.00     0.000 HD 
HETATM   40  C   UNL     1      -9.190  11.134  65.502  1.00  0.00    -0.236 A  
HETATM   41  C   UNL     1      -8.698  10.574  66.700  1.00  0.00    -0.138 A  
HETATM   42  C   UNL     1      -8.918  11.187  67.925  1.00  0.00    -0.143 A  
HETATM   43  C   UNL     1      -9.731  12.317  67.948  1.00  0.00    -0.202 A  
HETATM   44  C   UNL     1     -10.065  13.003  66.789  1.00  0.00    -0.247 A  
HETATM   45  C   UNL     1     -10.793  12.496  68.919  1.00  0.00    -0.238 C  
HETATM   46  C   UNL     1     -11.722  11.505  68.860  1.00  0.00    -0.403 C  
ENDBRANCH  27  28
ENDBRANCH  14  24
TORSDOF 3
ENDMDL
MODEL       20
REMARK 921   NORMALIZED FREE ENERGY PREDICTED BY IDOCK:   -6.90 KCAL/MOL
REMARK 922        TOTAL FREE ENERGY PREDICTED BY IDOCK:   -7.65 KCAL/MOL
REMARK 923 INTER-LIGAND FREE ENERGY PREDICTED BY IDOCK:   -8.57 KCAL/MOL
REMARK 924 INTRA-LIGAND FREE ENERGY PREDICTED BY IDOCK:    0.92 KCAL/MOL
REMARK 927      BINDING AFFINITY PREDICTED BY RF-SCORE:    0.00 PKD
ROOT
HETATM    1  C   UNL     1     -10.481  12.681  65.816  1.00  0.00    -0.277 C  
HETATM    2  C   UNL     1     -11.274  11.989  64.710  1.00  0.00    -0.373 C  
HETATM    3  C   UNL     1     -12.353  13.049  64.335  1.00  0.00    -0.442 C  
HETATM    4  C   UNL     1     -12.277  14.135  65.408  1.00  0.00    -0.433 C  
HETATM    5  N   UNL     1     -11.432  13.579  66.433  1.00  0.00    -0.320 N  
HETATM    6  C   UNL     1     -10.988  14.418  67.424  1.00  0.00    -0.299 C  
HETATM    7  O   UNL     1     -11.730  15.240  67.954  1.00  0.00    -0.328 OA 
HETATM    8  C   UNL     1      -9.544  14.146  67.887  1.00  0.00    -0.223 C  
HETATM    9  N   UNL     1      -8.602  13.397  66.898  1.00  0.00    -0.154 N  
HETATM   10  C   UNL     1      -5.184  12.363  69.451  1.00  0.00    -0.066 C  
HETATM   11  C   UNL     1      -7.345  12.958  67.281  1.00  0.00    -0.070 C  
HETATM   12  C   UNL     1      -6.752  14.036  70.145  1.00  0.00     0.087 C  
HETATM   13  O   UNL     1      -6.298  13.267  66.721  1.00  0.00     0.262 OA 
HETATM   14  C   UNL     1      -7.551  11.895  68.358  1.00  0.00    -0.120 C  
HETATM   15  C   UNL     1      -9.247  12.164  66.684  1.00  0.00    -0.206 C  
HETATM   16  O   UNL     1      -8.565  11.249  65.823  1.00  0.00    -0.296 OA 
HETATM   17  H   UNL     1      -7.830  10.942  66.339  1.00  0.00     0.000 HD 
HETATM   18  C   UNL     1      -6.729  12.573  69.667  1.00  0.00     0.079 C  
HETATM   19  O   UNL     1      -9.055  11.720  68.035  1.00  0.00    -0.166 OA 
ENDROOT
BRANCH   8  20
HETATM   20  C   UNL     1      -8.969  15.391  68.469  1.00  0.00    -0.192 C  
HETATM   21  C   UNL     1      -8.174  16.439  66.338  1.00  0.00    -0.366 C  
HETATM   22  C   UNL     1      -8.915  16.654  67.654  1.00  0.00    -0.206 C  
HETATM   23  C   UNL     1      -8.157  17.643  68.545  1.00  0.00    -0.283 C  
ENDBRANCH   8  20
BRANCH  14  24
HETATM   24  N   UNL     1      -7.122  10.504  68.383  1.00  0.00    -0.076 N  
HETATM   25  H   UNL     1      -6.350  10.131  67.831  1.00  0.00     0.000 HD 
HETATM   26  O   UNL     1      -8.992  10.197  69.605  1.00  0.00    -0.202 OA 
HETATM   27  C   UNL     1      -7.893   9.750  69.250  1.00  0.00    -0.105 C  
BRANCH  27  28
HETATM   28  C   UNL     1      -7.414   8.390  69.742  1.00  0.00    -0.072 C  
HETATM   29  C   UNL     1      -6.328   8.314  70.840  1.00  0.00    -0.037 C  
HETATM   30  N   UNL     1      -6.590   7.070  71.651  1.00  0.00    -0.048 NA 
HETATM   31  C   UNL     1      -7.760   7.312  72.587  1.00  0.00    -0.087 C  
HETATM   32  C   UNL     1      -5.375   6.490  72.158  1.00  0.00    -0.032 C  
HETATM   33  C   UNL     1      -8.529   6.056  73.250  1.00  0.00    -0.117 C  
HETATM   34  C   UNL     1     -10.048   6.081  73.042  1.00  0.00    -0.195 A  
HETATM   35  C   UNL     1     -11.075   5.165  73.049  1.00  0.00    -0.314 A  
HETATM   36 BR   UNL     1     -10.936   3.356  73.473  1.00  0.00    -0.316 Br 
HETATM   37  N   UNL     1     -12.228   5.764  72.589  1.00  0.00    -0.497 NA 
HETATM   38  C   UNL     1     -11.993   7.082  72.263  1.00  0.00    -0.211 A  
HETATM   39  H   UNL     1     -13.130   5.296  72.502  1.00  0.00     0.000 HD 
HETATM   40  C   UNL     1     -12.732   8.063  71.579  1.00  0.00    -0.325 A  
HETATM   41  C   UNL     1     -12.113   9.309  71.351  1.00  0.00    -0.424 A  
HETATM   42  C   UNL     1     -10.790   9.532  71.707  1.00  0.00    -0.083 A  
HETATM   43  C   UNL     1     -10.061   8.453  72.199  1.00  0.00    -0.376 A  
HETATM   44  C   UNL     1     -10.677   7.282  72.619  1.00  0.00    -0.318 A  
HETATM   45  C   UNL     1      -8.724   8.137  71.736  1.00  0.00    -0.199 C  
HETATM   46  C   UNL     1      -8.683   7.894  70.399  1.00  0.00    -0.137 C  
ENDBRANCH  27  28
ENDBRANCH  14  24
TORSDOF 3
ENDMDL
MODEL       21
REMARK 921   NORMALIZED FREE ENERGY PREDICTED BY IDOCK:   -6.79 KCAL/MOL
REMARK 922        TOTAL FREE ENERGY PREDICTED BY IDOCK:   -7.51 KCAL/MOL
REMARK 923 INTER-LIGAND FREE ENERGY PREDICTED BY IDOCK:   -8.18 KCAL/MOL
REMARK 924 INTRA-LIGAND FREE ENERGY PREDICTED BY IDOCK:    0.67 KCAL/MOL
REMARK 927      BINDING AFFINITY PREDICTED BY RF-SCORE:    0.00 PKD
ROOT
HETATM    1  C   UNL     1      -7.944   8.168  70.716  1.00  0.00    -0.097 C  
HETATM    2  C   UNL     1      -7.564   8.147  72.194  1.00  0.00    -0.142 C  
HETATM    3  C   UNL     1      -7.142   6.666  72.427  1.00  0.00    -0.073 C  
HETATM    4  C   UNL     1      -7.557   5.899  71.172  1.00  0.00    -0.100 C  
HETATM    5  N   UNL     1      -8.388   6.819  70.439  1.00  0.00    -0.128 N  
HETATM    6  C   UNL     1      -8.720   6.494  69.147  1.00  0.00    -0.129 C  
HETATM    7  O   UNL     1      -9.055   5.356  68.834  1.00  0.00    -0.114 OA 
HETATM    8  C   UNL     1      -8.761   7.693  68.181  1.00  0.00    -0.122 C  
HETATM    9  N   UNL     1      -7.943   8.960  68.573  1.00  0.00    -0.103 N  
HETATM   10  C   UNL     1      -9.435  11.962  65.740  1.00  0.00    -0.210 C  
HETATM   11  C   UNL     1      -8.048  10.144  67.862  1.00  0.00    -0.109 C  
HETATM   12  C   UNL     1      -9.810   9.630  65.342  1.00  0.00    -0.322 C  
HETATM   13  O   UNL     1      -7.104  10.729  67.340  1.00  0.00    -0.086 OA 
HETATM   14  C   UNL     1      -9.478  10.648  68.038  1.00  0.00    -0.158 C  
HETATM   15  C   UNL     1      -8.499   9.354  69.805  1.00  0.00    -0.165 C  
HETATM   16  O   UNL     1      -7.944  10.537  70.385  1.00  0.00    -0.364 OA 
HETATM   17  H   UNL     1      -8.274  11.244  69.843  1.00  0.00     0.000 HD 
HETATM   18  C   UNL     1     -10.027  10.684  66.442  1.00  0.00    -0.273 C  
HETATM   19  O   UNL     1      -9.767   9.702  69.231  1.00  0.00    -0.168 OA 
ENDROOT
BRANCH   8  20
HETATM   20  C   UNL     1      -8.532   7.214  66.790  1.00  0.00    -0.121 C  
HETATM   21  C   UNL     1      -6.028   7.241  66.816  1.00  0.00    -0.035 C  
HETATM   22  C   UNL     1      -7.281   6.453  66.445  1.00  0.00    -0.073 C  
HETATM   23  C   UNL     1      -7.366   6.258  64.928  1.00  0.00    -0.075 C  
ENDBRANCH   8  20
BRANCH  14  24
HETATM   24  N   UNL     1      -9.957  11.910  68.581  1.00  0.00    -0.328 N  
HETATM   25  H   UNL     1      -9.377  12.741  68.701  1.00  0.00     0.000 HD 
HETATM   26  O   UNL     1     -11.818  10.729  69.054  1.00  0.00    -0.304 OA 
HETATM   27  C   UNL     1     -11.298  11.844  68.916  1.00  0.00    -0.278 C  
BRANCH  27  28
HETATM   28  C   UNL     1     -12.114  13.114  69.130  1.00  0.00    -0.261 C  
HETATM   29  C   UNL     1     -12.449  13.573  70.568  1.00  0.00    -0.302 C  
HETATM   30  N   UNL     1     -12.517  15.079  70.557  1.00  0.00    -0.349 NA 
HETATM   31  C   UNL     1     -11.112  15.651  70.521  1.00  0.00    -0.355 C  
HETATM   32  C   UNL     1     -13.472  15.583  71.510  1.00  0.00    -0.494 C  
HETATM   33  C   UNL     1     -10.883  17.186  70.076  1.00  0.00     0.395 C  
HETATM   34  C   UNL     1      -9.851  17.357  68.955  1.00  0.00    -0.286 A  
HETATM   35  C   UNL     1      -9.558  18.302  67.999  1.00  0.00    -0.304 A  
HETATM   36 BR   UNL     1     -10.382  19.962  67.801  1.00  0.00    -0.519 Br 
HETATM   37  N   UNL     1      -8.619  17.798  67.126  1.00  0.00    -0.228 NA 
HETATM   38  C   UNL     1      -8.272  16.511  67.476  1.00  0.00    -0.154 A  
HETATM   39  H   UNL     1      -8.235  18.306  66.330  1.00  0.00     0.000 HD 
HETATM   40  C   UNL     1      -7.546  15.491  66.839  1.00  0.00    -0.162 A  
HETATM   41  C   UNL     1      -7.473  14.238  67.484  1.00  0.00    -0.201 A  
HETATM   42  C   UNL     1      -8.168  13.992  68.660  1.00  0.00    -0.103 A  
HETATM   43  C   UNL     1      -9.024  14.985  69.127  1.00  0.00    -0.186 A  
HETATM   44  C   UNL     1      -8.975  16.284  68.640  1.00  0.00    -0.232 A  
HETATM   45  C   UNL     1     -10.375  14.706  69.573  1.00  0.00    -0.080 C  
HETATM   46  C   UNL     1     -11.136  14.138  68.600  1.00  0.00    -0.283 C  
ENDBRANCH  27  28
ENDBRANCH  14  24
TORSDOF 3
ENDMDL
MODEL       22
REMARK 921   NORMALIZED FREE ENERGY PREDICTED BY IDOCK:   -6.74 KCAL/MOL
REMARK 922        TOTAL FREE ENERGY PREDICTED BY IDOCK:   -7.46 KCAL/MOL
REMARK 923 INTER-LIGAND FREE ENERGY PREDICTED BY IDOCK:   -8.37 KCAL/MOL
REMARK 924 INTRA-LIGAND FREE ENERGY PREDICTED BY IDOCK:    0.91 KCAL/MOL
REMARK 927      BINDING AFFINITY PREDICTED BY RF-SCORE:    0.00 PKD
ROOT
HETATM    1  C   UNL     1      -8.642   7.498  66.581  1.00  0.00    -0.130 C  
HETATM    2  C   UNL     1      -8.657   7.485  65.055  1.00  0.00     0.067 C  
HETATM    3  C   UNL     1      -7.385   6.659  64.698  1.00  0.00    -0.085 C  
HETATM    4  C   UNL     1      -6.603   6.493  66.000  1.00  0.00    -0.048 C  
HETATM    5  N   UNL     1      -7.241   7.389  66.928  1.00  0.00    -0.086 N  
HETATM    6  C   UNL     1      -6.905   7.287  68.254  1.00  0.00    -0.070 C  
HETATM    7  O   UNL     1      -5.741   7.141  68.615  1.00  0.00    -0.020 OA 
HETATM    8  C   UNL     1      -8.080   7.502  69.227  1.00  0.00    -0.126 C  
HETATM    9  N   UNL     1      -9.519   7.267  68.678  1.00  0.00    -0.138 N  
HETATM   10  C   UNL     1     -12.030   8.979  71.844  1.00  0.00    -0.445 C  
HETATM   11  C   UNL     1     -10.643   7.595  69.417  1.00  0.00    -0.215 C  
HETATM   12  C   UNL     1      -9.733   8.452  72.272  1.00  0.00    -0.386 C  
HETATM   13  O   UNL     1     -11.537   6.807  69.711  1.00  0.00    -0.298 OA 
HETATM   14  C   UNL     1     -10.637   9.111  69.596  1.00  0.00    -0.228 C  
HETATM   15  C   UNL     1      -9.633   8.191  67.621  1.00  0.00    -0.152 C  
HETATM   16  O   UNL     1     -10.894   8.212  66.949  1.00  0.00    -0.375 OA 
HETATM   17  H   UNL     1     -11.485   8.625  67.569  1.00  0.00     0.000 HD 
HETATM   18  C   UNL     1     -10.589   9.256  71.276  1.00  0.00    -0.417 C  
HETATM   19  O   UNL     1      -9.578   9.334  68.487  1.00  0.00    -0.145 OA 
ENDROOT
BRANCH   8  20
HETATM   20  C   UNL     1      -7.788   6.812  70.514  1.00  0.00    -0.105 C  
HETATM   21  C   UNL     1      -8.817   4.596  69.965  1.00  0.00    -0.125 C  
HETATM   22  C   UNL     1      -7.608   5.319  70.551  1.00  0.00    -0.072 C  
HETATM   23  C   UNL     1      -7.455   4.996  72.040  1.00  0.00    -0.091 C  
ENDBRANCH   8  20
BRANCH  14  24
HETATM   24  N   UNL     1     -11.637  10.095  69.208  1.00  0.00    -0.462 N  
HETATM   25  H   UNL     1     -12.601   9.868  68.962  1.00  0.00     0.000 HD 
HETATM   26  O   UNL     1      -9.886  11.516  69.188  1.00  0.00    -0.061 OA 
HETATM   27  C   UNL     1     -11.117  11.377  69.212  1.00  0.00    -0.254 C  
BRANCH  27  28
HETATM   28  C   UNL     1     -12.035  12.594  69.226  1.00  0.00    -0.301 C  
HETATM   29  C   UNL     1     -12.481  13.199  70.577  1.00  0.00    -0.248 C  
HETATM   30  N   UNL     1     -12.659  14.682  70.370  1.00  0.00    -0.349 NA 
HETATM   31  C   UNL     1     -11.300  15.356  70.325  1.00  0.00    -0.311 C  
HETATM   32  C   UNL     1     -13.699  15.222  71.207  1.00  0.00    -0.490 C  
HETATM   33  C   UNL     1     -11.161  16.837  69.699  1.00  0.00    -0.036 C  
HETATM   34  C   UNL     1     -10.084  16.950  68.613  1.00  0.00    -0.291 A  
HETATM   35  C   UNL     1      -9.810  17.790  67.558  1.00  0.00    -0.304 A  
HETATM   36 BR   UNL     1     -10.742  19.342  67.113  1.00  0.00    -0.554 Br 
HETATM   37  N   UNL     1      -8.789  17.258  66.800  1.00  0.00    -0.237 NA 
HETATM   38  C   UNL     1      -8.368  16.057  67.327  1.00  0.00    -0.181 A  
HETATM   39  H   UNL     1      -8.400  17.694  65.964  1.00  0.00     0.000 HD 
HETATM   40  C   UNL     1      -7.535  15.027  66.859  1.00  0.00     0.162 A  
HETATM   41  C   UNL     1      -7.405  13.874  67.662  1.00  0.00    -0.186 A  
HETATM   42  C   UNL     1      -8.144  13.721  68.826  1.00  0.00    -0.022 A  
HETATM   43  C   UNL     1      -9.096  14.692  69.123  1.00  0.00    -0.030 A  
HETATM   44  C   UNL     1      -9.115  15.920  68.477  1.00  0.00    -0.200 A  
HETATM   45  C   UNL     1     -10.445  14.363  69.540  1.00  0.00    -0.028 C  
HETATM   46  C   UNL     1     -11.107  13.620  68.613  1.00  0.00    -0.299 C  
ENDBRANCH  27  28
ENDBRANCH  14  24
TORSDOF 3
ENDMDL
MODEL       23
REMARK 921   NORMALIZED FREE ENERGY PREDICTED BY IDOCK:   -6.71 KCAL/MOL
REMARK 922        TOTAL FREE ENERGY PREDICTED BY IDOCK:   -7.42 KCAL/MOL
REMARK 923 INTER-LIGAND FREE ENERGY PREDICTED BY IDOCK:   -7.17 KCAL/MOL
REMARK 924 INTRA-LIGAND FREE ENERGY PREDICTED BY IDOCK:   -0.25 KCAL/MOL
REMARK 927      BINDING AFFINITY PREDICTED BY RF-SCORE:    0.00 PKD
ROOT
HETATM    1  C   UNL     1     -10.620  12.411  66.463  1.00  0.00    -0.235 C  
HETATM    2  C   UNL     1     -11.610  11.761  65.500  1.00  0.00    -0.192 C  
HETATM    3  C   UNL     1     -12.532  12.947  65.089  1.00  0.00    -0.561 C  
HETATM    4  C   UNL     1     -12.187  14.103  66.027  1.00  0.00    -0.443 C  
HETATM    5  N   UNL     1     -11.355  13.514  67.044  1.00  0.00    -0.312 N  
HETATM    6  C   UNL     1     -10.694  14.358  67.901  1.00  0.00    -0.244 C  
HETATM    7  O   UNL     1     -11.243  15.341  68.389  1.00  0.00    -0.278 OA 
HETATM    8  C   UNL     1      -9.278  13.890  68.287  1.00  0.00    -0.207 C  
HETATM    9  N   UNL     1      -8.560  12.900  67.322  1.00  0.00    -0.198 N  
HETATM   10  C   UNL     1      -5.141  11.553  69.721  1.00  0.00    -0.058 C  
HETATM   11  C   UNL     1      -7.362  12.293  67.660  1.00  0.00    -0.127 C  
HETATM   12  C   UNL     1      -6.349  13.528  70.337  1.00  0.00     0.061 C  
HETATM   13  O   UNL     1      -6.333  12.364  66.995  1.00  0.00    -0.149 OA 
HETATM   14  C   UNL     1      -7.639  11.390  68.860  1.00  0.00    -0.114 C  
HETATM   15  C   UNL     1      -9.413  11.779  67.292  1.00  0.00    -0.170 C  
HETATM   16  O   UNL     1      -8.967  10.683  66.490  1.00  0.00    -0.151 OA 
HETATM   17  H   UNL     1      -8.248  10.307  66.984  1.00  0.00     0.000 HD 
HETATM   18  C   UNL     1      -6.606  12.042  70.023  1.00  0.00     0.132 C  
HETATM   19  O   UNL     1      -9.176  11.442  68.666  1.00  0.00    -0.183 OA 
ENDROOT
BRANCH   8  20
HETATM   20  C   UNL     1      -8.460  15.070  68.685  1.00  0.00    -0.168 C  
HETATM   21  C   UNL     1      -8.173  16.080  66.411  1.00  0.00    -0.309 C  
HETATM   22  C   UNL     1      -8.513  16.337  67.876  1.00  0.00    -0.166 C  
HETATM   23  C   UNL     1      -7.460  17.240  68.524  1.00  0.00    -0.241 C  
ENDBRANCH   8  20
BRANCH  14  24
HETATM   24  N   UNL     1      -7.441   9.956  69.007  1.00  0.00    -0.078 N  
HETATM   25  H   UNL     1      -7.005   9.361  68.302  1.00  0.00     0.000 HD 
HETATM   26  O   UNL     1      -8.714  10.209  70.850  1.00  0.00     0.368 OA 
HETATM   27  C   UNL     1      -7.916   9.499  70.224  1.00  0.00    -0.175 C  
BRANCH  27  28
HETATM   28  C   UNL     1      -7.484   8.144  70.774  1.00  0.00    -0.066 C  
HETATM   29  C   UNL     1      -8.025   7.668  72.142  1.00  0.00    -0.105 C  
HETATM   30  N   UNL     1      -8.124   6.164  72.089  1.00  0.00    -0.109 NA 
HETATM   31  C   UNL     1      -9.343   5.764  71.278  1.00  0.00    -0.146 C  
HETATM   32  C   UNL     1      -7.890   5.563  73.376  1.00  0.00    -0.107 C  
HETATM   33  C   UNL     1      -9.462   4.261  70.699  1.00  0.00    -0.241 C  
HETATM   34  C   UNL     1      -9.743   4.200  69.193  1.00  0.00    -0.205 A  
HETATM   35  C   UNL     1      -9.577   3.283  68.180  1.00  0.00    -0.084 A  
HETATM   36 BR   UNL     1      -8.960   1.534  68.365  1.00  0.00    -0.180 Br 
HETATM   37  N   UNL     1      -9.841   3.885  66.968  1.00  0.00    -0.305 NA 
HETATM   38  C   UNL     1     -10.180   5.208  67.147  1.00  0.00    -0.208 A  
HETATM   39  H   UNL     1      -9.791   3.415  66.064  1.00  0.00     0.000 HD 
HETATM   40  C   UNL     1     -10.337   6.299  66.276  1.00  0.00     0.043 A  
HETATM   41  C   UNL     1     -10.609   7.560  66.847  1.00  0.00    -0.367 A  
HETATM   42  C   UNL     1     -10.631   7.737  68.223  1.00  0.00    -0.169 A  
HETATM   43  C   UNL     1     -10.271   6.655  69.022  1.00  0.00    -0.196 A  
HETATM   44  C   UNL     1     -10.192   5.365  68.516  1.00  0.00    -0.237 A  
HETATM   45  C   UNL     1      -9.349   6.777  70.135  1.00  0.00    -0.159 C  
HETATM   46  C   UNL     1      -8.129   7.237  69.750  1.00  0.00    -0.128 C  
ENDBRANCH  27  28
ENDBRANCH  14  24
TORSDOF 3
ENDMDL
MODEL       24
REMARK 921   NORMALIZED FREE ENERGY PREDICTED BY IDOCK:   -6.70 KCAL/MOL
REMARK 922        TOTAL FREE ENERGY PREDICTED BY IDOCK:   -7.41 KCAL/MOL
REMARK 923 INTER-LIGAND FREE ENERGY PREDICTED BY IDOCK:   -7.16 KCAL/MOL
REMARK 924 INTRA-LIGAND FREE ENERGY PREDICTED BY IDOCK:   -0.25 KCAL/MOL
REMARK 927      BINDING AFFINITY PREDICTED BY RF-SCORE:    0.00 PKD
ROOT
HETATM    1  C   UNL     1      -6.945  16.952  69.187  1.00  0.00    -0.234 C  
HETATM    2  C   UNL     1      -5.892  16.972  70.291  1.00  0.00    -0.112 C  
HETATM    3  C   UNL     1      -5.147  18.318  70.043  1.00  0.00    -0.207 C  
HETATM    4  C   UNL     1      -5.633  18.832  68.689  1.00  0.00    -0.198 C  
HETATM    5  N   UNL     1      -6.359  17.729  68.117  1.00  0.00    -0.178 N  
HETATM    6  C   UNL     1      -7.116  17.970  66.997  1.00  0.00    -0.195 C  
HETATM    7  O   UNL     1      -6.698  18.663  66.074  1.00  0.00    -0.214 OA 
HETATM    8  C   UNL     1      -8.448  17.198  66.951  1.00  0.00    -0.222 C  
HETATM    9  N   UNL     1      -9.038  16.704  68.306  1.00  0.00    -0.211 N  
HETATM   10  C   UNL     1     -12.202  13.951  67.010  1.00  0.00    -0.392 C  
HETATM   11  C   UNL     1     -10.136  15.861  68.358  1.00  0.00    -0.223 C  
HETATM   12  C   UNL     1     -11.265  15.531  65.471  1.00  0.00    -0.188 C  
HETATM   13  O   UNL     1     -11.176  16.108  68.962  1.00  0.00    -0.317 OA 
HETATM   14  C   UNL     1      -9.719  14.540  67.717  1.00  0.00    -0.216 C  
HETATM   15  C   UNL     1      -8.041  15.853  68.820  1.00  0.00    -0.190 C  
HETATM   16  O   UNL     1      -8.345  15.224  70.067  1.00  0.00    -0.289 OA 
HETATM   17  H   UNL     1      -8.998  14.569  69.849  1.00  0.00     0.000 HD 
HETATM   18  C   UNL     1     -10.813  14.421  66.438  1.00  0.00    -0.314 C  
HETATM   19  O   UNL     1      -8.208  14.874  67.784  1.00  0.00    -0.138 OA 
ENDROOT
BRANCH   8  20
HETATM   20  C   UNL     1      -9.413  17.929  66.085  1.00  0.00    -0.169 C  
HETATM   21  C   UNL     1     -10.351  19.467  67.825  1.00  0.00    -0.575 C  
HETATM   22  C   UNL     1      -9.798  19.347  66.407  1.00  0.00    -0.476 C  
HETATM   23  C   UNL     1     -10.880  19.686  65.377  1.00  0.00    -0.109 C  
ENDBRANCH   8  20
BRANCH  14  24
HETATM   24  N   UNL     1      -9.717  13.197  68.277  1.00  0.00    -0.226 N  
HETATM   25  H   UNL     1     -10.111  12.953  69.186  1.00  0.00     0.000 HD 
HETATM   26  O   UNL     1      -8.380  12.724  66.525  1.00  0.00     0.031 OA 
HETATM   27  C   UNL     1      -9.113  12.291  67.423  1.00  0.00    -0.184 C  
BRANCH  27  28
HETATM   28  C   UNL     1      -9.327  10.791  67.595  1.00  0.00    -0.156 C  
HETATM   29  C   UNL     1      -9.022   9.836  66.418  1.00  0.00    -0.151 C  
HETATM   30  N   UNL     1      -8.561   8.527  67.007  1.00  0.00    -0.120 NA 
HETATM   31  C   UNL     1      -7.128   8.664  67.488  1.00  0.00    -0.080 C  
HETATM   32  C   UNL     1      -8.938   7.404  66.188  1.00  0.00    -0.149 C  
HETATM   33  C   UNL     1      -6.527   7.585  68.529  1.00  0.00    -0.045 C  
HETATM   34  C   UNL     1      -5.897   8.216  69.777  1.00  0.00    -0.026 A  
HETATM   35  C   UNL     1      -5.602   7.816  71.060  1.00  0.00    -0.030 A  
HETATM   36 BR   UNL     1      -5.814   6.101  71.757  1.00  0.00    -0.032 Br 
HETATM   37  N   UNL     1      -5.214   8.909  71.805  1.00  0.00    -0.039 NA 
HETATM   38  C   UNL     1      -5.248  10.055  71.039  1.00  0.00    -0.067 A  
HETATM   39  H   UNL     1      -4.941   8.875  72.786  1.00  0.00     0.000 HD 
HETATM   40  C   UNL     1      -5.156  11.426  71.333  1.00  0.00    -0.063 A  
HETATM   41  C   UNL     1      -5.330  12.337  70.270  1.00  0.00    -0.120 A  
HETATM   42  C   UNL     1      -5.671  11.901  68.997  1.00  0.00    -0.053 A  
HETATM   43  C   UNL     1      -5.940  10.546  68.825  1.00  0.00    -0.040 A  
HETATM   44  C   UNL     1      -5.592   9.603  69.783  1.00  0.00    -0.033 A  
HETATM   45  C   UNL     1      -7.096  10.065  68.095  1.00  0.00    -0.080 C  
HETATM   46  C   UNL     1      -8.267  10.499  68.633  1.00  0.00    -0.130 C  
ENDBRANCH  27  28
ENDBRANCH  14  24
TORSDOF 3
ENDMDL
MODEL       25
REMARK 921   NORMALIZED FREE ENERGY PREDICTED BY IDOCK:   -6.70 KCAL/MOL
REMARK 922        TOTAL FREE ENERGY PREDICTED BY IDOCK:   -7.40 KCAL/MOL
REMARK 923 INTER-LIGAND FREE ENERGY PREDICTED BY IDOCK:   -7.86 KCAL/MOL
REMARK 924 INTRA-LIGAND FREE ENERGY PREDICTED BY IDOCK:    0.45 KCAL/MOL
REMARK 927      BINDING AFFINITY PREDICTED BY RF-SCORE:    0.00 PKD
ROOT
HETATM    1  C   UNL     1     -10.954   8.911  70.380  1.00  0.00    -0.244 C  
HETATM    2  C   UNL     1     -11.815   9.515  71.486  1.00  0.00    -0.478 C  
HETATM    3  C   UNL     1     -12.297   8.264  72.280  1.00  0.00    -0.410 C  
HETATM    4  C   UNL     1     -11.913   7.048  71.437  1.00  0.00    -0.340 C  
HETATM    5  N   UNL     1     -11.514   7.594  70.166  1.00  0.00    -0.140 N  
HETATM    6  C   UNL     1     -10.891   6.758  69.275  1.00  0.00    -0.264 C  
HETATM    7  O   UNL     1     -11.284   5.611  69.083  1.00  0.00    -0.174 OA 
HETATM    8  C   UNL     1      -9.763   7.422  68.462  1.00  0.00    -0.151 C  
HETATM    9  N   UNL     1      -9.100   8.697  69.062  1.00  0.00    -0.145 N  
HETATM   10  C   UNL     1      -6.778  10.239  65.672  1.00  0.00    -0.122 C  
HETATM   11  C   UNL     1      -8.201   9.461  68.336  1.00  0.00    -0.117 C  
HETATM   12  C   UNL     1      -7.581   7.982  65.663  1.00  0.00    -0.084 C  
HETATM   13  O   UNL     1      -7.058   9.723  68.699  1.00  0.00    -0.069 OA 
HETATM   14  C   UNL     1      -8.964  10.051  67.154  1.00  0.00    -0.135 C  
HETATM   15  C   UNL     1     -10.167   9.609  69.181  1.00  0.00    -0.202 C  
HETATM   16  O   UNL     1      -9.825  10.902  69.686  1.00  0.00    -0.434 OA 
HETATM   17  H   UNL     1      -9.356  11.318  68.972  1.00  0.00     0.000 HD 
HETATM   18  C   UNL     1      -8.109   9.417  65.844  1.00  0.00    -0.114 C  
HETATM   19  O   UNL     1     -10.351   9.727  67.763  1.00  0.00    -0.195 OA 
ENDROOT
BRANCH   8  20
HETATM   20  C   UNL     1      -8.801   6.379  68.009  1.00  0.00    -0.113 C  
HETATM   21  C   UNL     1      -7.374   6.300  70.065  1.00  0.00    -0.082 C  
HETATM   22  C   UNL     1      -8.121   5.487  69.011  1.00  0.00    -0.095 C  
HETATM   23  C   UNL     1      -7.140   4.661  68.174  1.00  0.00    -0.061 C  
ENDBRANCH   8  20
BRANCH  14  24
HETATM   24  N   UNL     1      -9.161  11.443  66.777  1.00  0.00    -0.171 N  
HETATM   25  H   UNL     1      -8.629  12.223  67.164  1.00  0.00     0.000 HD 
HETATM   26  O   UNL     1     -10.960  10.646  65.678  1.00  0.00    -0.011 OA 
HETATM   27  C   UNL     1     -10.160  11.578  65.829  1.00  0.00    -0.237 C  
BRANCH  27  28
HETATM   28  C   UNL     1     -10.286  12.852  65.002  1.00  0.00    -0.334 C  
HETATM   29  C   UNL     1     -11.533  13.751  65.170  1.00  0.00    -0.321 C  
HETATM   30  N   UNL     1     -11.101  15.174  64.920  1.00  0.00    -0.410 NA 
HETATM   31  C   UNL     1     -10.351  15.698  66.131  1.00  0.00    -0.316 C  
HETATM   32  C   UNL     1     -12.153  15.962  64.333  1.00  0.00     0.084 C  
HETATM   33  C   UNL     1      -9.416  17.007  65.989  1.00  0.00    -0.195 C  
HETATM   34  C   UNL     1      -7.986  16.803  66.503  1.00  0.00    -0.334 A  
HETATM   35  C   UNL     1      -6.757  17.389  66.303  1.00  0.00    -0.260 A  
HETATM   36 BR   UNL     1      -6.411  18.901  65.269  1.00  0.00    -0.251 Br 
HETATM   37  N   UNL     1      -5.780  16.627  66.906  1.00  0.00    -0.302 NA 
HETATM   38  C   UNL     1      -6.334  15.520  67.512  1.00  0.00    -0.134 A  
HETATM   39  H   UNL     1      -4.785  16.850  66.903  1.00  0.00     0.000 HD 
HETATM   40  C   UNL     1      -5.800  14.346  68.070  1.00  0.00    -0.149 A  
HETATM   41  C   UNL     1      -6.707  13.368  68.529  1.00  0.00    -0.096 A  
HETATM   42  C   UNL     1      -8.075  13.516  68.354  1.00  0.00    -0.145 A  
HETATM   43  C   UNL     1      -8.520  14.610  67.617  1.00  0.00    -0.187 A  
HETATM   44  C   UNL     1      -7.689  15.683  67.325  1.00  0.00    -0.239 A  
HETATM   45  C   UNL     1      -9.519  14.495  66.573  1.00  0.00    -0.310 C  
HETATM   46  C   UNL     1      -9.137  13.647  65.581  1.00  0.00     0.627 C  
ENDBRANCH  27  28
ENDBRANCH  14  24
TORSDOF 3
ENDMDL
MODEL       26
REMARK 921   NORMALIZED FREE ENERGY PREDICTED BY IDOCK:   -6.67 KCAL/MOL
REMARK 922        TOTAL FREE ENERGY PREDICTED BY IDOCK:   -7.37 KCAL/MOL
REMARK 923 INTER-LIGAND FREE ENERGY PREDICTED BY IDOCK:   -6.88 KCAL/MOL
REMARK 924 INTRA-LIGAND FREE ENERGY PREDICTED BY IDOCK:   -0.49 KCAL/MOL
REMARK 927      BINDING AFFINITY PREDICTED BY RF-SCORE:    0.00 PKD
ROOT
HETATM    1  C   UNL     1      -9.470   7.510  70.356  1.00  0.00    -0.161 C  
HETATM    2  C   UNL     1      -9.819   7.083  71.779  1.00  0.00    -0.169 C  
HETATM    3  C   UNL     1     -10.597   5.750  71.565  1.00  0.00    -0.304 C  
HETATM    4  C   UNL     1     -10.868   5.649  70.064  1.00  0.00    -0.296 C  
HETATM    5  N   UNL     1     -10.524   6.945  69.541  1.00  0.00    -0.213 N  
HETATM    6  C   UNL     1     -10.440   7.086  68.179  1.00  0.00    -0.201 C  
HETATM    7  O   UNL     1     -11.273   6.589  67.427  1.00  0.00    -0.359 OA 
HETATM    8  C   UNL     1      -9.309   8.018  67.704  1.00  0.00    -0.143 C  
HETATM    9  N   UNL     1      -8.110   8.243  68.673  1.00  0.00    -0.118 N  
HETATM   10  C   UNL     1      -6.018  11.626  66.818  1.00  0.00    -0.137 C  
HETATM   11  C   UNL     1      -7.131   9.187  68.413  1.00  0.00    -0.073 C  
HETATM   12  C   UNL     1      -7.617  10.356  65.564  1.00  0.00    -0.144 C  
HETATM   13  O   UNL     1      -5.930   8.942  68.336  1.00  0.00    -0.044 OA 
HETATM   14  C   UNL     1      -7.805  10.556  68.452  1.00  0.00    -0.110 C  
HETATM   15  C   UNL     1      -8.703   8.802  69.821  1.00  0.00    -0.133 C  
HETATM   16  O   UNL     1      -7.804   9.145  70.879  1.00  0.00    -0.129 OA 
HETATM   17  H   UNL     1      -7.347   9.914  70.560  1.00  0.00     0.000 HD 
HETATM   18  C   UNL     1      -7.509  11.127  66.892  1.00  0.00    -0.138 C  
HETATM   19  O   UNL     1      -9.077  10.016  69.153  1.00  0.00    -0.161 OA 
ENDROOT
BRANCH   8  20
HETATM   20  C   UNL     1      -8.921   7.654  66.313  1.00  0.00    -0.203 C  
HETATM   21  C   UNL     1      -7.335   5.797  66.865  1.00  0.00    -0.079 C  
HETATM   22  C   UNL     1      -8.498   6.248  65.986  1.00  0.00    -0.143 C  
HETATM   23  C   UNL     1      -8.069   6.317  64.517  1.00  0.00    -0.102 C  
ENDBRANCH   8  20
BRANCH  14  24
HETATM   24  N   UNL     1      -7.513  11.711  69.289  1.00  0.00    -0.330 N  
HETATM   25  H   UNL     1      -6.745  11.754  69.960  1.00  0.00     0.000 HD 
HETATM   26  O   UNL     1      -9.478  12.482  68.499  1.00  0.00    -0.187 OA 
HETATM   27  C   UNL     1      -8.406  12.743  69.062  1.00  0.00     0.435 C  
BRANCH  27  28
HETATM   28  C   UNL     1      -8.090  14.164  69.511  1.00  0.00     0.458 C  
HETATM   29  C   UNL     1      -6.632  14.676  69.458  1.00  0.00    -0.149 C  
HETATM   30  N   UNL     1      -6.682  16.156  69.180  1.00  0.00    -0.177 NA 
HETATM   31  C   UNL     1      -6.993  16.387  67.713  1.00  0.00    -0.138 C  
HETATM   32  C   UNL     1      -5.589  16.859  69.800  1.00  0.00    -0.198 C  
HETATM   33  C   UNL     1      -7.525  17.832  67.225  1.00  0.00    -0.214 C  
HETATM   34  C   UNL     1      -8.821  17.769  66.408  1.00  0.00    -0.256 A  
HETATM   35  C   UNL     1      -9.847  18.630  66.088  1.00  0.00    -0.287 A  
HETATM   36 BR   UNL     1      -9.947  20.437  66.532  1.00  0.00    -0.334 Br 
HETATM   37  N   UNL     1     -10.859  17.929  65.469  1.00  0.00    -0.410 NA 
HETATM   38  C   UNL     1     -10.534  16.594  65.367  1.00  0.00    -0.233 A  
HETATM   39  H   UNL     1     -11.728  18.342  65.132  1.00  0.00     0.000 HD 
HETATM   40  C   UNL     1     -11.257  15.439  65.025  1.00  0.00    -0.393 A  
HETATM   41  C   UNL     1     -10.593  14.198  65.123  1.00  0.00    -0.414 A  
HETATM   42  C   UNL     1      -9.303  14.109  65.626  1.00  0.00     0.166 A  
HETATM   43  C   UNL     1      -8.722  15.269  66.130  1.00  0.00    -0.060 A  
HETATM   44  C   UNL     1      -9.254  16.525  65.875  1.00  0.00    -0.209 A  
HETATM   45  C   UNL     1      -8.027  15.306  67.402  1.00  0.00    -0.211 C  
HETATM   46  C   UNL     1      -8.825  14.939  68.440  1.00  0.00    -0.178 C  
ENDBRANCH  27  28
ENDBRANCH  14  24
TORSDOF 3
ENDMDL
MODEL       27
REMARK 921   NORMALIZED FREE ENERGY PREDICTED BY IDOCK:   -6.64 KCAL/MOL
REMARK 922        TOTAL FREE ENERGY PREDICTED BY IDOCK:   -7.34 KCAL/MOL
REMARK 923 INTER-LIGAND FREE ENERGY PREDICTED BY IDOCK:   -9.47 KCAL/MOL
REMARK 924 INTRA-LIGAND FREE ENERGY PREDICTED BY IDOCK:    2.13 KCAL/MOL
REMARK 927      BINDING AFFINITY PREDICTED BY RF-SCORE:    0.00 PKD
ROOT
HETATM    1  C   UNL     1      -7.016   6.536  70.104  1.00  0.00    -0.063 C  
HETATM    2  C   UNL     1      -5.755   6.335  69.266  1.00  0.00    -0.020 C  
HETATM    3  C   UNL     1      -5.149   5.025  69.852  1.00  0.00     0.000 C  
HETATM    4  C   UNL     1      -5.935   4.722  71.127  1.00  0.00    -0.017 C  
HETATM    5  N   UNL     1      -6.709   5.911  71.372  1.00  0.00    -0.056 N  
HETATM    6  C   UNL     1      -7.695   5.850  72.324  1.00  0.00    -0.102 C  
HETATM    7  O   UNL     1      -7.518   5.290  73.402  1.00  0.00    -0.093 OA 
HETATM    8  C   UNL     1      -8.966   6.647  71.974  1.00  0.00    -0.139 C  
HETATM    9  N   UNL     1      -9.232   6.951  70.470  1.00  0.00    -0.156 N  
HETATM   10  C   UNL     1     -12.454   9.925  70.661  1.00  0.00    -0.268 C  
HETATM   11  C   UNL     1     -10.250   7.799  70.067  1.00  0.00    -0.210 C  
HETATM   12  C   UNL     1     -11.945   8.567  72.568  1.00  0.00    -0.401 C  
HETATM   13  O   UNL     1     -11.151   7.487  69.293  1.00  0.00    -0.105 OA 
HETATM   14  C   UNL     1      -9.911   9.190  70.595  1.00  0.00    -0.248 C  
HETATM   15  C   UNL     1      -8.107   7.698  70.071  1.00  0.00    -0.120 C  
HETATM   16  O   UNL     1      -8.110   8.146  68.714  1.00  0.00    -0.116 OA 
HETATM   17  H   UNL     1      -8.760   8.838  68.694  1.00  0.00     0.000 HD 
HETATM   18  C   UNL     1     -11.243   9.516  71.579  1.00  0.00    -0.437 C  
HETATM   19  O   UNL     1      -8.439   8.820  70.903  1.00  0.00    -0.140 OA 
ENDROOT
BRANCH   8  20
HETATM   20  C   UNL     1     -10.128   6.068  72.704  1.00  0.00    -0.198 C  
HETATM   21  C   UNL     1     -10.281   3.901  71.458  1.00  0.00    -0.055 C  
HETATM   22  C   UNL     1     -10.281   4.577  72.826  1.00  0.00    -0.233 C  
HETATM   23  C   UNL     1     -11.635   4.393  73.518  1.00  0.00    -0.193 C  
ENDBRANCH   8  20
BRANCH  14  24
HETATM   24  N   UNL     1      -9.723  10.438  69.870  1.00  0.00    -0.418 N  
HETATM   25  H   UNL     1      -9.411  11.309  70.299  1.00  0.00     0.000 HD 
HETATM   26  O   UNL     1     -10.701   9.324  68.172  1.00  0.00    -0.213 OA 
HETATM   27  C   UNL     1     -10.021  10.296  68.526  1.00  0.00    -0.164 C  
BRANCH  27  28
HETATM   28  C   UNL     1      -9.541  11.321  67.506  1.00  0.00    -0.181 C  
HETATM   29  C   UNL     1     -10.212  11.385  66.114  1.00  0.00    -0.239 C  
HETATM   30  N   UNL     1     -10.161  12.820  65.654  1.00  0.00    -0.277 NA 
HETATM   31  C   UNL     1     -11.218  13.626  66.387  1.00  0.00    -0.308 C  
HETATM   32  C   UNL     1     -10.046  12.924  64.222  1.00  0.00    -0.226 C  
HETATM   33  C   UNL     1     -11.117  15.237  66.421  1.00  0.00    -0.273 C  
HETATM   34  C   UNL     1     -11.188  15.831  67.833  1.00  0.00    -0.313 A  
HETATM   35  C   UNL     1     -10.803  17.001  68.448  1.00  0.00    -0.333 A  
HETATM   36 BR   UNL     1     -10.055  18.490  67.614  1.00  0.00    -0.421 Br 
HETATM   37  N   UNL     1     -10.958  16.876  69.811  1.00  0.00    -0.371 NA 
HETATM   38  C   UNL     1     -11.442  15.626  70.132  1.00  0.00    -0.348 A  
HETATM   39  H   UNL     1     -10.744  17.607  70.489  1.00  0.00     0.000 HD 
HETATM   40  C   UNL     1     -11.583  14.916  71.337  1.00  0.00    -0.362 A  
HETATM   41  C   UNL     1     -12.046  13.586  71.263  1.00  0.00    -0.062 A  
HETATM   42  C   UNL     1     -12.267  12.968  70.041  1.00  0.00    -0.306 A  
HETATM   43  C   UNL     1     -11.917  13.665  68.888  1.00  0.00    -0.392 A  
HETATM   44  C   UNL     1     -11.650  15.027  68.909  1.00  0.00    -0.349 A  
HETATM   45  C   UNL     1     -11.167  13.059  67.805  1.00  0.00    -0.313 C  
HETATM   46  C   UNL     1      -9.955  12.594  68.209  1.00  0.00    -0.229 C  
ENDBRANCH  27  28
ENDBRANCH  14  24
TORSDOF 3
ENDMDL
MODEL       28
REMARK 921   NORMALIZED FREE ENERGY PREDICTED BY IDOCK:   -6.60 KCAL/MOL
REMARK 922        TOTAL FREE ENERGY PREDICTED BY IDOCK:   -7.30 KCAL/MOL
REMARK 923 INTER-LIGAND FREE ENERGY PREDICTED BY IDOCK:   -7.40 KCAL/MOL
REMARK 924 INTRA-LIGAND FREE ENERGY PREDICTED BY IDOCK:    0.11 KCAL/MOL
REMARK 927      BINDING AFFINITY PREDICTED BY RF-SCORE:    0.00 PKD
ROOT
HETATM    1  C   UNL     1     -10.125  13.277  65.935  1.00  0.00    -0.291 C  
HETATM    2  C   UNL     1     -10.982  12.797  64.767  1.00  0.00    -0.334 C  
HETATM    3  C   UNL     1     -11.829  14.055  64.411  1.00  0.00    -0.453 C  
HETATM    4  C   UNL     1     -11.603  15.057  65.542  1.00  0.00    -0.208 C  
HETATM    5  N   UNL     1     -10.922  14.308  66.565  1.00  0.00    -0.311 N  
HETATM    6  C   UNL     1     -10.375  15.004  67.614  1.00  0.00    -0.243 C  
HETATM    7  O   UNL     1     -10.976  15.924  68.161  1.00  0.00    -0.309 OA 
HETATM    8  C   UNL     1      -9.028  14.447  68.114  1.00  0.00    -0.185 C  
HETATM    9  N   UNL     1      -8.196  13.582  67.121  1.00  0.00    -0.154 N  
HETATM   10  C   UNL     1      -5.145  11.815  69.734  1.00  0.00    -0.068 C  
HETATM   11  C   UNL     1      -7.061  12.899  67.524  1.00  0.00    -0.152 C  
HETATM   12  C   UNL     1      -6.407  13.717  70.460  1.00  0.00     0.026 C  
HETATM   13  O   UNL     1      -5.950  13.034  67.018  1.00  0.00    -0.267 OA 
HETATM   14  C   UNL     1      -7.506  11.846  68.535  1.00  0.00    -0.117 C  
HETATM   15  C   UNL     1      -9.047  12.501  66.818  1.00  0.00    -0.214 C  
HETATM   16  O   UNL     1      -8.507  11.516  65.934  1.00  0.00    -0.353 OA 
HETATM   17  H   UNL     1      -7.865  11.054  66.459  1.00  0.00     0.000 HD 
HETATM   18  C   UNL     1      -6.633  12.298  69.906  1.00  0.00     0.094 C  
HETATM   19  O   UNL     1      -9.001  11.968  68.149  1.00  0.00    -0.179 OA 
ENDROOT
BRANCH   8  20
HETATM   20  C   UNL     1      -8.261  15.535  68.781  1.00  0.00    -0.177 C  
HETATM   21  C   UNL     1      -7.417  16.682  66.721  1.00  0.00    -0.289 C  
HETATM   22  C   UNL     1      -8.065  16.857  68.091  1.00  0.00    -0.201 C  
HETATM   23  C   UNL     1      -7.139  17.636  69.030  1.00  0.00    -0.227 C  
ENDBRANCH   8  20
BRANCH  14  24
HETATM   24  N   UNL     1      -7.342  10.400  68.501  1.00  0.00    -0.083 N  
HETATM   25  H   UNL     1      -6.660   9.913  67.919  1.00  0.00     0.000 HD 
HETATM   26  O   UNL     1      -9.218  10.396  69.751  1.00  0.00    -0.135 OA 
HETATM   27  C   UNL     1      -8.227   9.767  69.357  1.00  0.00    -0.135 C  
BRANCH  27  28
HETATM   28  C   UNL     1      -8.000   8.324  69.790  1.00  0.00    -0.106 C  
HETATM   29  C   UNL     1      -9.109   7.575  70.563  1.00  0.00    -0.156 C  
HETATM   30  N   UNL     1      -9.014   6.117  70.191  1.00  0.00    -0.147 NA 
HETATM   31  C   UNL     1      -9.602   5.907  68.808  1.00  0.00    -0.128 C  
HETATM   32  C   UNL     1      -9.408   5.256  71.275  1.00  0.00    -0.148 C  
HETATM   33  C   UNL     1      -9.256   4.560  67.986  1.00  0.00    -0.166 C  
HETATM   34  C   UNL     1      -8.723   4.820  66.571  1.00  0.00    -0.111 A  
HETATM   35  C   UNL     1      -7.972   4.135  65.643  1.00  0.00    -0.097 A  
HETATM   36 BR   UNL     1      -7.361   2.381  65.796  1.00  0.00    -0.067 Br 
HETATM   37  N   UNL     1      -7.642   4.980  64.606  1.00  0.00    -0.075 NA 
HETATM   38  C   UNL     1      -8.158   6.240  64.822  1.00  0.00    -0.127 A  
HETATM   39  H   UNL     1      -7.091   4.711  63.791  1.00  0.00     0.000 HD 
HETATM   40  C   UNL     1      -7.960   7.491  64.215  1.00  0.00    -0.109 A  
HETATM   41  C   UNL     1      -8.612   8.606  64.783  1.00  0.00    -0.139 A  
HETATM   42  C   UNL     1      -9.349   8.489  65.953  1.00  0.00    -0.231 A  
HETATM   43  C   UNL     1      -9.338   7.261  66.607  1.00  0.00    -0.215 A  
HETATM   44  C   UNL     1      -8.881   6.105  65.988  1.00  0.00    -0.160 A  
HETATM   45  C   UNL     1      -9.129   7.138  68.037  1.00  0.00    -0.132 C  
HETATM   46  C   UNL     1      -7.937   7.657  68.433  1.00  0.00    -0.123 C  
ENDBRANCH  27  28
ENDBRANCH  14  24
TORSDOF 3
ENDMDL
MODEL       29
REMARK 921   NORMALIZED FREE ENERGY PREDICTED BY IDOCK:   -6.51 KCAL/MOL
REMARK 922        TOTAL FREE ENERGY PREDICTED BY IDOCK:   -7.18 KCAL/MOL
REMARK 923 INTER-LIGAND FREE ENERGY PREDICTED BY IDOCK:   -8.06 KCAL/MOL
REMARK 924 INTRA-LIGAND FREE ENERGY PREDICTED BY IDOCK:    0.88 KCAL/MOL
REMARK 927      BINDING AFFINITY PREDICTED BY RF-SCORE:    0.00 PKD
ROOT
HETATM    1  C   UNL     1     -12.326  13.212  70.312  1.00  0.00    -0.249 C  
HETATM    2  C   UNL     1     -13.208  13.260  71.557  1.00  0.00    -0.383 C  
HETATM    3  C   UNL     1     -13.764  14.716  71.538  1.00  0.00    -0.495 C  
HETATM    4  C   UNL     1     -12.970  15.463  70.467  1.00  0.00    -0.332 C  
HETATM    5  N   UNL     1     -11.885  14.578  70.130  1.00  0.00    -0.290 N  
HETATM    6  C   UNL     1     -11.132  14.877  69.022  1.00  0.00    -0.250 C  
HETATM    7  O   UNL     1     -10.768  16.024  68.781  1.00  0.00    -0.251 OA 
HETATM    8  C   UNL     1     -10.686  13.649  68.206  1.00  0.00    -0.254 C  
HETATM    9  N   UNL     1     -11.522  12.343  68.358  1.00  0.00    -0.285 N  
HETATM   10  C   UNL     1      -8.962   9.351  66.419  1.00  0.00    -0.182 C  
HETATM   11  C   UNL     1     -11.108  11.144  67.802  1.00  0.00    -0.285 C  
HETATM   12  C   UNL     1      -8.593  11.688  66.042  1.00  0.00     0.006 C  
HETATM   13  O   UNL     1     -11.772  10.475  67.016  1.00  0.00    -0.032 OA 
HETATM   14  C   UNL     1      -9.810  10.750  68.502  1.00  0.00    -0.177 C  
HETATM   15  C   UNL     1     -11.422  12.035  69.729  1.00  0.00    -0.210 C  
HETATM   16  O   UNL     1     -12.084  10.838  70.145  1.00  0.00    -0.294 OA 
HETATM   17  H   UNL     1     -11.545  10.137  69.797  1.00  0.00     0.000 HD 
HETATM   18  C   UNL     1      -8.728  10.693  67.208  1.00  0.00    -0.129 C  
HETATM   19  O   UNL     1     -10.015  11.757  69.661  1.00  0.00     0.518 OA 
ENDROOT
BRANCH   8  20
HETATM   20  C   UNL     1     -10.429  14.059  66.798  1.00  0.00    -0.277 C  
HETATM   21  C   UNL     1     -12.753  13.760  65.915  1.00  0.00    -0.452 C  
HETATM   22  C   UNL     1     -11.528  14.669  65.972  1.00  0.00    -0.332 C  
HETATM   23  C   UNL     1     -10.909  14.827  64.580  1.00  0.00    -0.312 C  
ENDBRANCH   8  20
BRANCH  14  24
HETATM   24  N   UNL     1      -9.490   9.545  69.254  1.00  0.00    -0.161 N  
HETATM   25  H   UNL     1     -10.064   8.701  69.258  1.00  0.00     0.000 HD 
HETATM   26  O   UNL     1      -7.875  10.827  70.165  1.00  0.00     0.125 OA 
HETATM   27  C   UNL     1      -8.310   9.685  69.963  1.00  0.00    -0.182 C  
BRANCH  27  28
HETATM   28  C   UNL     1      -7.571   8.466  70.501  1.00  0.00    -0.074 C  
HETATM   29  C   UNL     1      -7.791   8.023  71.966  1.00  0.00    -0.105 C  
HETATM   30  N   UNL     1      -7.640   6.524  72.013  1.00  0.00    -0.093 NA 
HETATM   31  C   UNL     1      -8.889   5.870  71.450  1.00  0.00    -0.136 C  
HETATM   32  C   UNL     1      -7.101   6.075  73.270  1.00  0.00    -0.085 C  
HETATM   33  C   UNL     1      -8.843   4.325  70.982  1.00  0.00    -0.148 C  
HETATM   34  C   UNL     1      -9.352   4.097  69.554  1.00  0.00    -0.238 A  
HETATM   35  C   UNL     1      -9.201   3.138  68.578  1.00  0.00    -0.171 A  
HETATM   36 BR   UNL     1      -8.273   1.530  68.747  1.00  0.00    -0.072 Br 
HETATM   37  N   UNL     1      -9.757   3.589  67.401  1.00  0.00    -0.285 NA 
HETATM   38  C   UNL     1     -10.283   4.852  67.564  1.00  0.00    -0.096 A  
HETATM   39  H   UNL     1      -9.776   3.060  66.529  1.00  0.00     0.000 HD 
HETATM   40  C   UNL     1     -10.763   5.829  66.676  1.00  0.00    -0.333 A  
HETATM   41  C   UNL     1     -11.149   7.073  67.218  1.00  0.00    -0.302 A  
HETATM   42  C   UNL     1     -10.975   7.357  68.565  1.00  0.00     0.021 A  
HETATM   43  C   UNL     1     -10.311   6.415  69.346  1.00  0.00    -0.252 A  
HETATM   44  C   UNL     1     -10.097   5.117  68.904  1.00  0.00    -0.237 A  
HETATM   45  C   UNL     1      -9.255   6.773  70.272  1.00  0.00    -0.156 C  
HETATM   46  C   UNL     1      -8.210   7.386  69.656  1.00  0.00    -0.130 C  
ENDBRANCH  27  28
ENDBRANCH  14  24
TORSDOF 3
ENDMDL
MODEL       30
REMARK 921   NORMALIZED FREE ENERGY PREDICTED BY IDOCK:   -6.43 KCAL/MOL
REMARK 922        TOTAL FREE ENERGY PREDICTED BY IDOCK:   -7.09 KCAL/MOL
REMARK 923 INTER-LIGAND FREE ENERGY PREDICTED BY IDOCK:   -9.30 KCAL/MOL
REMARK 924 INTRA-LIGAND FREE ENERGY PREDICTED BY IDOCK:    2.21 KCAL/MOL
REMARK 927      BINDING AFFINITY PREDICTED BY RF-SCORE:    0.00 PKD
ROOT
HETATM    1  C   UNL     1      -6.936   5.763  69.675  1.00  0.00    -0.063 C  
HETATM    2  C   UNL     1      -5.797   5.440  68.712  1.00  0.00    -0.016 C  
HETATM    3  C   UNL     1      -5.170   4.154  69.327  1.00  0.00    -0.008 C  
HETATM    4  C   UNL     1      -5.802   3.988  70.708  1.00  0.00    -0.014 C  
HETATM    5  N   UNL     1      -6.497   5.226  70.945  1.00  0.00    -0.033 N  
HETATM    6  C   UNL     1      -7.359   5.285  72.010  1.00  0.00    -0.088 C  
HETATM    7  O   UNL     1      -7.070   4.804  73.102  1.00  0.00    -0.074 OA 
HETATM    8  C   UNL     1      -8.635   6.109  71.751  1.00  0.00    -0.133 C  
HETATM    9  N   UNL     1      -9.074   6.306  70.269  1.00  0.00    -0.153 N  
HETATM   10  C   UNL     1     -12.140   9.430  70.599  1.00  0.00    -0.191 C  
HETATM   11  C   UNL     1     -10.103   7.165  69.923  1.00  0.00    -0.191 C  
HETATM   12  C   UNL     1     -11.446   8.203  72.537  1.00  0.00    -0.470 C  
HETATM   13  O   UNL     1     -11.103   6.836  69.291  1.00  0.00    -0.260 OA 
HETATM   14  C   UNL     1      -9.652   8.577  70.288  1.00  0.00    -0.167 C  
HETATM   15  C   UNL     1      -7.981   6.968  69.677  1.00  0.00    -0.124 C  
HETATM   16  O   UNL     1      -8.135   7.307  68.297  1.00  0.00    -0.121 OA 
HETATM   17  H   UNL     1      -8.758   8.025  68.299  1.00  0.00     0.000 HD 
HETATM   18  C   UNL     1     -10.839   9.039  71.395  1.00  0.00    -0.400 C  
HETATM   19  O   UNL     1      -8.167   8.165  70.447  1.00  0.00    -0.109 OA 
ENDROOT
BRANCH   8  20
HETATM   20  C   UNL     1      -9.717   5.643  72.661  1.00  0.00    -0.171 C  
HETATM   21  C   UNL     1     -10.151   3.424  71.583  1.00  0.00    -0.104 C  
HETATM   22  C   UNL     1      -9.931   4.172  72.895  1.00  0.00    -0.202 C  
HETATM   23  C   UNL     1     -11.188   4.110  73.768  1.00  0.00    -0.260 C  
ENDBRANCH   8  20
BRANCH  14  24
HETATM   24  N   UNL     1      -9.510   9.754  69.444  1.00  0.00    -0.188 N  
HETATM   25  H   UNL     1      -9.188  10.663  69.777  1.00  0.00     0.000 HD 
HETATM   26  O   UNL     1     -10.553   8.482  67.902  1.00  0.00    -0.220 OA 
HETATM   27  C   UNL     1      -9.868   9.487  68.135  1.00  0.00    -0.155 C  
BRANCH  27  28
HETATM   28  C   UNL     1      -9.446  10.418  67.003  1.00  0.00    -0.189 C  
HETATM   29  C   UNL     1     -10.119  10.289  65.617  1.00  0.00    -0.271 C  
HETATM   30  N   UNL     1     -10.149  11.665  65.001  1.00  0.00    -0.253 NA 
HETATM   31  C   UNL     1     -11.249  12.487  65.647  1.00  0.00    -0.317 C  
HETATM   32  C   UNL     1     -10.040  11.615  63.566  1.00  0.00    -0.425 C  
HETATM   33  C   UNL     1     -11.238  14.095  65.501  1.00  0.00    -0.317 C  
HETATM   34  C   UNL     1     -11.342  14.838  66.838  1.00  0.00    -0.358 A  
HETATM   35  C   UNL     1     -11.023  16.088  67.317  1.00  0.00    -0.207 A  
HETATM   36 BR   UNL     1     -10.359  17.515  66.319  1.00  0.00    -0.288 Br 
HETATM   37  N   UNL     1     -11.171  16.107  68.687  1.00  0.00    -0.355 NA 
HETATM   38  C   UNL     1     -11.584  14.876  69.148  1.00  0.00    -0.307 A  
HETATM   39  H   UNL     1     -10.998  16.920  69.278  1.00  0.00     0.000 HD 
HETATM   40  C   UNL     1     -11.685  14.298  70.425  1.00  0.00    -0.329 A  
HETATM   41  C   UNL     1     -12.073  12.944  70.502  1.00  0.00    -0.364 A  
HETATM   42  C   UNL     1     -12.259  12.182  69.357  1.00  0.00    -0.135 A  
HETATM   43  C   UNL     1     -11.949  12.765  68.132  1.00  0.00    -0.295 A  
HETATM   44  C   UNL     1     -11.759  14.134  68.000  1.00  0.00    -0.394 A  
HETATM   45  C   UNL     1     -11.167  12.085  67.118  1.00  0.00    -0.374 C  
HETATM   46  C   UNL     1      -9.931  11.736  67.564  1.00  0.00    -0.204 C  
ENDBRANCH  27  28
ENDBRANCH  14  24
TORSDOF 3
ENDMDL
MODEL       31
REMARK 921   NORMALIZED FREE ENERGY PREDICTED BY IDOCK:   -6.42 KCAL/MOL
REMARK 922        TOTAL FREE ENERGY PREDICTED BY IDOCK:   -7.08 KCAL/MOL
REMARK 923 INTER-LIGAND FREE ENERGY PREDICTED BY IDOCK:   -7.67 KCAL/MOL
REMARK 924 INTRA-LIGAND FREE ENERGY PREDICTED BY IDOCK:    0.60 KCAL/MOL
REMARK 927      BINDING AFFINITY PREDICTED BY RF-SCORE:    0.00 PKD
ROOT
HETATM    1  C   UNL     1      -9.596   4.152  65.034  1.00  0.00    -0.180 C  
HETATM    2  C   UNL     1     -10.770   3.801  64.124  1.00  0.00    -0.240 C  
HETATM    3  C   UNL     1     -10.426   2.359  63.646  1.00  0.00    -0.144 C  
HETATM    4  C   UNL     1      -8.986   2.094  64.085  1.00  0.00    -0.104 C  
HETATM    5  N   UNL     1      -8.492   3.378  64.511  1.00  0.00    -0.093 N  
HETATM    6  C   UNL     1      -7.295   3.414  65.182  1.00  0.00    -0.072 C  
HETATM    7  O   UNL     1      -6.333   2.743  64.822  1.00  0.00    -0.022 OA 
HETATM    8  C   UNL     1      -7.235   4.452  66.319  1.00  0.00    -0.076 C  
HETATM    9  N   UNL     1      -8.588   4.924  66.932  1.00  0.00    -0.106 N  
HETATM   10  C   UNL     1      -7.378   8.400  69.324  1.00  0.00    -0.071 C  
HETATM   11  C   UNL     1      -8.651   5.972  67.836  1.00  0.00    -0.113 C  
HETATM   12  C   UNL     1      -5.743   6.817  68.575  1.00  0.00    -0.017 C  
HETATM   13  O   UNL     1      -9.137   5.893  68.961  1.00  0.00    -0.121 OA 
HETATM   14  C   UNL     1      -8.205   7.230  67.097  1.00  0.00    -0.118 C  
HETATM   15  C   UNL     1      -9.275   5.490  65.841  1.00  0.00    -0.147 C  
HETATM   16  O   UNL     1     -10.559   6.043  66.137  1.00  0.00    -0.463 OA 
HETATM   17  H   UNL     1     -10.368   6.840  66.618  1.00  0.00     0.000 HD 
HETATM   18  C   UNL     1      -6.866   7.705  68.008  1.00  0.00    -0.067 C  
HETATM   19  O   UNL     1      -8.351   6.578  65.699  1.00  0.00    -0.135 OA 
ENDROOT
BRANCH   8  20
HETATM   20  C   UNL     1      -6.215   4.031  67.319  1.00  0.00    -0.036 C  
HETATM   21  C   UNL     1      -7.660   2.491  68.667  1.00  0.00    -0.047 C  
HETATM   22  C   UNL     1      -6.311   2.682  67.978  1.00  0.00    -0.029 C  
HETATM   23  C   UNL     1      -5.177   2.686  69.008  1.00  0.00    -0.012 C  
ENDBRANCH   8  20
BRANCH  14  24
HETATM   24  N   UNL     1      -8.917   8.481  66.880  1.00  0.00    -0.138 N  
HETATM   25  H   UNL     1      -9.753   8.762  67.392  1.00  0.00     0.000 HD 
HETATM   26  O   UNL     1      -7.535   8.687  65.111  1.00  0.00    -0.086 OA 
HETATM   27  C   UNL     1      -8.318   9.243  65.892  1.00  0.00    -0.118 C  
BRANCH  27  28
HETATM   28  C   UNL     1      -8.629  10.728  65.753  1.00  0.00    -0.187 C  
HETATM   29  C   UNL     1      -9.577  11.209  64.629  1.00  0.00    -0.250 C  
HETATM   30  N   UNL     1     -10.303  12.427  65.140  1.00  0.00    -0.282 NA 
HETATM   31  C   UNL     1     -11.392  12.000  66.107  1.00  0.00    -0.351 C  
HETATM   32  C   UNL     1     -10.606  13.357  64.084  1.00  0.00    -0.236 C  
HETATM   33  C   UNL     1     -12.033  13.083  67.120  1.00  0.00    -0.389 C  
HETATM   34  C   UNL     1     -12.014  12.641  68.588  1.00  0.00    -0.264 A  
HETATM   35  C   UNL     1     -12.067  13.255  69.819  1.00  0.00    -0.290 A  
HETATM   36 BR   UNL     1     -12.314  15.075  70.135  1.00  0.00    -0.369 Br 
HETATM   37  N   UNL     1     -11.804  12.329  70.806  1.00  0.00    -0.385 NA 
HETATM   38  C   UNL     1     -11.567  11.088  70.256  1.00  0.00    -0.322 A  
HETATM   39  H   UNL     1     -11.788  12.534  71.804  1.00  0.00     0.000 HD 
HETATM   40  C   UNL     1     -11.065   9.878  70.764  1.00  0.00    -0.417 A  
HETATM   41  C   UNL     1     -10.872   8.816  69.856  1.00  0.00    -0.211 A  
HETATM   42  C   UNL     1     -11.082   8.986  68.495  1.00  0.00     0.160 A  
HETATM   43  C   UNL     1     -11.387  10.266  68.040  1.00  0.00    -0.219 A  
HETATM   44  C   UNL     1     -11.775  11.278  68.907  1.00  0.00    -0.409 A  
HETATM   45  C   UNL     1     -10.738  10.862  66.888  1.00  0.00    -0.318 C  
HETATM   46  C   UNL     1      -9.390  10.951  67.041  1.00  0.00    -0.180 C  
ENDBRANCH  27  28
ENDBRANCH  14  24
TORSDOF 3
ENDMDL
MODEL       32
REMARK 921   NORMALIZED FREE ENERGY PREDICTED BY IDOCK:   -6.30 KCAL/MOL
REMARK 922        TOTAL FREE ENERGY PREDICTED BY IDOCK:   -6.93 KCAL/MOL
REMARK 923 INTER-LIGAND FREE ENERGY PREDICTED BY IDOCK:   -7.58 KCAL/MOL
REMARK 924 INTRA-LIGAND FREE ENERGY PREDICTED BY IDOCK:    0.64 KCAL/MOL
REMARK 927      BINDING AFFINITY PREDICTED BY RF-SCORE:    0.00 PKD
ROOT
HETATM    1  C   UNL     1      -9.617   4.644  66.673  1.00  0.00    -0.182 C  
HETATM    2  C   UNL     1     -10.342   4.569  65.332  1.00  0.00    -0.224 C  
HETATM    3  C   UNL     1      -9.949   3.159  64.798  1.00  0.00     0.001 C  
HETATM    4  C   UNL     1      -8.840   2.648  65.716  1.00  0.00    -0.134 C  
HETATM    5  N   UNL     1      -8.461   3.791  66.506  1.00  0.00    -0.104 N  
HETATM    6  C   UNL     1      -7.644   3.581  67.588  1.00  0.00    -0.069 C  
HETATM    7  O   UNL     1      -6.675   2.829  67.529  1.00  0.00    -0.039 OA 
HETATM    8  C   UNL     1      -7.970   4.459  68.811  1.00  0.00    -0.073 C  
HETATM    9  N   UNL     1      -9.412   5.040  68.914  1.00  0.00    -0.130 N  
HETATM   10  C   UNL     1      -9.010   8.007  72.123  1.00  0.00    -0.221 C  
HETATM   11  C   UNL     1      -9.755   5.972  69.879  1.00  0.00    -0.163 C  
HETATM   12  C   UNL     1      -7.344   6.311  71.825  1.00  0.00    -0.093 C  
HETATM   13  O   UNL     1     -10.662   5.830  70.693  1.00  0.00    -0.261 OA 
HETATM   14  C   UNL     1      -8.947   7.234  69.590  1.00  0.00    -0.141 C  
HETATM   15  C   UNL     1      -9.547   5.820  67.749  1.00  0.00    -0.115 C  
HETATM   16  O   UNL     1     -10.792   6.508  67.604  1.00  0.00    -0.269 OA 
HETATM   17  H   UNL     1     -10.750   7.208  68.245  1.00  0.00     0.000 HD 
HETATM   18  C   UNL     1      -8.063   7.407  71.018  1.00  0.00    -0.101 C  
HETATM   19  O   UNL     1      -8.562   6.778  68.161  1.00  0.00    -0.120 OA 
ENDROOT
BRANCH   8  20
HETATM   20  C   UNL     1      -7.484   3.785  70.047  1.00  0.00    -0.045 C  
HETATM   21  C   UNL     1      -9.494   2.355  70.480  1.00  0.00    -0.185 C  
HETATM   22  C   UNL     1      -7.970   2.407  70.400  1.00  0.00    -0.051 C  
HETATM   23  C   UNL     1      -7.349   2.130  71.773  1.00  0.00    -0.039 C  
ENDBRANCH   8  20
BRANCH  14  24
HETATM   24  N   UNL     1      -9.406   8.589  69.320  1.00  0.00    -0.153 N  
HETATM   25  H   UNL     1     -10.330   8.942  69.568  1.00  0.00     0.000 HD 
HETATM   26  O   UNL     1      -7.497   8.745  68.131  1.00  0.00    -0.090 OA 
HETATM   27  C   UNL     1      -8.432   9.339  68.684  1.00  0.00    -0.123 C  
BRANCH  27  28
HETATM   28  C   UNL     1      -8.517  10.860  68.646  1.00  0.00    -0.152 C  
HETATM   29  C   UNL     1      -8.894  11.571  67.326  1.00  0.00    -0.160 C  
HETATM   30  N   UNL     1      -9.640  12.830  67.688  1.00  0.00    -0.186 NA 
HETATM   31  C   UNL     1     -11.058  12.480  68.101  1.00  0.00    -0.243 C  
HETATM   32  C   UNL     1      -9.411  13.886  66.736  1.00  0.00    -0.279 C  
HETATM   33  C   UNL     1     -11.936  13.547  68.936  1.00  0.00    -0.378 C  
HETATM   34  C   UNL     1     -12.540  12.976  70.225  1.00  0.00    -0.108 A  
HETATM   35  C   UNL     1     -13.012  13.477  71.417  1.00  0.00    -0.339 A  
HETATM   36 BR   UNL     1     -13.184  15.278  71.865  1.00  0.00    -0.560 Br 
HETATM   37  N   UNL     1     -13.250  12.438  72.290  1.00  0.00    -0.446 NA 
HETATM   38  C   UNL     1     -12.938  11.231  71.704  1.00  0.00    -0.432 A  
HETATM   39  H   UNL     1     -13.607  12.548  73.239  1.00  0.00     0.000 HD 
HETATM   40  C   UNL     1     -12.797   9.920  72.190  1.00  0.00    -0.435 A  
HETATM   41  C   UNL     1     -12.367   8.928  71.284  1.00  0.00    -0.342 A  
HETATM   42  C   UNL     1     -12.007   9.249  69.984  1.00  0.00     0.272 A  
HETATM   43  C   UNL     1     -11.982  10.595  69.630  1.00  0.00    -0.340 A  
HETATM   44  C   UNL     1     -12.580  11.570  70.417  1.00  0.00    -0.238 A  
HETATM   45  C   UNL     1     -10.878  11.193  68.905  1.00  0.00    -0.261 C  
HETATM   46  C   UNL     1      -9.697  11.073  69.567  1.00  0.00     0.177 C  
ENDBRANCH  27  28
ENDBRANCH  14  24
TORSDOF 3
ENDMDL
MODEL       33
REMARK 921   NORMALIZED FREE ENERGY PREDICTED BY IDOCK:   -6.28 KCAL/MOL
REMARK 922        TOTAL FREE ENERGY PREDICTED BY IDOCK:   -6.92 KCAL/MOL
REMARK 923 INTER-LIGAND FREE ENERGY PREDICTED BY IDOCK:   -9.13 KCAL/MOL
REMARK 924 INTRA-LIGAND FREE ENERGY PREDICTED BY IDOCK:    2.21 KCAL/MOL
REMARK 927      BINDING AFFINITY PREDICTED BY RF-SCORE:    0.00 PKD
ROOT
HETATM    1  C   UNL     1     -12.301  12.144  70.458  1.00  0.00    -0.272 C  
HETATM    2  C   UNL     1     -12.865  13.466  70.971  1.00  0.00    -0.329 C  
HETATM    3  C   UNL     1     -13.460  13.080  72.358  1.00  0.00    -0.615 C  
HETATM    4  C   UNL     1     -13.440  11.554  72.423  1.00  0.00     0.285 C  
HETATM    5  N   UNL     1     -13.128  11.134  71.082  1.00  0.00    -0.275 N  
HETATM    6  C   UNL     1     -12.808   9.814  70.880  1.00  0.00    -0.237 C  
HETATM    7  O   UNL     1     -13.437   8.909  71.420  1.00  0.00    -0.328 OA 
HETATM    8  C   UNL     1     -11.701   9.581  69.835  1.00  0.00     0.098 C  
HETATM    9  N   UNL     1     -10.728  10.762  69.543  1.00  0.00    -0.235 N  
HETATM   10  C   UNL     1      -8.658   9.407  65.918  1.00  0.00    -0.155 C  
HETATM   11  C   UNL     1      -9.811  10.711  68.506  1.00  0.00    -0.168 C  
HETATM   12  C   UNL     1      -9.871   7.849  67.273  1.00  0.00    -0.256 C  
HETATM   13  O   UNL     1      -8.600  10.855  68.640  1.00  0.00    -0.140 OA 
HETATM   14  C   UNL     1     -10.607  10.654  67.205  1.00  0.00    -0.263 C  
HETATM   15  C   UNL     1     -11.573  11.791  69.084  1.00  0.00    -0.310 C  
HETATM   16  O   UNL     1     -10.921  13.005  68.705  1.00  0.00    -0.247 OA 
HETATM   17  H   UNL     1     -10.488  12.795  67.886  1.00  0.00     0.000 HD 
HETATM   18  C   UNL     1     -10.083   9.190  66.548  1.00  0.00    -0.357 C  
HETATM   19  O   UNL     1     -11.930  11.092  67.882  1.00  0.00    -0.624 OA 
ENDROOT
BRANCH   8  20
HETATM   20  C   UNL     1     -11.031   8.279  70.107  1.00  0.00    -0.222 C  
HETATM   21  C   UNL     1      -9.425   9.071  71.858  1.00  0.00    -0.179 C  
HETATM   22  C   UNL     1     -10.437   8.001  71.461  1.00  0.00    -0.265 C  
HETATM   23  C   UNL     1      -9.749   6.642  71.296  1.00  0.00    -0.183 C  
ENDBRANCH   8  20
BRANCH  14  24
HETATM   24  N   UNL     1     -10.585  11.556  66.063  1.00  0.00    -0.255 N  
HETATM   25  H   UNL     1     -11.164  11.442  65.230  1.00  0.00     0.000 HD 
HETATM   26  O   UNL     1      -8.801  12.454  67.107  1.00  0.00    -0.183 OA 
HETATM   27  C   UNL     1      -9.680  12.586  66.245  1.00  0.00    -0.254 C  
BRANCH  27  28
HETATM   28  C   UNL     1      -9.748  13.848  65.393  1.00  0.00    -0.096 C  
HETATM   29  C   UNL     1     -11.097  14.585  65.226  1.00  0.00    -0.353 C  
HETATM   30  N   UNL     1     -10.793  16.054  65.070  1.00  0.00    -0.550 NA 
HETATM   31  C   UNL     1     -10.444  16.646  66.423  1.00  0.00    -0.266 C  
HETATM   32  C   UNL     1     -11.751  16.716  64.223  1.00  0.00     0.663 C  
HETATM   33  C   UNL     1      -9.671  18.062  66.502  1.00  0.00    -0.338 C  
HETATM   34  C   UNL     1      -8.404  18.027  67.364  1.00  0.00    -0.233 A  
HETATM   35  C   UNL     1      -7.246  18.762  67.472  1.00  0.00    -0.215 A  
HETATM   36 BR   UNL     1      -6.837  20.320  66.535  1.00  0.00    -0.290 Br 
HETATM   37  N   UNL     1      -6.368  18.115  68.315  1.00  0.00    -0.190 NA 
HETATM   38  C   UNL     1      -6.917  16.940  68.779  1.00  0.00    -0.204 A  
HETATM   39  H   UNL     1      -5.439  18.459  68.560  1.00  0.00     0.000 HD 
HETATM   40  C   UNL     1      -6.402  15.832  69.472  1.00  0.00    -0.171 A  
HETATM   41  C   UNL     1      -7.269  14.743  69.703  1.00  0.00    -0.136 A  
HETATM   42  C   UNL     1      -8.556  14.725  69.185  1.00  0.00    -0.089 A  
HETATM   43  C   UNL     1      -8.930  15.768  68.342  1.00  0.00    -0.187 A  
HETATM   44  C   UNL     1      -8.190  16.938  68.252  1.00  0.00    -0.222 A  
HETATM   45  C   UNL     1      -9.611  15.548  67.081  1.00  0.00    -0.228 C  
HETATM   46  C   UNL     1      -8.889  14.769  66.231  1.00  0.00    -0.055 C  
ENDBRANCH  27  28
ENDBRANCH  14  24
TORSDOF 3
ENDMDL
MODEL       34
REMARK 921   NORMALIZED FREE ENERGY PREDICTED BY IDOCK:   -6.26 KCAL/MOL
REMARK 922        TOTAL FREE ENERGY PREDICTED BY IDOCK:   -6.89 KCAL/MOL
REMARK 923 INTER-LIGAND FREE ENERGY PREDICTED BY IDOCK:   -7.25 KCAL/MOL
REMARK 924 INTRA-LIGAND FREE ENERGY PREDICTED BY IDOCK:    0.36 KCAL/MOL
REMARK 927      BINDING AFFINITY PREDICTED BY RF-SCORE:    0.00 PKD
ROOT
HETATM    1  C   UNL     1     -10.131   7.893  68.574  1.00  0.00    -0.197 C  
HETATM    2  C   UNL     1     -10.784   8.263  69.903  1.00  0.00    -0.234 C  
HETATM    3  C   UNL     1     -11.157   6.878  70.510  1.00  0.00    -0.332 C  
HETATM    4  C   UNL     1     -10.946   5.852  69.397  1.00  0.00    -0.350 C  
HETATM    5  N   UNL     1     -10.750   6.638  68.207  1.00  0.00    -0.240 N  
HETATM    6  C   UNL     1     -10.302   5.995  67.080  1.00  0.00    -0.230 C  
HETATM    7  O   UNL     1     -10.748   4.903  66.740  1.00  0.00    -0.187 OA 
HETATM    8  C   UNL     1      -9.309   6.814  66.233  1.00  0.00    -0.100 C  
HETATM    9  N   UNL     1      -8.527   7.956  66.948  1.00  0.00    -0.125 N  
HETATM   10  C   UNL     1      -6.763  10.147  63.579  1.00  0.00    -0.124 C  
HETATM   11  C   UNL     1      -7.743   8.854  66.244  1.00  0.00    -0.098 C  
HETATM   12  C   UNL     1      -7.608   7.926  63.271  1.00  0.00    -0.130 C  
HETATM   13  O   UNL     1      -6.550   9.052  66.454  1.00  0.00    -0.065 OA 
HETATM   14  C   UNL     1      -8.678   9.654  65.340  1.00  0.00    -0.158 C  
HETATM   15  C   UNL     1      -9.538   8.817  67.417  1.00  0.00    -0.161 C  
HETATM   16  O   UNL     1      -9.087   9.991  68.096  1.00  0.00    -0.121 OA 
HETATM   17  H   UNL     1      -8.734  10.542  67.408  1.00  0.00     0.000 HD 
HETATM   18  C   UNL     1      -8.065   9.294  63.810  1.00  0.00    -0.155 C  
HETATM   19  O   UNL     1      -9.952   9.205  66.099  1.00  0.00    -0.286 OA 
ENDROOT
BRANCH   8  20
HETATM   20  C   UNL     1      -8.460   5.888  65.434  1.00  0.00    -0.153 C  
HETATM   21  C   UNL     1      -6.739   5.391  67.185  1.00  0.00    -0.059 C  
HETATM   22  C   UNL     1      -7.662   4.811  66.117  1.00  0.00    -0.091 C  
HETATM   23  C   UNL     1      -6.846   4.175  64.987  1.00  0.00    -0.050 C  
ENDBRANCH   8  20
BRANCH  14  24
HETATM   24  N   UNL     1      -8.902  11.091  65.277  1.00  0.00    -0.310 N  
HETATM   25  H   UNL     1      -8.235  11.791  65.604  1.00  0.00     0.000 HD 
HETATM   26  O   UNL     1     -10.991  10.500  64.671  1.00  0.00     0.122 OA 
HETATM   27  C   UNL     1     -10.132  11.390  64.719  1.00  0.00    -0.277 C  
BRANCH  27  28
HETATM   28  C   UNL     1     -10.433  12.789  64.192  1.00  0.00    -0.437 C  
HETATM   29  C   UNL     1     -11.803  13.439  64.490  1.00  0.00    -0.398 C  
HETATM   30  N   UNL     1     -11.586  14.928  64.588  1.00  0.00    -0.407 NA 
HETATM   31  C   UNL     1     -10.947  15.261  65.923  1.00  0.00    -0.325 C  
HETATM   32  C   UNL     1     -12.733  15.671  64.136  1.00  0.00     0.700 C  
HETATM   33  C   UNL     1     -10.217  16.687  66.128  1.00  0.00    -0.360 C  
HETATM   34  C   UNL     1      -8.783  16.576  66.659  1.00  0.00    -0.286 A  
HETATM   35  C   UNL     1      -7.652  17.361  66.661  1.00  0.00    -0.256 A  
HETATM   36 BR   UNL     1      -7.518  19.103  66.011  1.00  0.00    -0.263 Br 
HETATM   37  N   UNL     1      -6.584  16.627  67.129  1.00  0.00    -0.170 NA 
HETATM   38  C   UNL     1      -6.976  15.344  67.442  1.00  0.00    -0.189 A  
HETATM   39  H   UNL     1      -5.634  16.985  67.230  1.00  0.00     0.000 HD 
HETATM   40  C   UNL     1      -6.283  14.162  67.751  1.00  0.00    -0.153 A  
HETATM   41  C   UNL     1      -7.041  12.985  67.931  1.00  0.00    -0.128 A  
HETATM   42  C   UNL     1      -8.412  12.974  67.721  1.00  0.00    -0.188 A  
HETATM   43  C   UNL     1      -9.002  14.133  67.224  1.00  0.00    -0.221 A  
HETATM   44  C   UNL     1      -8.337  15.351  67.224  1.00  0.00    -0.224 A  
HETATM   45  C   UNL     1      -9.952  14.120  66.129  1.00  0.00    -0.328 C  
HETATM   46  C   UNL     1      -9.428  13.585  64.994  1.00  0.00     0.494 C  
ENDBRANCH  27  28
ENDBRANCH  14  24
TORSDOF 3
ENDMDL
MODEL       35
REMARK 921   NORMALIZED FREE ENERGY PREDICTED BY IDOCK:   -6.24 KCAL/MOL
REMARK 922        TOTAL FREE ENERGY PREDICTED BY IDOCK:   -6.87 KCAL/MOL
REMARK 923 INTER-LIGAND FREE ENERGY PREDICTED BY IDOCK:   -8.38 KCAL/MOL
REMARK 924 INTRA-LIGAND FREE ENERGY PREDICTED BY IDOCK:    1.51 KCAL/MOL
REMARK 927      BINDING AFFINITY PREDICTED BY RF-SCORE:    0.00 PKD
ROOT
HETATM    1  C   UNL     1      -8.480  10.017  64.345  1.00  0.00    -0.173 C  
HETATM    2  C   UNL     1      -7.754  10.418  63.064  1.00  0.00    -0.118 C  
HETATM    3  C   UNL     1      -7.553   9.056  62.333  1.00  0.00    -0.103 C  
HETATM    4  C   UNL     1      -7.924   7.970  63.342  1.00  0.00    -0.133 C  
HETATM    5  N   UNL     1      -8.042   8.662  64.599  1.00  0.00    -0.148 N  
HETATM    6  C   UNL     1      -8.598   7.984  65.655  1.00  0.00    -0.145 C  
HETATM    7  O   UNL     1      -8.309   6.816  65.896  1.00  0.00    -0.125 OA 
HETATM    8  C   UNL     1      -9.493   8.848  66.564  1.00  0.00    -0.211 C  
HETATM    9  N   UNL     1     -10.100  10.145  65.952  1.00  0.00    -0.265 N  
HETATM   10  C   UNL     1     -11.637  12.233  69.493  1.00  0.00    -0.366 C  
HETATM   11  C   UNL     1     -10.775  11.071  66.729  1.00  0.00    -0.266 C  
HETATM   12  C   UNL     1     -11.101   9.900  69.600  1.00  0.00    -0.279 C  
HETATM   13  O   UNL     1     -11.926  11.446  66.525  1.00  0.00    -0.268 OA 
HETATM   14  C   UNL     1      -9.763  11.652  67.714  1.00  0.00    -0.173 C  
HETATM   15  C   UNL     1      -8.973  10.902  65.577  1.00  0.00    -0.197 C  
HETATM   16  O   UNL     1      -9.248  12.183  65.007  1.00  0.00    -0.417 OA 
HETATM   17  H   UNL     1      -9.542  12.711  65.740  1.00  0.00     0.000 HD 
HETATM   18  C   UNL     1     -10.454  11.238  69.197  1.00  0.00    -0.191 C  
HETATM   19  O   UNL     1      -8.542  11.108  66.931  1.00  0.00    -0.139 OA 
ENDROOT
BRANCH   8  20
HETATM   20  C   UNL     1     -10.476   7.974  67.263  1.00  0.00    -0.384 C  
HETATM   21  C   UNL     1      -8.879   6.810  68.802  1.00  0.00    -0.131 C  
HETATM   22  C   UNL     1     -10.222   7.525  68.676  1.00  0.00    -0.210 C  
HETATM   23  C   UNL     1     -11.375   6.562  68.977  1.00  0.00    -0.296 C  
ENDBRANCH   8  20
BRANCH  14  24
HETATM   24  N   UNL     1      -9.353  13.034  67.915  1.00  0.00    -0.204 N  
HETATM   25  H   UNL     1      -9.860  13.842  67.553  1.00  0.00     0.000 HD 
HETATM   26  O   UNL     1      -7.479  12.107  68.758  1.00  0.00    -0.114 OA 
HETATM   27  C   UNL     1      -8.189  13.116  68.659  1.00  0.00    -0.000 C  
BRANCH  27  28
HETATM   28  C   UNL     1      -7.776  14.424  69.325  1.00  0.00    -0.002 C  
HETATM   29  C   UNL     1      -6.301  14.882  69.260  1.00  0.00    -0.115 C  
HETATM   30  N   UNL     1      -6.296  16.390  69.248  1.00  0.00    -0.173 NA 
HETATM   31  C   UNL     1      -6.688  16.888  67.869  1.00  0.00    -0.144 C  
HETATM   32  C   UNL     1      -5.134  16.931  69.902  1.00  0.00    -0.171 C  
HETATM   33  C   UNL     1      -7.179  18.415  67.678  1.00  0.00    -0.216 C  
HETATM   34  C   UNL     1      -8.526  18.545  66.956  1.00  0.00    -0.266 A  
HETATM   35  C   UNL     1      -9.526  19.486  66.865  1.00  0.00    -0.344 A  
HETATM   36 BR   UNL     1      -9.511  21.189  67.622  1.00  0.00     0.181 Br 
HETATM   37  N   UNL     1     -10.608  18.943  66.206  1.00  0.00    -0.424 NA 
HETATM   38  C   UNL     1     -10.355  17.636  65.851  1.00  0.00    -0.257 A  
HETATM   39  H   UNL     1     -11.476  19.441  66.009  1.00  0.00     0.000 HD 
HETATM   40  C   UNL     1     -11.154  16.587  65.365  1.00  0.00    -0.021 A  
HETATM   41  C   UNL     1     -10.546  15.325  65.198  1.00  0.00    -0.453 A  
HETATM   42  C   UNL     1      -9.233  15.101  65.585  1.00  0.00     0.054 A  
HETATM   43  C   UNL     1      -8.566  16.131  66.241  1.00  0.00    -0.373 A  
HETATM   44  C   UNL     1      -9.051  17.432  66.247  1.00  0.00    -0.232 A  
HETATM   45  C   UNL     1      -7.791  15.918  67.448  1.00  0.00    -0.195 C  
HETATM   46  C   UNL     1      -8.539  15.402  68.460  1.00  0.00    -0.172 C  
ENDBRANCH  27  28
ENDBRANCH  14  24
TORSDOF 3
ENDMDL
MODEL       36
REMARK 921   NORMALIZED FREE ENERGY PREDICTED BY IDOCK:   -6.22 KCAL/MOL
REMARK 922        TOTAL FREE ENERGY PREDICTED BY IDOCK:   -6.85 KCAL/MOL
REMARK 923 INTER-LIGAND FREE ENERGY PREDICTED BY IDOCK:   -6.72 KCAL/MOL
REMARK 924 INTRA-LIGAND FREE ENERGY PREDICTED BY IDOCK:   -0.13 KCAL/MOL
REMARK 927      BINDING AFFINITY PREDICTED BY RF-SCORE:    0.00 PKD
ROOT
HETATM    1  C   UNL     1      -9.560   4.808  72.291  1.00  0.00    -0.150 C  
HETATM    2  C   UNL     1     -10.500   4.898  73.490  1.00  0.00    -0.278 C  
HETATM    3  C   UNL     1     -10.951   3.421  73.695  1.00  0.00    -0.329 C  
HETATM    4  C   UNL     1     -10.467   2.651  72.468  1.00  0.00    -0.078 C  
HETATM    5  N   UNL     1     -10.041   3.668  71.541  1.00  0.00    -0.102 N  
HETATM    6  C   UNL     1      -9.335   3.272  70.433  1.00  0.00    -0.167 C  
HETATM    7  O   UNL     1      -9.658   2.283  69.781  1.00  0.00    -0.081 OA 
HETATM    8  C   UNL     1      -8.208   4.237  70.018  1.00  0.00    -0.062 C  
HETATM    9  N   UNL     1      -7.641   5.191  71.112  1.00  0.00    -0.092 N  
HETATM   10  C   UNL     1      -5.253   8.019  68.753  1.00  0.00    -0.024 C  
HETATM   11  C   UNL     1      -6.751   6.206  70.803  1.00  0.00    -0.061 C  
HETATM   12  C   UNL     1      -5.936   5.927  67.807  1.00  0.00    -0.017 C  
HETATM   13  O   UNL     1      -5.641   6.337  71.309  1.00  0.00    -0.025 OA 
HETATM   14  C   UNL     1      -7.491   7.193  69.903  1.00  0.00    -0.086 C  
HETATM   15  C   UNL     1      -8.758   5.947  71.515  1.00  0.00    -0.132 C  
HETATM   16  O   UNL     1      -8.507   6.944  72.508  1.00  0.00    -0.117 OA 
HETATM   17  H   UNL     1      -8.029   7.623  72.045  1.00  0.00     0.000 HD 
HETATM   18  C   UNL     1      -6.546   7.156  68.506  1.00  0.00    -0.048 C  
HETATM   19  O   UNL     1      -8.885   6.612  70.249  1.00  0.00    -0.149 OA 
ENDROOT
BRANCH   8  20
HETATM   20  C   UNL     1      -7.174   3.489  69.252  1.00  0.00    -0.049 C  
HETATM   21  C   UNL     1      -5.843   2.638  71.195  1.00  0.00    -0.014 C  
HETATM   22  C   UNL     1      -6.497   2.292  69.860  1.00  0.00    -0.029 C  
HETATM   23  C   UNL     1      -5.437   1.895  68.828  1.00  0.00    -0.013 C  
ENDBRANCH   8  20
BRANCH  14  24
HETATM   24  N   UNL     1      -7.743   8.614  70.094  1.00  0.00    -0.076 N  
HETATM   25  H   UNL     1      -7.460   9.141  70.921  1.00  0.00     0.000 HD 
HETATM   26  O   UNL     1      -9.004   8.398  68.238  1.00  0.00    -0.139 OA 
HETATM   27  C   UNL     1      -8.415   9.161  69.016  1.00  0.00    -0.132 C  
BRANCH  27  28
HETATM   28  C   UNL     1      -8.449  10.669  68.798  1.00  0.00    -0.149 C  
HETATM   29  C   UNL     1      -8.777  11.232  67.396  1.00  0.00    -0.139 C  
HETATM   30  N   UNL     1      -9.488  12.546  67.591  1.00  0.00    -0.182 NA 
HETATM   31  C   UNL     1     -10.925  12.289  68.009  1.00  0.00    -0.225 C  
HETATM   32  C   UNL     1      -9.207  13.476  66.529  1.00  0.00    -0.173 C  
HETATM   33  C   UNL     1     -11.784  13.473  68.693  1.00  0.00    -0.389 C  
HETATM   34  C   UNL     1     -12.431  13.076  70.026  1.00  0.00    -0.112 A  
HETATM   35  C   UNL     1     -12.910  13.727  71.139  1.00  0.00    -0.335 A  
HETATM   36 BR   UNL     1     -13.032  15.573  71.371  1.00  0.00    -0.577 Br 
HETATM   37  N   UNL     1     -13.200  12.806  72.122  1.00  0.00    -0.473 NA 
HETATM   38  C   UNL     1     -12.916  11.529  71.688  1.00  0.00    -0.394 A  
HETATM   39  H   UNL     1     -13.572  13.037  73.043  1.00  0.00     0.000 HD 
HETATM   40  C   UNL     1     -12.827  10.280  72.327  1.00  0.00    -0.211 A  
HETATM   41  C   UNL     1     -12.412   9.176  71.553  1.00  0.00    -0.418 A  
HETATM   42  C   UNL     1     -12.016   9.332  70.233  1.00  0.00     0.065 A  
HETATM   43  C   UNL     1     -11.940  10.626  69.725  1.00  0.00    -0.363 A  
HETATM   44  C   UNL     1     -12.521  11.703  70.379  1.00  0.00    -0.304 A  
HETATM   45  C   UNL     1     -10.804  11.101  68.961  1.00  0.00    -0.276 C  
HETATM   46  C   UNL     1      -9.640  11.024  69.661  1.00  0.00     0.389 C  
ENDBRANCH  27  28
ENDBRANCH  14  24
TORSDOF 3
ENDMDL
MODEL       37
REMARK 921   NORMALIZED FREE ENERGY PREDICTED BY IDOCK:   -6.22 KCAL/MOL
REMARK 922        TOTAL FREE ENERGY PREDICTED BY IDOCK:   -6.84 KCAL/MOL
REMARK 923 INTER-LIGAND FREE ENERGY PREDICTED BY IDOCK:   -7.34 KCAL/MOL
REMARK 924 INTRA-LIGAND FREE ENERGY PREDICTED BY IDOCK:    0.49 KCAL/MOL
REMARK 927      BINDING AFFINITY PREDICTED BY RF-SCORE:    0.00 PKD
ROOT
HETATM    1  C   UNL     1     -10.034   7.206  71.072  1.00  0.00    -0.188 C  
HETATM    2  C   UNL     1     -10.893   7.629  72.260  1.00  0.00    -0.318 C  
HETATM    3  C   UNL     1     -11.117   6.291  73.026  1.00  0.00    -0.237 C  
HETATM    4  C   UNL     1     -10.613   5.180  72.105  1.00  0.00    -0.211 C  
HETATM    5  N   UNL     1     -10.399   5.827  70.836  1.00  0.00    -0.225 N  
HETATM    6  C   UNL     1      -9.722   5.130  69.867  1.00  0.00    -0.199 C  
HETATM    7  O   UNL     1      -9.947   3.943  69.650  1.00  0.00    -0.129 OA 
HETATM    8  C   UNL     1      -8.774   5.990  69.010  1.00  0.00    -0.122 C  
HETATM    9  N   UNL     1      -8.273   7.333  69.622  1.00  0.00    -0.129 N  
HETATM   10  C   UNL     1      -6.474   9.337  66.156  1.00  0.00    -0.069 C  
HETATM   11  C   UNL     1      -7.558   8.252  68.873  1.00  0.00    -0.093 C  
HETATM   12  C   UNL     1      -6.918   6.984  66.098  1.00  0.00    -0.065 C  
HETATM   13  O   UNL     1      -6.445   8.678  69.169  1.00  0.00    -0.042 OA 
HETATM   14  C   UNL     1      -8.489   8.756  67.773  1.00  0.00    -0.125 C  
HETATM   15  C   UNL     1      -9.455   8.060  69.855  1.00  0.00    -0.160 C  
HETATM   16  O   UNL     1      -9.280   9.373  70.395  1.00  0.00    -0.223 OA 
HETATM   17  H   UNL     1      -8.935   9.882  69.670  1.00  0.00     0.000 HD 
HETATM   18  C   UNL     1      -7.646   8.311  66.381  1.00  0.00    -0.091 C  
HETATM   19  O   UNL     1      -9.760   8.197  68.460  1.00  0.00    -0.156 OA 
ENDROOT
BRANCH   8  20
HETATM   20  C   UNL     1      -7.699   5.128  68.446  1.00  0.00    -0.080 C  
HETATM   21  C   UNL     1      -6.133   5.193  70.399  1.00  0.00    -0.018 C  
HETATM   22  C   UNL     1      -6.821   4.315  69.357  1.00  0.00    -0.046 C  
HETATM   23  C   UNL     1      -5.788   3.684  68.418  1.00  0.00    -0.023 C  
ENDBRANCH   8  20
BRANCH  14  24
HETATM   24  N   UNL     1      -8.925  10.113  67.475  1.00  0.00    -0.131 N  
HETATM   25  H   UNL     1      -8.548  10.948  67.924  1.00  0.00     0.000 HD 
HETATM   26  O   UNL     1     -10.534   9.080  66.280  1.00  0.00    -0.179 OA 
HETATM   27  C   UNL     1      -9.916  10.128  66.509  1.00  0.00    -0.224 C  
BRANCH  27  28
HETATM   28  C   UNL     1     -10.255  11.410  65.757  1.00  0.00    -0.295 C  
HETATM   29  C   UNL     1     -11.570  12.158  66.076  1.00  0.00    -0.358 C  
HETATM   30  N   UNL     1     -11.318  13.628  65.855  1.00  0.00    -0.306 NA 
HETATM   31  C   UNL     1     -10.520  14.187  67.018  1.00  0.00    -0.271 C  
HETATM   32  C   UNL     1     -12.498  14.315  65.399  1.00  0.00    -0.425 C  
HETATM   33  C   UNL     1      -9.749  15.597  66.857  1.00  0.00    -0.240 C  
HETATM   34  C   UNL     1      -8.263  15.535  67.233  1.00  0.00    -0.224 A  
HETATM   35  C   UNL     1      -7.128  16.261  66.954  1.00  0.00    -0.211 A  
HETATM   36 BR   UNL     1      -7.044  17.838  65.964  1.00  0.00    -0.288 Br 
HETATM   37  N   UNL     1      -6.024  15.590  67.432  1.00  0.00    -0.330 NA 
HETATM   38  C   UNL     1      -6.397  14.407  68.033  1.00  0.00    -0.155 A  
HETATM   39  H   UNL     1      -5.063  15.923  67.353  1.00  0.00     0.000 HD 
HETATM   40  C   UNL     1      -5.691  13.280  68.486  1.00  0.00    -0.083 A  
HETATM   41  C   UNL     1      -6.441  12.191  68.977  1.00  0.00    -0.092 A  
HETATM   42  C   UNL     1      -7.827  12.193  68.930  1.00  0.00     0.070 A  
HETATM   43  C   UNL     1      -8.454  13.256  68.286  1.00  0.00    -0.160 A  
HETATM   44  C   UNL     1      -7.774  14.425  67.972  1.00  0.00    -0.140 A  
HETATM   45  C   UNL     1      -9.527  13.069  67.329  1.00  0.00    -0.224 C  
HETATM   46  C   UNL     1      -9.149  12.306  66.269  1.00  0.00    -0.125 C  
ENDBRANCH  27  28
ENDBRANCH  14  24
TORSDOF 3
ENDMDL
MODEL       38
REMARK 921   NORMALIZED FREE ENERGY PREDICTED BY IDOCK:   -6.08 KCAL/MOL
REMARK 922        TOTAL FREE ENERGY PREDICTED BY IDOCK:   -6.68 KCAL/MOL
REMARK 923 INTER-LIGAND FREE ENERGY PREDICTED BY IDOCK:   -7.88 KCAL/MOL
REMARK 924 INTRA-LIGAND FREE ENERGY PREDICTED BY IDOCK:    1.20 KCAL/MOL
REMARK 927      BINDING AFFINITY PREDICTED BY RF-SCORE:    0.00 PKD
ROOT
HETATM    1  C   UNL     1     -12.249  13.925  70.142  1.00  0.00    -0.358 C  
HETATM    2  C   UNL     1     -12.749  13.254  71.419  1.00  0.00    -0.401 C  
HETATM    3  C   UNL     1     -12.935  14.452  72.397  1.00  0.00    -0.478 C  
HETATM    4  C   UNL     1     -12.289  15.661  71.721  1.00  0.00    -0.427 C  
HETATM    5  N   UNL     1     -11.564  15.112  70.604  1.00  0.00    -0.286 N  
HETATM    6  C   UNL     1     -11.070  15.985  69.668  1.00  0.00    -0.331 C  
HETATM    7  O   UNL     1     -10.522  17.035  69.990  1.00  0.00    -0.058 OA 
HETATM    8  C   UNL     1     -11.146  15.472  68.217  1.00  0.00    -0.322 C  
HETATM    9  N   UNL     1     -12.196  14.365  67.901  1.00  0.00    -0.240 N  
HETATM   10  C   UNL     1     -10.987  13.030  63.899  1.00  0.00    -0.375 C  
HETATM   11  C   UNL     1     -12.229  13.721  66.676  1.00  0.00    -0.409 C  
HETATM   12  C   UNL     1     -10.192  15.115  64.772  1.00  0.00    -0.085 C  
HETATM   13  O   UNL     1     -13.209  13.678  65.937  1.00  0.00    -0.285 OA 
HETATM   14  C   UNL     1     -10.925  12.939  66.545  1.00  0.00    -0.275 C  
HETATM   15  C   UNL     1     -11.825  13.296  68.739  1.00  0.00    -0.334 C  
HETATM   16  O   UNL     1     -12.619  12.114  68.625  1.00  0.00     0.159 OA 
HETATM   17  H   UNL     1     -12.366  11.739  67.789  1.00  0.00     0.000 HD 
HETATM   18  C   UNL     1     -10.253  13.625  65.157  1.00  0.00    -0.349 C  
HETATM   19  O   UNL     1     -10.587  13.061  68.051  1.00  0.00    -0.223 OA 
ENDROOT
BRANCH   8  20
HETATM   20  C   UNL     1     -11.168  16.632  67.284  1.00  0.00     0.177 C  
HETATM   21  C   UNL     1      -8.779  17.337  67.543  1.00  0.00    -0.212 C  
HETATM   22  C   UNL     1      -9.915  17.051  66.565  1.00  0.00    -0.318 C  
HETATM   23  C   UNL     1     -10.319  18.327  65.820  1.00  0.00    -0.193 C  
ENDBRANCH   8  20
BRANCH  14  24
HETATM   24  N   UNL     1     -10.714  11.512  66.343  1.00  0.00    -0.264 N  
HETATM   25  H   UNL     1     -11.459  10.815  66.356  1.00  0.00     0.000 HD 
HETATM   26  O   UNL     1      -8.531  12.058  66.466  1.00  0.00    -0.160 OA 
HETATM   27  C   UNL     1      -9.379  11.220  66.132  1.00  0.00    -0.211 C  
BRANCH  27  28
HETATM   28  C   UNL     1      -8.956   9.889  65.520  1.00  0.00    -0.209 C  
HETATM   29  C   UNL     1      -7.657   9.810  64.685  1.00  0.00    -0.134 C  
HETATM   30  N   UNL     1      -7.082   8.430  64.874  1.00  0.00    -0.078 NA 
HETATM   31  C   UNL     1      -6.414   8.340  66.234  1.00  0.00    -0.047 C  
HETATM   32  C   UNL     1      -6.385   7.970  63.701  1.00  0.00    -0.067 C  
HETATM   33  C   UNL     1      -6.097   6.892  66.876  1.00  0.00    -0.036 C  
HETATM   34  C   UNL     1      -6.640   6.717  68.300  1.00  0.00    -0.062 A  
HETATM   35  C   UNL     1      -6.976   5.665  69.121  1.00  0.00    -0.063 A  
HETATM   36 BR   UNL     1      -6.750   3.854  68.741  1.00  0.00    -0.046 Br 
HETATM   37  N   UNL     1      -7.610   6.144  70.246  1.00  0.00    -0.093 NA 
HETATM   38  C   UNL     1      -7.715   7.517  70.197  1.00  0.00    -0.089 A  
HETATM   39  H   UNL     1      -7.955   5.563  71.010  1.00  0.00     0.000 HD 
HETATM   40  C   UNL     1      -8.427   8.467  70.949  1.00  0.00    -0.176 A  
HETATM   41  C   UNL     1      -8.358   9.815  70.536  1.00  0.00    -0.014 A  
HETATM   42  C   UNL     1      -7.687  10.178  69.377  1.00  0.00    -0.138 A  
HETATM   43  C   UNL     1      -7.174   9.161  68.577  1.00  0.00    -0.073 A  
HETATM   44  C   UNL     1      -7.049   7.859  69.040  1.00  0.00    -0.070 A  
HETATM   45  C   UNL     1      -7.357   9.130  67.139  1.00  0.00    -0.087 C  
HETATM   46  C   UNL     1      -8.669   9.108  66.783  1.00  0.00    -0.138 C  
ENDBRANCH  27  28
ENDBRANCH  14  24
TORSDOF 3
ENDMDL
MODEL       39
REMARK 921   NORMALIZED FREE ENERGY PREDICTED BY IDOCK:   -6.07 KCAL/MOL
REMARK 922        TOTAL FREE ENERGY PREDICTED BY IDOCK:   -6.67 KCAL/MOL
REMARK 923 INTER-LIGAND FREE ENERGY PREDICTED BY IDOCK:   -8.59 KCAL/MOL
REMARK 924 INTRA-LIGAND FREE ENERGY PREDICTED BY IDOCK:    1.92 KCAL/MOL
REMARK 927      BINDING AFFINITY PREDICTED BY RF-SCORE:    0.00 PKD
ROOT
HETATM    1  C   UNL     1     -10.221  10.925  65.135  1.00  0.00    -0.297 C  
HETATM    2  C   UNL     1      -9.615  10.393  63.839  1.00  0.00    -0.370 C  
HETATM    3  C   UNL     1      -9.800  11.584  62.851  1.00  0.00    -0.279 C  
HETATM    4  C   UNL     1     -10.717  12.585  63.553  1.00  0.00    -0.376 C  
HETATM    5  N   UNL     1     -11.219  11.878  64.702  1.00  0.00    -0.313 N  
HETATM    6  C   UNL     1     -11.889  12.600  65.658  1.00  0.00    -0.437 C  
HETATM    7  O   UNL     1     -12.711  13.460  65.358  1.00  0.00    -0.526 OA 
HETATM    8  C   UNL     1     -11.616  12.146  67.104  1.00  0.00    -0.335 C  
HETATM    9  N   UNL     1     -10.295  11.366  67.375  1.00  0.00    -0.196 N  
HETATM   10  C   UNL     1     -10.928   9.813  71.431  1.00  0.00    -0.258 C  
HETATM   11  C   UNL     1     -10.037  10.772  68.599  1.00  0.00    -0.183 C  
HETATM   12  C   UNL     1     -12.290  11.596  70.590  1.00  0.00    -0.437 C  
HETATM   13  O   UNL     1      -9.051  11.004  69.293  1.00  0.00    -0.065 OA 
HETATM   14  C   UNL     1     -11.077   9.671  68.791  1.00  0.00    -0.049 C  
HETATM   15  C   UNL     1     -10.401  10.225  66.557  1.00  0.00    -0.211 C  
HETATM   16  O   UNL     1      -9.315   9.300  66.638  1.00  0.00    -0.152 OA 
HETATM   17  H   UNL     1      -9.422   8.884  67.486  1.00  0.00     0.000 HD 
HETATM   18  C   UNL     1     -11.849  10.172  70.206  1.00  0.00    -0.342 C  
HETATM   19  O   UNL     1     -11.500   9.677  67.301  1.00  0.00     0.247 OA 
ENDROOT
BRANCH   8  20
HETATM   20  C   UNL     1     -11.866  13.283  68.033  1.00  0.00    -0.392 C  
HETATM   21  C   UNL     1      -9.787  14.594  67.551  1.00  0.00    -0.218 C  
HETATM   22  C   UNL     1     -11.301  14.645  67.735  1.00  0.00    -0.338 C  
HETATM   23  C   UNL     1     -11.667  15.481  68.966  1.00  0.00    -0.392 C  
ENDBRANCH   8  20
BRANCH  14  24
HETATM   24  N   UNL     1     -10.889   8.244  69.005  1.00  0.00    -0.421 N  
HETATM   25  H   UNL     1     -11.651   7.575  69.119  1.00  0.00     0.000 HD 
HETATM   26  O   UNL     1      -8.717   8.804  69.229  1.00  0.00    -0.132 OA 
HETATM   27  C   UNL     1      -9.547   7.906  69.036  1.00  0.00    -0.155 C  
BRANCH  27  28
HETATM   28  C   UNL     1      -9.099   6.460  68.858  1.00  0.00    -0.129 C  
HETATM   29  C   UNL     1      -7.710   6.160  68.250  1.00  0.00    -0.103 C  
HETATM   30  N   UNL     1      -7.213   4.879  68.869  1.00  0.00    -0.053 NA 
HETATM   31  C   UNL     1      -6.724   5.153  70.280  1.00  0.00    -0.040 C  
HETATM   32  C   UNL     1      -6.391   4.123  67.960  1.00  0.00    -0.037 C  
HETATM   33  C   UNL     1      -6.543   3.928  71.317  1.00  0.00    -0.026 C  
HETATM   34  C   UNL     1      -7.266   4.139  72.653  1.00  0.00    -0.067 A  
HETATM   35  C   UNL     1      -7.739   3.343  73.671  1.00  0.00    -0.066 A  
HETATM   36 BR   UNL     1      -7.533   1.496  73.815  1.00  0.00    -0.029 Br 
HETATM   37  N   UNL     1      -8.492   4.106  74.538  1.00  0.00    -0.092 NA 
HETATM   38  C   UNL     1      -8.540   5.416  74.115  1.00  0.00    -0.114 A  
HETATM   39  H   UNL     1      -8.951   3.749  75.376  1.00  0.00     0.000 HD 
HETATM   40  C   UNL     1      -9.306   6.533  74.490  1.00  0.00    -0.253 A  
HETATM   41  C   UNL     1      -9.137   7.722  73.749  1.00  0.00    -0.333 A  
HETATM   42  C   UNL     1      -8.314   7.763  72.633  1.00  0.00    -0.177 A  
HETATM   43  C   UNL     1      -7.742   6.569  72.204  1.00  0.00    -0.097 A  
HETATM   44  C   UNL     1      -7.723   5.437  73.006  1.00  0.00    -0.098 A  
HETATM   45  C   UNL     1      -7.744   6.157  70.814  1.00  0.00    -0.102 C  
HETATM   46  C   UNL     1      -9.001   6.043  70.308  1.00  0.00    -0.152 C  
ENDBRANCH  27  28
ENDBRANCH  14  24
TORSDOF 3
ENDMDL
MODEL       40
REMARK 921   NORMALIZED FREE ENERGY PREDICTED BY IDOCK:   -6.07 KCAL/MOL
REMARK 922        TOTAL FREE ENERGY PREDICTED BY IDOCK:   -6.67 KCAL/MOL
REMARK 923 INTER-LIGAND FREE ENERGY PREDICTED BY IDOCK:   -7.48 KCAL/MOL
REMARK 924 INTRA-LIGAND FREE ENERGY PREDICTED BY IDOCK:    0.82 KCAL/MOL
REMARK 927      BINDING AFFINITY PREDICTED BY RF-SCORE:    0.00 PKD
ROOT
HETATM    1  C   UNL     1      -9.443  16.336  67.842  1.00  0.00    -0.218 C  
HETATM    2  C   UNL     1      -8.694  17.527  68.434  1.00  0.00    -0.276 C  
HETATM    3  C   UNL     1      -9.147  18.712  67.530  1.00  0.00    -0.293 C  
HETATM    4  C   UNL     1      -9.889  18.090  66.348  1.00  0.00    -0.340 C  
HETATM    5  N   UNL     1      -9.619  16.679  66.448  1.00  0.00    -0.269 N  
HETATM    6  C   UNL     1     -10.348  15.828  65.655  1.00  0.00    -0.388 C  
HETATM    7  O   UNL     1     -10.578  16.083  64.477  1.00  0.00    -0.480 OA 
HETATM    8  C   UNL     1     -10.724  14.495  66.330  1.00  0.00    -0.309 C  
HETATM    9  N   UNL     1     -10.746  14.460  67.887  1.00  0.00    -0.242 N  
HETATM   10  C   UNL     1     -11.009  10.161  68.732  1.00  0.00    -0.264 C  
HETATM   11  C   UNL     1     -10.905  13.276  68.587  1.00  0.00    -0.259 C  
HETATM   12  C   UNL     1     -11.529  11.001  66.549  1.00  0.00     0.225 C  
HETATM   13  O   UNL     1     -11.791  13.066  69.410  1.00  0.00    -0.306 OA 
HETATM   14  C   UNL     1      -9.684  12.410  68.287  1.00  0.00    -0.218 C  
HETATM   15  C   UNL     1      -9.427  14.795  68.252  1.00  0.00    -0.207 C  
HETATM   16  O   UNL     1      -9.156  14.803  69.656  1.00  0.00    -0.424 OA 
HETATM   17  H   UNL     1      -9.147  13.885  69.900  1.00  0.00     0.000 HD 
HETATM   18  C   UNL     1     -10.393  11.049  67.587  1.00  0.00    -0.223 C  
HETATM   19  O   UNL     1      -8.869  13.592  67.705  1.00  0.00    -0.179 OA 
ENDROOT
BRANCH   8  20
HETATM   20  C   UNL     1     -11.943  13.940  65.680  1.00  0.00    -0.409 C  
HETATM   21  C   UNL     1     -10.862  13.056  63.601  1.00  0.00    -0.164 C  
HETATM   22  C   UNL     1     -11.836  12.770  64.741  1.00  0.00    -0.423 C  
HETATM   23  C   UNL     1     -13.259  12.591  64.201  1.00  0.00     0.117 C  
ENDBRANCH   8  20
BRANCH  14  24
HETATM   24  N   UNL     1      -8.704  11.839  69.201  1.00  0.00    -0.310 N  
HETATM   25  H   UNL     1      -8.645  12.065  70.194  1.00  0.00     0.000 HD 
HETATM   26  O   UNL     1      -7.789  11.000  67.319  1.00  0.00    -0.114 OA 
HETATM   27  C   UNL     1      -7.862  10.952  68.554  1.00  0.00    -0.126 C  
BRANCH  27  28
HETATM   28  C   UNL     1      -7.026   9.951  69.342  1.00  0.00    -0.063 C  
HETATM   29  C   UNL     1      -7.573   9.377  70.670  1.00  0.00    -0.144 C  
HETATM   30  N   UNL     1      -7.035   7.975  70.812  1.00  0.00    -0.044 NA 
HETATM   31  C   UNL     1      -7.804   7.041  69.895  1.00  0.00    -0.114 C  
HETATM   32  C   UNL     1      -6.825   7.615  72.190  1.00  0.00    -0.061 C  
HETATM   33  C   UNL     1      -7.183   5.599  69.519  1.00  0.00    -0.066 C  
HETATM   34  C   UNL     1      -7.122   5.327  68.011  1.00  0.00    -0.066 A  
HETATM   35  C   UNL     1      -6.405   4.507  67.169  1.00  0.00    -0.041 A  
HETATM   36 BR   UNL     1      -5.173   3.207  67.682  1.00  0.00    -0.013 Br 
HETATM   37  N   UNL     1      -6.656   4.860  65.861  1.00  0.00    -0.044 NA 
HETATM   38  C   UNL     1      -7.536   5.919  65.803  1.00  0.00    -0.087 A  
HETATM   39  H   UNL     1      -6.247   4.400  65.047  1.00  0.00     0.000 HD 
HETATM   40  C   UNL     1      -7.957   6.780  64.776  1.00  0.00    -0.120 A  
HETATM   41  C   UNL     1      -8.826   7.836  65.122  1.00  0.00     0.138 A  
HETATM   42  C   UNL     1      -9.180   8.074  66.442  1.00  0.00    -0.245 A  
HETATM   43  C   UNL     1      -8.568   7.304  67.427  1.00  0.00    -0.121 A  
HETATM   44  C   UNL     1      -7.871   6.143  67.121  1.00  0.00    -0.102 A  
HETATM   45  C   UNL     1      -8.007   7.879  68.634  1.00  0.00    -0.124 C  
HETATM   46  C   UNL     1      -7.034   8.791  68.371  1.00  0.00    -0.066 C  
ENDBRANCH  27  28
ENDBRANCH  14  24
TORSDOF 3
ENDMDL
MODEL       41
REMARK 921   NORMALIZED FREE ENERGY PREDICTED BY IDOCK:   -6.03 KCAL/MOL
REMARK 922        TOTAL FREE ENERGY PREDICTED BY IDOCK:   -6.62 KCAL/MOL
REMARK 923 INTER-LIGAND FREE ENERGY PREDICTED BY IDOCK:   -8.66 KCAL/MOL
REMARK 924 INTRA-LIGAND FREE ENERGY PREDICTED BY IDOCK:    2.04 KCAL/MOL
REMARK 927      BINDING AFFINITY PREDICTED BY RF-SCORE:    0.00 PKD
ROOT
HETATM    1  C   UNL     1      -7.127  13.152  68.952  1.00  0.00    -0.075 C  
HETATM    2  C   UNL     1      -6.248  12.643  70.091  1.00  0.00    -0.026 C  
HETATM    3  C   UNL     1      -5.618  13.949  70.660  1.00  0.00    -0.161 C  
HETATM    4  C   UNL     1      -5.956  15.057  69.663  1.00  0.00    -0.116 C  
HETATM    5  N   UNL     1      -6.478  14.368  68.512  1.00  0.00    -0.088 N  
HETATM    6  C   UNL     1      -7.089  15.117  67.537  1.00  0.00    -0.198 C  
HETATM    7  O   UNL     1      -6.618  16.184  67.154  1.00  0.00    -0.181 OA 
HETATM    8  C   UNL     1      -8.315  14.443  66.893  1.00  0.00    -0.078 C  
HETATM    9  N   UNL     1      -9.038  13.333  67.713  1.00  0.00    -0.192 N  
HETATM   10  C   UNL     1     -11.688  11.521  64.719  1.00  0.00    -0.013 C  
HETATM   11  C   UNL     1     -10.040  12.554  67.158  1.00  0.00    -0.214 C  
HETATM   12  C   UNL     1     -10.709  13.673  64.327  1.00  0.00    -0.280 C  
HETATM   13  O   UNL     1     -11.175  12.450  67.615  1.00  0.00    -0.253 OA 
HETATM   14  C   UNL     1      -9.403  11.731  66.041  1.00  0.00    -0.220 C  
HETATM   15  C   UNL     1      -8.042  12.358  67.914  1.00  0.00    -0.161 C  
HETATM   16  O   UNL     1      -8.453  11.189  68.626  1.00  0.00    -0.149 OA 
HETATM   17  H   UNL     1      -8.998  10.715  68.008  1.00  0.00     0.000 HD 
HETATM   18  C   UNL     1     -10.287  12.239  64.697  1.00  0.00    -0.330 C  
HETATM   19  O   UNL     1      -7.959  12.017  66.522  1.00  0.00    -0.057 OA 
ENDROOT
BRANCH   8  20
HETATM   20  C   UNL     1      -9.218  15.489  66.337  1.00  0.00    -0.339 C  
HETATM   21  C   UNL     1     -10.339  16.157  68.474  1.00  0.00    -0.254 C  
HETATM   22  C   UNL     1      -9.663  16.641  67.195  1.00  0.00    -0.250 C  
HETATM   23  C   UNL     1     -10.657  17.403  66.314  1.00  0.00    -0.194 C  
ENDBRANCH   8  20
BRANCH  14  24
HETATM   24  N   UNL     1      -9.343  10.287  65.871  1.00  0.00    -0.171 N  
HETATM   25  H   UNL     1      -8.825   9.818  65.127  1.00  0.00     0.000 HD 
HETATM   26  O   UNL     1     -10.924  10.268  67.477  1.00  0.00    -0.297 OA 
HETATM   27  C   UNL     1     -10.075   9.628  66.843  1.00  0.00    -0.227 C  
BRANCH  27  28
HETATM   28  C   UNL     1      -9.858   8.144  67.115  1.00  0.00    -0.281 C  
HETATM   29  C   UNL     1      -8.422   7.605  67.308  1.00  0.00    -0.121 C  
HETATM   30  N   UNL     1      -8.501   6.445  68.269  1.00  0.00    -0.116 NA 
HETATM   31  C   UNL     1      -8.676   6.968  69.683  1.00  0.00    -0.141 C  
HETATM   32  C   UNL     1      -7.500   5.447  67.993  1.00  0.00    -0.077 C  
HETATM   33  C   UNL     1      -9.212   5.979  70.841  1.00  0.00    -0.165 C  
HETATM   34  C   UNL     1     -10.419   6.528  71.612  1.00  0.00    -0.241 A  
HETATM   35  C   UNL     1     -11.440   6.009  72.375  1.00  0.00    -0.308 A  
HETATM   36 BR   UNL     1     -11.652   4.223  72.866  1.00  0.00     0.184 Br 
HETATM   37  N   UNL     1     -12.360   6.998  72.647  1.00  0.00    -0.415 NA 
HETATM   38  C   UNL     1     -11.976   8.189  72.070  1.00  0.00    -0.340 A  
HETATM   39  H   UNL     1     -13.207   6.867  73.198  1.00  0.00     0.000 HD 
HETATM   40  C   UNL     1     -12.618   9.422  71.860  1.00  0.00    -0.481 A  
HETATM   41  C   UNL     1     -11.920  10.408  71.132  1.00  0.00    -0.460 A  
HETATM   42  C   UNL     1     -10.683  10.143  70.564  1.00  0.00    -0.295 A  
HETATM   43  C   UNL     1     -10.198   8.841  70.643  1.00  0.00    -0.247 A  
HETATM   44  C   UNL     1     -10.750   7.905  71.507  1.00  0.00    -0.267 A  
HETATM   45  C   UNL     1      -9.633   8.146  69.503  1.00  0.00    -0.168 C  
HETATM   46  C   UNL     1     -10.514   8.036  68.473  1.00  0.00    -0.200 C  
ENDBRANCH  27  28
ENDBRANCH  14  24
TORSDOF 3
ENDMDL
MODEL       42
REMARK 921   NORMALIZED FREE ENERGY PREDICTED BY IDOCK:   -5.97 KCAL/MOL
REMARK 922        TOTAL FREE ENERGY PREDICTED BY IDOCK:   -6.55 KCAL/MOL
REMARK 923 INTER-LIGAND FREE ENERGY PREDICTED BY IDOCK:   -8.47 KCAL/MOL
REMARK 924 INTRA-LIGAND FREE ENERGY PREDICTED BY IDOCK:    1.92 KCAL/MOL
REMARK 927      BINDING AFFINITY PREDICTED BY RF-SCORE:    0.00 PKD
ROOT
HETATM    1  C   UNL     1     -10.188   5.049  72.216  1.00  0.00    -0.201 C  
HETATM    2  C   UNL     1     -10.710   5.529  73.567  1.00  0.00    -0.322 C  
HETATM    3  C   UNL     1     -10.328   4.363  74.526  1.00  0.00    -0.300 C  
HETATM    4  C   UNL     1      -9.869   3.209  73.636  1.00  0.00    -0.105 C  
HETATM    5  N   UNL     1     -10.239   3.606  72.302  1.00  0.00    -0.151 N  
HETATM    6  C   UNL     1      -9.743   2.873  71.253  1.00  0.00    -0.135 C  
HETATM    7  O   UNL     1      -9.709   1.646  71.283  1.00  0.00    -0.129 OA 
HETATM    8  C   UNL     1      -9.368   3.708  70.015  1.00  0.00    -0.178 C  
HETATM    9  N   UNL     1      -9.066   5.221  70.233  1.00  0.00    -0.131 N  
HETATM   10  C   UNL     1      -9.028   6.778  66.129  1.00  0.00    -0.157 C  
HETATM   11  C   UNL     1      -8.886   6.089  69.169  1.00  0.00    -0.119 C  
HETATM   12  C   UNL     1      -8.842   4.424  66.533  1.00  0.00    -0.114 C  
HETATM   13  O   UNL     1      -7.887   6.780  68.995  1.00  0.00    -0.107 OA 
HETATM   14  C   UNL     1     -10.212   6.156  68.415  1.00  0.00    -0.175 C  
HETATM   15  C   UNL     1     -10.262   5.730  70.775  1.00  0.00    -0.219 C  
HETATM   16  O   UNL     1     -10.273   7.133  71.045  1.00  0.00    -0.196 OA 
HETATM   17  H   UNL     1     -10.317   7.539  70.187  1.00  0.00     0.000 HD 
HETATM   18  C   UNL     1      -9.762   5.608  66.883  1.00  0.00    -0.162 C  
HETATM   19  O   UNL     1     -11.014   5.509  69.572  1.00  0.00    -0.288 OA 
ENDROOT
BRANCH   8  20
HETATM   20  C   UNL     1      -8.339   2.980  69.221  1.00  0.00    -0.087 C  
HETATM   21  C   UNL     1      -6.339   3.580  70.603  1.00  0.00    -0.027 C  
HETATM   22  C   UNL     1      -7.093   2.464  69.886  1.00  0.00    -0.033 C  
HETATM   23  C   UNL     1      -6.256   1.903  68.732  1.00  0.00    -0.025 C  
ENDBRANCH   8  20
BRANCH  14  24
HETATM   24  N   UNL     1     -11.055   7.305  68.120  1.00  0.00    -0.478 N  
HETATM   25  H   UNL     1     -11.932   7.255  67.601  1.00  0.00     0.000 HD 
HETATM   26  O   UNL     1      -9.319   8.489  68.937  1.00  0.00    -0.146 OA 
HETATM   27  C   UNL     1     -10.519   8.474  68.632  1.00  0.00    -0.169 C  
BRANCH  27  28
HETATM   28  C   UNL     1     -11.379   9.722  68.797  1.00  0.00     0.016 C  
HETATM   29  C   UNL     1     -10.975  10.795  69.834  1.00  0.00    -0.239 C  
HETATM   30  N   UNL     1     -11.424  12.131  69.299  1.00  0.00    -0.287 NA 
HETATM   31  C   UNL     1     -10.475  12.587  68.206  1.00  0.00    -0.234 C  
HETATM   32  C   UNL     1     -11.791  13.040  70.354  1.00  0.00    -0.165 C  
HETATM   33  C   UNL     1     -10.934  13.743  67.176  1.00  0.00    -0.299 C  
HETATM   34  C   UNL     1     -10.773  13.355  65.701  1.00  0.00    -0.283 A  
HETATM   35  C   UNL     1     -11.309  13.752  64.498  1.00  0.00    -0.380 A  
HETATM   36 BR   UNL     1     -12.502  15.159  64.232  1.00  0.00     0.221 Br 
HETATM   37  N   UNL     1     -10.911  12.880  63.508  1.00  0.00    -0.554 NA 
HETATM   38  C   UNL     1     -10.110  11.887  64.028  1.00  0.00    -0.334 A  
HETATM   39  H   UNL     1     -11.174  12.959  62.525  1.00  0.00     0.000 HD 
HETATM   40  C   UNL     1      -9.618  10.670  63.527  1.00  0.00    -0.366 A  
HETATM   41  C   UNL     1      -8.882   9.849  64.408  1.00  0.00    -0.245 A  
HETATM   42  C   UNL     1      -8.727  10.185  65.744  1.00  0.00    -0.166 A  
HETATM   43  C   UNL     1      -9.408  11.303  66.216  1.00  0.00    -0.226 A  
HETATM   44  C   UNL     1      -9.971  12.235  65.355  1.00  0.00    -0.264 A  
HETATM   45  C   UNL     1     -10.165  11.294  67.453  1.00  0.00    -0.217 C  
HETATM   46  C   UNL     1     -11.157  10.365  67.447  1.00  0.00    -0.297 C  
ENDBRANCH  27  28
ENDBRANCH  14  24
TORSDOF 3
ENDMDL
MODEL       43
REMARK 921   NORMALIZED FREE ENERGY PREDICTED BY IDOCK:   -5.97 KCAL/MOL
REMARK 922        TOTAL FREE ENERGY PREDICTED BY IDOCK:   -6.55 KCAL/MOL
REMARK 923 INTER-LIGAND FREE ENERGY PREDICTED BY IDOCK:   -6.94 KCAL/MOL
REMARK 924 INTRA-LIGAND FREE ENERGY PREDICTED BY IDOCK:    0.39 KCAL/MOL
REMARK 927      BINDING AFFINITY PREDICTED BY RF-SCORE:    0.00 PKD
ROOT
HETATM    1  C   UNL     1     -11.574   8.670  70.900  1.00  0.00    -0.269 C  
HETATM    2  C   UNL     1     -12.881   9.197  71.486  1.00  0.00    -0.412 C  
HETATM    3  C   UNL     1     -13.399   7.994  72.330  1.00  0.00    -0.122 C  
HETATM    4  C   UNL     1     -12.518   6.801  71.959  1.00  0.00    -0.244 C  
HETATM    5  N   UNL     1     -11.771   7.240  70.809  1.00  0.00    -0.306 N  
HETATM    6  C   UNL     1     -10.721   6.463  70.390  1.00  0.00    -0.262 C  
HETATM    7  O   UNL     1     -10.804   5.239  70.339  1.00  0.00    -0.213 OA 
HETATM    8  C   UNL     1      -9.506   7.259  69.878  1.00  0.00    -0.157 C  
HETATM    9  N   UNL     1      -9.354   8.731  70.365  1.00  0.00    -0.169 N  
HETATM   10  C   UNL     1      -6.235  10.291  67.700  1.00  0.00    -0.057 C  
HETATM   11  C   UNL     1      -8.397   9.579  69.833  1.00  0.00    -0.170 C  
HETATM   12  C   UNL     1      -6.564   7.928  67.926  1.00  0.00    -0.056 C  
HETATM   13  O   UNL     1      -7.541  10.163  70.491  1.00  0.00    -0.269 OA 
HETATM   14  C   UNL     1      -8.749   9.787  68.362  1.00  0.00    -0.120 C  
HETATM   15  C   UNL     1     -10.530   9.360  69.911  1.00  0.00    -0.233 C  
HETATM   16  O   UNL     1     -10.636  10.756  70.199  1.00  0.00    -0.458 OA 
HETATM   17  H   UNL     1     -10.014  11.167  69.611  1.00  0.00     0.000 HD 
HETATM   18  C   UNL     1      -7.365   9.201  67.594  1.00  0.00    -0.087 C  
HETATM   19  O   UNL     1     -10.182   9.224  68.525  1.00  0.00    -0.187 OA 
ENDROOT
BRANCH   8  20
HETATM   20  C   UNL     1      -8.277   6.429  70.020  1.00  0.00    -0.125 C  
HETATM   21  C   UNL     1      -7.698   7.060  72.373  1.00  0.00    -0.094 C  
HETATM   22  C   UNL     1      -7.857   5.920  71.371  1.00  0.00    -0.112 C  
HETATM   23  C   UNL     1      -6.511   5.237  71.114  1.00  0.00    -0.035 C  
ENDBRANCH   8  20
BRANCH  14  24
HETATM   24  N   UNL     1      -9.030  11.020  67.641  1.00  0.00    -0.140 N  
HETATM   25  H   UNL     1      -8.679  11.938  67.914  1.00  0.00     0.000 HD 
HETATM   26  O   UNL     1     -10.476   9.734  66.484  1.00  0.00    -0.211 OA 
HETATM   27  C   UNL     1      -9.835  10.792  66.538  1.00  0.00    -0.203 C  
BRANCH  27  28
HETATM   28  C   UNL     1      -9.947  11.826  65.425  1.00  0.00    -0.284 C  
HETATM   29  C   UNL     1     -11.226  11.879  64.557  1.00  0.00    -0.319 C  
HETATM   30  N   UNL     1     -11.435  13.315  64.148  1.00  0.00    -0.389 NA 
HETATM   31  C   UNL     1     -11.993  14.101  65.320  1.00  0.00    -0.381 C  
HETATM   32  C   UNL     1     -12.055  13.422  62.853  1.00  0.00     0.570 C  
HETATM   33  C   UNL     1     -11.913  15.714  65.313  1.00  0.00     0.460 C  
HETATM   34  C   UNL     1     -11.275  16.306  66.576  1.00  0.00     0.267 A  
HETATM   35  C   UNL     1     -10.651  17.482  66.926  1.00  0.00    -0.219 A  
HETATM   36 BR   UNL     1     -10.445  18.985  65.844  1.00  0.00    -0.355 Br 
HETATM   37  N   UNL     1     -10.100  17.353  68.182  1.00  0.00    -0.309 NA 
HETATM   38  C   UNL     1     -10.338  16.094  68.691  1.00  0.00    -0.252 A  
HETATM   39  H   UNL     1      -9.586  18.088  68.668  1.00  0.00     0.000 HD 
HETATM   40  C   UNL     1      -9.845  15.382  69.797  1.00  0.00    -0.236 A  
HETATM   41  C   UNL     1     -10.262  14.043  69.953  1.00  0.00     0.748 A  
HETATM   42  C   UNL     1     -11.058  13.422  69.000  1.00  0.00    -0.293 A  
HETATM   43  C   UNL     1     -11.344  14.126  67.834  1.00  0.00    -0.318 A  
HETATM   44  C   UNL     1     -11.123  15.493  67.731  1.00  0.00    -0.315 A  
HETATM   45  C   UNL     1     -11.230  13.535  66.515  1.00  0.00    -0.322 C  
HETATM   46  C   UNL     1      -9.972  13.091  66.253  1.00  0.00    -0.283 C  
ENDBRANCH  27  28
ENDBRANCH  14  24
TORSDOF 3
ENDMDL
MODEL       44
REMARK 921   NORMALIZED FREE ENERGY PREDICTED BY IDOCK:   -5.95 KCAL/MOL
REMARK 922        TOTAL FREE ENERGY PREDICTED BY IDOCK:   -6.53 KCAL/MOL
REMARK 923 INTER-LIGAND FREE ENERGY PREDICTED BY IDOCK:   -6.86 KCAL/MOL
REMARK 924 INTRA-LIGAND FREE ENERGY PREDICTED BY IDOCK:    0.33 KCAL/MOL
REMARK 927      BINDING AFFINITY PREDICTED BY RF-SCORE:    0.00 PKD
ROOT
HETATM    1  C   UNL     1      -8.912   4.466  67.446  1.00  0.00    -0.117 C  
HETATM    2  C   UNL     1      -9.262   3.987  66.039  1.00  0.00    -0.153 C  
HETATM    3  C   UNL     1      -8.114   2.987  65.713  1.00  0.00    -0.086 C  
HETATM    4  C   UNL     1      -7.068   3.161  66.813  1.00  0.00    -0.054 C  
HETATM    5  N   UNL     1      -7.472   4.350  67.518  1.00  0.00    -0.073 N  
HETATM    6  C   UNL     1      -6.855   4.630  68.711  1.00  0.00    -0.051 C  
HETATM    7  O   UNL     1      -5.642   4.503  68.855  1.00  0.00    -0.011 OA 
HETATM    8  C   UNL     1      -7.784   5.231  69.782  1.00  0.00    -0.073 C  
HETATM    9  N   UNL     1      -9.312   4.963  69.640  1.00  0.00    -0.118 N  
HETATM   10  C   UNL     1     -11.039   7.768  72.540  1.00  0.00    -0.403 C  
HETATM   11  C   UNL     1     -10.241   5.595  70.449  1.00  0.00    -0.235 C  
HETATM   12  C   UNL     1      -8.713   7.204  72.638  1.00  0.00    -0.138 C  
HETATM   13  O   UNL     1     -11.062   5.014  71.153  1.00  0.00     0.092 OA 
HETATM   14  C   UNL     1     -10.171   7.086  70.132  1.00  0.00    -0.193 C  
HETATM   15  C   UNL     1      -9.640   5.525  68.391  1.00  0.00    -0.124 C  
HETATM   16  O   UNL     1     -11.017   5.447  68.018  1.00  0.00    -0.012 OA 
HETATM   17  H   UNL     1     -11.451   6.078  68.581  1.00  0.00     0.000 HD 
HETATM   18  C   UNL     1      -9.753   7.734  71.634  1.00  0.00    -0.200 C  
HETATM   19  O   UNL     1      -9.377   6.869  68.820  1.00  0.00    -0.132 OA 
ENDROOT
BRANCH   8  20
HETATM   20  C   UNL     1      -7.229   4.946  71.134  1.00  0.00    -0.056 C  
HETATM   21  C   UNL     1      -8.371   2.752  71.527  1.00  0.00    -0.081 C  
HETATM   22  C   UNL     1      -7.058   3.526  71.600  1.00  0.00    -0.035 C  
HETATM   23  C   UNL     1      -6.591   3.661  73.053  1.00  0.00    -0.033 C  
ENDBRANCH   8  20
BRANCH  14  24
HETATM   24  N   UNL     1     -11.215   7.986  69.663  1.00  0.00    -0.447 N  
HETATM   25  H   UNL     1     -12.166   7.694  69.437  1.00  0.00     0.000 HD 
HETATM   26  O   UNL     1      -9.535   9.483  69.528  1.00  0.00    -0.164 OA 
HETATM   27  C   UNL     1     -10.757   9.288  69.562  1.00  0.00    -0.222 C  
BRANCH  27  28
HETATM   28  C   UNL     1     -11.733  10.456  69.474  1.00  0.00    -0.259 C  
HETATM   29  C   UNL     1     -11.556  11.672  70.413  1.00  0.00    -0.063 C  
HETATM   30  N   UNL     1     -12.045  12.890  69.672  1.00  0.00    -0.266 NA 
HETATM   31  C   UNL     1     -11.005  13.314  68.650  1.00  0.00    -0.264 C  
HETATM   32  C   UNL     1     -12.617  13.868  70.559  1.00  0.00    -0.312 C  
HETATM   33  C   UNL     1     -11.426  14.298  67.441  1.00  0.00    -0.368 C  
HETATM   34  C   UNL     1     -11.046  13.769  66.053  1.00  0.00    -0.291 A  
HETATM   35  C   UNL     1     -11.457  13.976  64.756  1.00  0.00    -0.369 A  
HETATM   36 BR   UNL     1     -12.721  15.221  64.185  1.00  0.00     0.854 Br 
HETATM   37  N   UNL     1     -10.864  13.044  63.932  1.00  0.00    -0.512 NA 
HETATM   38  C   UNL     1     -10.055  12.198  64.659  1.00  0.00    -0.257 A  
HETATM   39  H   UNL     1     -11.005  12.988  62.923  1.00  0.00     0.000 HD 
HETATM   40  C   UNL     1      -9.403  10.988  64.370  1.00  0.00    -0.223 A  
HETATM   41  C   UNL     1      -8.718  10.345  65.422  1.00  0.00    -0.193 A  
HETATM   42  C   UNL     1      -8.763  10.840  66.718  1.00  0.00    -0.145 A  
HETATM   43  C   UNL     1      -9.590  11.931  66.968  1.00  0.00    -0.196 A  
HETATM   44  C   UNL     1     -10.116  12.702  65.940  1.00  0.00    -0.276 A  
HETATM   45  C   UNL     1     -10.495  11.983  68.100  1.00  0.00    -0.218 C  
HETATM   46  C   UNL     1     -11.396  10.965  68.091  1.00  0.00    -0.383 C  
ENDBRANCH  27  28
ENDBRANCH  14  24
TORSDOF 3
ENDMDL
MODEL       45
REMARK 921   NORMALIZED FREE ENERGY PREDICTED BY IDOCK:   -5.85 KCAL/MOL
REMARK 922        TOTAL FREE ENERGY PREDICTED BY IDOCK:   -6.41 KCAL/MOL
REMARK 923 INTER-LIGAND FREE ENERGY PREDICTED BY IDOCK:   -8.95 KCAL/MOL
REMARK 924 INTRA-LIGAND FREE ENERGY PREDICTED BY IDOCK:    2.54 KCAL/MOL
REMARK 927      BINDING AFFINITY PREDICTED BY RF-SCORE:    0.00 PKD
ROOT
HETATM    1  C   UNL     1     -10.395   7.991  71.177  1.00  0.00    -0.197 C  
HETATM    2  C   UNL     1     -11.059   8.232  72.530  1.00  0.00    -0.439 C  
HETATM    3  C   UNL     1     -10.682   6.956  73.340  1.00  0.00    -0.352 C  
HETATM    4  C   UNL     1     -10.075   5.976  72.337  1.00  0.00    -0.175 C  
HETATM    5  N   UNL     1     -10.357   6.551  71.047  1.00  0.00    -0.203 N  
HETATM    6  C   UNL     1      -9.727   6.012  69.953  1.00  0.00    -0.163 C  
HETATM    7  O   UNL     1      -9.615   4.799  69.806  1.00  0.00    -0.142 OA 
HETATM    8  C   UNL     1      -9.306   7.044  68.889  1.00  0.00    -0.139 C  
HETATM    9  N   UNL     1      -9.125   8.520  69.354  1.00  0.00    -0.149 N  
HETATM   10  C   UNL     1      -8.847  10.682  65.544  1.00  0.00    -0.202 C  
HETATM   11  C   UNL     1      -8.915   9.548  68.449  1.00  0.00    -0.127 C  
HETATM   12  C   UNL     1      -8.540   8.307  65.614  1.00  0.00    -0.189 C  
HETATM   13  O   UNL     1      -7.953  10.310  68.472  1.00  0.00    -0.099 OA 
HETATM   14  C   UNL     1     -10.174   9.658  67.594  1.00  0.00    -0.216 C  
HETATM   15  C   UNL     1     -10.393   8.877  69.851  1.00  0.00    -0.206 C  
HETATM   16  O   UNL     1     -10.520  10.221  70.322  1.00  0.00    -0.388 OA 
HETATM   17  H   UNL     1     -10.519  10.749  69.532  1.00  0.00     0.000 HD 
HETATM   18  C   UNL     1      -9.563   9.373  66.047  1.00  0.00    -0.328 C  
HETATM   19  O   UNL     1     -11.025   8.802  68.565  1.00  0.00    -0.032 OA 
ENDROOT
BRANCH   8  20
HETATM   20  C   UNL     1      -8.169   6.500  68.096  1.00  0.00    -0.117 C  
HETATM   21  C   UNL     1      -6.315   7.153  69.649  1.00  0.00    -0.035 C  
HETATM   22  C   UNL     1      -6.913   6.045  68.786  1.00  0.00    -0.072 C  
HETATM   23  C   UNL     1      -5.964   5.684  67.639  1.00  0.00    -0.021 C  
ENDBRANCH   8  20
BRANCH  14  24
HETATM   24  N   UNL     1     -11.065  10.792  67.394  1.00  0.00    -0.312 N  
HETATM   25  H   UNL     1     -11.895  10.772  66.801  1.00  0.00     0.000 HD 
HETATM   26  O   UNL     1      -9.475  11.934  68.512  1.00  0.00    -0.198 OA 
HETATM   27  C   UNL     1     -10.645  11.901  68.107  1.00  0.00    -0.208 C  
BRANCH  27  28
HETATM   28  C   UNL     1     -11.592  13.064  68.374  1.00  0.00    -0.370 C  
HETATM   29  C   UNL     1     -12.101  13.322  69.811  1.00  0.00    -0.290 C  
HETATM   30  N   UNL     1     -12.308  14.808  69.958  1.00  0.00    -0.328 NA 
HETATM   31  C   UNL     1     -10.965  15.493  70.130  1.00  0.00    -0.321 C  
HETATM   32  C   UNL     1     -13.390  15.116  70.856  1.00  0.00    -0.408 C  
HETATM   33  C   UNL     1     -10.839  17.083  69.882  1.00  0.00     0.162 C  
HETATM   34  C   UNL     1      -9.727  17.469  68.899  1.00  0.00    -0.259 A  
HETATM   35  C   UNL     1      -9.436  18.542  68.088  1.00  0.00    -0.317 A  
HETATM   36 BR   UNL     1     -10.389  20.141  67.989  1.00  0.00    -0.364 Br 
HETATM   37  N   UNL     1      -8.376  18.223  67.267  1.00  0.00    -0.243 NA 
HETATM   38  C   UNL     1      -7.945  16.937  67.508  1.00  0.00    -0.170 A  
HETATM   39  H   UNL     1      -7.968  18.852  66.575  1.00  0.00     0.000 HD 
HETATM   40  C   UNL     1      -7.071  16.061  66.842  1.00  0.00    -0.182 A  
HETATM   41  C   UNL     1      -6.942  14.752  67.350  1.00  0.00    -0.141 A  
HETATM   42  C   UNL     1      -7.718  14.313  68.413  1.00  0.00    -0.134 A  
HETATM   43  C   UNL     1      -8.703  15.170  68.895  1.00  0.00    -0.205 A  
HETATM   44  C   UNL     1      -8.729  16.517  68.561  1.00  0.00    -0.228 A  
HETATM   45  C   UNL     1     -10.058  14.730  69.166  1.00  0.00    -0.201 C  
HETATM   46  C   UNL     1     -10.668  14.221  68.063  1.00  0.00    -0.242 C  
ENDBRANCH  27  28
ENDBRANCH  14  24
TORSDOF 3
ENDMDL
MODEL       46
REMARK 921   NORMALIZED FREE ENERGY PREDICTED BY IDOCK:   -5.84 KCAL/MOL
REMARK 922        TOTAL FREE ENERGY PREDICTED BY IDOCK:   -6.40 KCAL/MOL
REMARK 923 INTER-LIGAND FREE ENERGY PREDICTED BY IDOCK:   -6.76 KCAL/MOL
REMARK 924 INTRA-LIGAND FREE ENERGY PREDICTED BY IDOCK:    0.36 KCAL/MOL
REMARK 927      BINDING AFFINITY PREDICTED BY RF-SCORE:    0.00 PKD
ROOT
HETATM    1  C   UNL     1     -12.262   8.950  71.782  1.00  0.00    -0.359 C  
HETATM    2  C   UNL     1     -13.411   9.910  72.076  1.00  0.00    -0.478 C  
HETATM    3  C   UNL     1     -14.396   9.034  72.909  1.00  0.00     0.157 C  
HETATM    4  C   UNL     1     -13.884   7.598  72.805  1.00  0.00     0.767 C  
HETATM    5  N   UNL     1     -12.878   7.641  71.776  1.00  0.00    -0.333 N  
HETATM    6  C   UNL     1     -12.071   6.542  71.621  1.00  0.00    -0.328 C  
HETATM    7  O   UNL     1     -12.522   5.401  71.656  1.00  0.00     1.135 OA 
HETATM    8  C   UNL     1     -10.607   6.871  71.272  1.00  0.00    -0.220 C  
HETATM    9  N   UNL     1     -10.079   8.286  71.655  1.00  0.00    -0.198 N  
HETATM   10  C   UNL     1      -6.273   8.494  69.479  1.00  0.00    -0.036 C  
HETATM   11  C   UNL     1      -8.839   8.738  71.237  1.00  0.00    -0.226 C  
HETATM   12  C   UNL     1      -7.350   6.384  69.837  1.00  0.00    -0.082 C  
HETATM   13  O   UNL     1      -7.950   9.129  71.989  1.00  0.00    -0.323 OA 
HETATM   14  C   UNL     1      -8.887   8.841  69.715  1.00  0.00    -0.142 C  
HETATM   15  C   UNL     1     -10.921   9.165  70.945  1.00  0.00    -0.282 C  
HETATM   16  O   UNL     1     -10.629  10.557  71.093  1.00  0.00     0.131 OA 
HETATM   17  H   UNL     1      -9.831  10.685  70.595  1.00  0.00     0.000 HD 
HETATM   18  C   UNL     1      -7.657   7.778  69.261  1.00  0.00    -0.098 C  
HETATM   19  O   UNL     1     -10.433   8.749  69.661  1.00  0.00    -0.213 OA 
ENDROOT
BRANCH   8  20
HETATM   20  C   UNL     1      -9.732   5.746  71.703  1.00  0.00    -0.192 C  
HETATM   21  C   UNL     1      -9.273   6.532  74.036  1.00  0.00    -0.185 C  
HETATM   22  C   UNL     1      -9.663   5.351  73.152  1.00  0.00    -0.163 C  
HETATM   23  C   UNL     1      -8.582   4.266  73.194  1.00  0.00    -0.093 C  
ENDBRANCH   8  20
BRANCH  14  24
HETATM   24  N   UNL     1      -8.663   9.994  68.854  1.00  0.00    -0.138 N  
HETATM   25  H   UNL     1      -8.016  10.753  69.069  1.00  0.00     0.000 HD 
HETATM   26  O   UNL     1     -10.414   9.173  67.697  1.00  0.00    -0.240 OA 
HETATM   27  C   UNL     1      -9.436   9.932  67.709  1.00  0.00    -0.140 C  
BRANCH  27  28
HETATM   28  C   UNL     1      -9.105  10.792  66.495  1.00  0.00    -0.181 C  
HETATM   29  C   UNL     1      -9.828  10.530  65.153  1.00  0.00    -0.297 C  
HETATM   30  N   UNL     1      -9.948  11.852  64.439  1.00  0.00    -0.254 NA 
HETATM   31  C   UNL     1     -11.059  12.672  65.071  1.00  0.00    -0.291 C  
HETATM   32  C   UNL     1      -9.895  11.700  63.008  1.00  0.00    -0.305 C  
HETATM   33  C   UNL     1     -11.129  14.263  64.806  1.00  0.00    -0.398 C  
HETATM   34  C   UNL     1     -11.213  15.099  66.089  1.00  0.00    -0.271 A  
HETATM   35  C   UNL     1     -10.934  16.395  66.460  1.00  0.00     0.037 A  
HETATM   36 BR   UNL     1     -10.380  17.770  65.331  1.00  0.00     0.444 Br 
HETATM   37  N   UNL     1     -11.027  16.511  67.830  1.00  0.00    -0.325 NA 
HETATM   38  C   UNL     1     -11.361  15.301  68.398  1.00  0.00    -0.329 A  
HETATM   39  H   UNL     1     -10.868  17.373  68.351  1.00  0.00     0.000 HD 
HETATM   40  C   UNL     1     -11.383  14.817  69.717  1.00  0.00    -0.319 A  
HETATM   41  C   UNL     1     -11.703  13.457  69.911  1.00  0.00    -0.337 A  
HETATM   42  C   UNL     1     -11.900  12.604  68.835  1.00  0.00    -0.345 A  
HETATM   43  C   UNL     1     -11.668  13.105  67.558  1.00  0.00    -0.414 A  
HETATM   44  C   UNL     1     -11.548  14.467  67.317  1.00  0.00    -0.405 A  
HETATM   45  C   UNL     1     -10.897  12.386  66.563  1.00  0.00    -0.284 C  
HETATM   46  C   UNL     1      -9.628  12.127  66.978  1.00  0.00    -0.207 C  
ENDBRANCH  27  28
ENDBRANCH  14  24
TORSDOF 3
ENDMDL
MODEL       47
REMARK 921   NORMALIZED FREE ENERGY PREDICTED BY IDOCK:   -5.84 KCAL/MOL
REMARK 922        TOTAL FREE ENERGY PREDICTED BY IDOCK:   -6.40 KCAL/MOL
REMARK 923 INTER-LIGAND FREE ENERGY PREDICTED BY IDOCK:   -6.11 KCAL/MOL
REMARK 924 INTRA-LIGAND FREE ENERGY PREDICTED BY IDOCK:   -0.28 KCAL/MOL
REMARK 927      BINDING AFFINITY PREDICTED BY RF-SCORE:    0.00 PKD
ROOT
HETATM    1  C   UNL     1      -7.559   7.117  69.849  1.00  0.00    -0.098 C  
HETATM    2  C   UNL     1      -7.345   7.930  71.123  1.00  0.00    -0.063 C  
HETATM    3  C   UNL     1      -7.516   6.868  72.250  1.00  0.00    -0.087 C  
HETATM    4  C   UNL     1      -8.070   5.614  71.576  1.00  0.00    -0.118 C  
HETATM    5  N   UNL     1      -8.438   6.041  70.251  1.00  0.00    -0.123 N  
HETATM    6  C   UNL     1      -8.750   5.075  69.329  1.00  0.00    -0.091 C  
HETATM    7  O   UNL     1      -9.449   4.108  69.618  1.00  0.00    -0.155 OA 
HETATM    8  C   UNL     1      -8.265   5.381  67.899  1.00  0.00    -0.099 C  
HETATM    9  N   UNL     1      -7.079   6.378  67.741  1.00  0.00    -0.082 N  
HETATM   10  C   UNL     1      -7.114   7.214  63.432  1.00  0.00    -0.066 C  
HETATM   11  C   UNL     1      -6.681   6.847  66.500  1.00  0.00    -0.052 C  
HETATM   12  C   UNL     1      -8.279   5.312  64.307  1.00  0.00    -0.132 C  
HETATM   13  O   UNL     1      -5.546   6.738  66.045  1.00  0.00    -0.024 OA 
HETATM   14  C   UNL     1      -7.838   7.669  65.939  1.00  0.00    -0.103 C  
HETATM   15  C   UNL     1      -7.559   7.569  68.319  1.00  0.00    -0.114 C  
HETATM   16  O   UNL     1      -6.664   8.683  68.278  1.00  0.00    -0.063 OA 
HETATM   17  H   UNL     1      -6.664   8.952  67.367  1.00  0.00     0.000 HD 
HETATM   18  C   UNL     1      -8.192   6.835  64.515  1.00  0.00    -0.008 C  
HETATM   19  O   UNL     1      -8.557   7.771  67.307  1.00  0.00    -0.126 OA 
ENDROOT
BRANCH   8  20
HETATM   20  C   UNL     1      -8.105   4.104  67.148  1.00  0.00    -0.100 C  
HETATM   21  C   UNL     1      -5.803   3.517  67.941  1.00  0.00    -0.026 C  
HETATM   22  C   UNL     1      -7.221   3.013  67.687  1.00  0.00    -0.054 C  
HETATM   23  C   UNL     1      -7.226   1.949  66.585  1.00  0.00    -0.055 C  
ENDBRANCH   8  20
BRANCH  14  24
HETATM   24  N   UNL     1      -7.869   9.063  65.521  1.00  0.00    -0.094 N  
HETATM   25  H   UNL     1      -7.038   9.620  65.318  1.00  0.00     0.000 HD 
HETATM   26  O   UNL     1     -10.064   8.916  66.013  1.00  0.00    -0.260 OA 
HETATM   27  C   UNL     1      -9.165   9.540  65.433  1.00  0.00    -0.247 C  
BRANCH  27  28
HETATM   28  C   UNL     1      -9.479  10.815  64.659  1.00  0.00    -0.297 C  
HETATM   29  C   UNL     1     -10.947  11.278  64.513  1.00  0.00    -0.231 C  
HETATM   30  N   UNL     1     -10.942  12.784  64.453  1.00  0.00    -0.338 NA 
HETATM   31  C   UNL     1     -10.726  13.347  65.846  1.00  0.00    -0.279 C  
HETATM   32  C   UNL     1     -12.007  13.295  63.631  1.00  0.00    -0.486 C  
HETATM   33  C   UNL     1     -10.252  14.880  66.026  1.00  0.00    -0.317 C  
HETATM   34  C   UNL     1      -9.008  15.043  66.908  1.00  0.00    -0.276 A  
HETATM   35  C   UNL     1      -8.021  15.986  67.082  1.00  0.00    -0.201 A  
HETATM   36 BR   UNL     1      -7.926  17.651  66.249  1.00  0.00    -0.263 Br 
HETATM   37  N   UNL     1      -7.036  15.474  67.899  1.00  0.00    -0.126 NA 
HETATM   38  C   UNL     1      -7.342  14.186  68.280  1.00  0.00    -0.120 A  
HETATM   39  H   UNL     1      -6.197  15.979  68.182  1.00  0.00     0.000 HD 
HETATM   40  C   UNL     1      -6.620  13.160  68.913  1.00  0.00    -0.104 A  
HETATM   41  C   UNL     1      -7.253  11.908  69.060  1.00  0.00    -0.068 A  
HETATM   42  C   UNL     1      -8.508  11.668  68.519  1.00  0.00    -0.135 A  
HETATM   43  C   UNL     1      -9.078  12.666  67.735  1.00  0.00    -0.192 A  
HETATM   44  C   UNL     1      -8.586  13.964  67.730  1.00  0.00    -0.182 A  
HETATM   45  C   UNL     1      -9.694  12.396  66.450  1.00  0.00    -0.246 C  
HETATM   46  C   UNL     1      -8.826  11.833  65.568  1.00  0.00     0.187 C  
ENDBRANCH  27  28
ENDBRANCH  14  24
TORSDOF 3
ENDMDL
MODEL       48
REMARK 921   NORMALIZED FREE ENERGY PREDICTED BY IDOCK:   -5.75 KCAL/MOL
REMARK 922        TOTAL FREE ENERGY PREDICTED BY IDOCK:   -6.29 KCAL/MOL
REMARK 923 INTER-LIGAND FREE ENERGY PREDICTED BY IDOCK:   -6.03 KCAL/MOL
REMARK 924 INTRA-LIGAND FREE ENERGY PREDICTED BY IDOCK:   -0.25 KCAL/MOL
REMARK 927      BINDING AFFINITY PREDICTED BY RF-SCORE:    0.00 PKD
ROOT
HETATM    1  C   UNL     1      -9.106  10.688  64.590  1.00  0.00    -0.211 C  
HETATM    2  C   UNL     1     -10.140  11.370  63.698  1.00  0.00    -0.421 C  
HETATM    3  C   UNL     1     -10.012  10.593  62.354  1.00  0.00     0.154 C  
HETATM    4  C   UNL     1      -8.761   9.724  62.478  1.00  0.00    -0.224 C  
HETATM    5  N   UNL     1      -8.104  10.197  63.669  1.00  0.00    -0.160 N  
HETATM    6  C   UNL     1      -7.069   9.449  64.171  1.00  0.00    -0.102 C  
HETATM    7  O   UNL     1      -6.213   8.960  63.440  1.00  0.00    -0.088 OA 
HETATM    8  C   UNL     1      -7.010   9.396  65.709  1.00  0.00    -0.090 C  
HETATM    9  N   UNL     1      -8.328   9.684  66.489  1.00  0.00    -0.119 N  
HETATM   10  C   UNL     1      -6.900  10.174  70.610  1.00  0.00    -0.015 C  
HETATM   11  C   UNL     1      -8.343   9.827  67.866  1.00  0.00    -0.114 C  
HETATM   12  C   UNL     1      -5.510   9.128  68.963  1.00  0.00    -0.037 C  
HETATM   13  O   UNL     1      -9.033   9.156  68.628  1.00  0.00    -0.135 OA 
HETATM   14  C   UNL     1      -7.524  11.071  68.198  1.00  0.00    -0.092 C  
HETATM   15  C   UNL     1      -8.675  10.991  66.095  1.00  0.00    -0.184 C  
HETATM   16  O   UNL     1      -9.853  11.528  66.701  1.00  0.00    -0.196 OA 
HETATM   17  H   UNL     1      -9.596  11.709  67.597  1.00  0.00     0.000 HD 
HETATM   18  C   UNL     1      -6.307  10.428  69.175  1.00  0.00    -0.046 C  
HETATM   19  O   UNL     1      -7.540  11.589  66.738  1.00  0.00    -0.148 OA 
ENDROOT
BRANCH   8  20
HETATM   20  C   UNL     1      -6.297   8.159  66.134  1.00  0.00    -0.046 C  
HETATM   21  C   UNL     1      -8.256   6.599  66.111  1.00  0.00    -0.124 C  
HETATM   22  C   UNL     1      -6.800   6.808  65.705  1.00  0.00    -0.055 C  
HETATM   23  C   UNL     1      -5.889   5.818  66.437  1.00  0.00    -0.018 C  
ENDBRANCH   8  20
BRANCH  14  24
HETATM   24  N   UNL     1      -7.916  12.278  68.910  1.00  0.00    -0.339 N  
HETATM   25  H   UNL     1      -8.772  12.368  69.459  1.00  0.00     0.000 HD 
HETATM   26  O   UNL     1      -6.177  13.205  67.815  1.00  0.00    -0.127 OA 
HETATM   27  C   UNL     1      -6.985  13.289  68.750  1.00  0.00    -0.103 C  
BRANCH  27  28
HETATM   28  C   UNL     1      -6.965  14.490  69.689  1.00  0.00    -0.122 C  
HETATM   29  C   UNL     1      -5.687  15.355  69.795  1.00  0.00    -0.126 C  
HETATM   30  N   UNL     1      -6.122  16.768  70.090  1.00  0.00    -0.147 NA 
HETATM   31  C   UNL     1      -6.655  17.410  68.822  1.00  0.00    -0.206 C  
HETATM   32  C   UNL     1      -5.161  17.470  70.900  1.00  0.00    -0.241 C  
HETATM   33  C   UNL     1      -7.571  18.737  68.921  1.00  0.00    -0.312 C  
HETATM   34  C   UNL     1      -8.903  18.624  68.171  1.00  0.00    -0.335 A  
HETATM   35  C   UNL     1     -10.135  19.236  68.220  1.00  0.00    -0.425 A  
HETATM   36 BR   UNL     1     -10.609  20.674  69.308  1.00  0.00     0.906 Br 
HETATM   37  N   UNL     1     -11.019  18.558  67.410  1.00  0.00    -0.289 NA 
HETATM   38  C   UNL     1     -10.399  17.483  66.810  1.00  0.00    -0.314 A  
HETATM   39  H   UNL     1     -11.996  18.816  67.273  1.00  0.00     0.000 HD 
HETATM   40  C   UNL     1     -10.863  16.375  66.080  1.00  0.00    -0.093 A  
HETATM   41  C   UNL     1      -9.916  15.404  65.692  1.00  0.00    -0.396 A  
HETATM   42  C   UNL     1      -8.591  15.490  66.094  1.00  0.00    -0.078 A  
HETATM   43  C   UNL     1      -8.246  16.507  66.979  1.00  0.00    -0.227 A  
HETATM   44  C   UNL     1      -9.089  17.582  67.224  1.00  0.00    -0.240 A  
HETATM   45  C   UNL     1      -7.431  16.276  68.156  1.00  0.00    -0.148 C  
HETATM   46  C   UNL     1      -7.987  15.368  69.002  1.00  0.00    -0.202 C  
ENDBRANCH  27  28
ENDBRANCH  14  24
TORSDOF 3
ENDMDL
MODEL       49
REMARK 921   NORMALIZED FREE ENERGY PREDICTED BY IDOCK:   -5.68 KCAL/MOL
REMARK 922        TOTAL FREE ENERGY PREDICTED BY IDOCK:   -6.21 KCAL/MOL
REMARK 923 INTER-LIGAND FREE ENERGY PREDICTED BY IDOCK:   -6.70 KCAL/MOL
REMARK 924 INTRA-LIGAND FREE ENERGY PREDICTED BY IDOCK:    0.49 KCAL/MOL
REMARK 927      BINDING AFFINITY PREDICTED BY RF-SCORE:    0.00 PKD
ROOT
HETATM    1  C   UNL     1      -9.212   7.654  71.611  1.00  0.00    -0.134 C  
HETATM    2  C   UNL     1      -9.299   7.968  73.102  1.00  0.00    -0.346 C  
HETATM    3  C   UNL     1      -9.470   6.561  73.748  1.00  0.00    -0.180 C  
HETATM    4  C   UNL     1      -9.735   5.591  72.598  1.00  0.00    -0.150 C  
HETATM    5  N   UNL     1      -9.973   6.434  71.455  1.00  0.00    -0.184 N  
HETATM    6  C   UNL     1     -10.008   5.842  70.217  1.00  0.00    -0.198 C  
HETATM    7  O   UNL     1     -10.593   4.779  70.027  1.00  0.00    -0.093 OA 
HETATM    8  C   UNL     1      -9.377   6.683  69.092  1.00  0.00    -0.134 C  
HETATM    9  N   UNL     1      -8.339   7.769  69.503  1.00  0.00    -0.128 N  
HETATM   10  C   UNL     1      -7.891  10.096  65.809  1.00  0.00    -0.139 C  
HETATM   11  C   UNL     1      -7.843   8.686  68.591  1.00  0.00    -0.107 C  
HETATM   12  C   UNL     1      -8.877   7.913  65.753  1.00  0.00    -0.155 C  
HETATM   13  O   UNL     1      -6.652   8.847  68.342  1.00  0.00    -0.058 OA 
HETATM   14  C   UNL     1      -9.017   9.552  68.143  1.00  0.00    -0.123 C  
HETATM   15  C   UNL     1      -9.063   8.625  70.354  1.00  0.00    -0.159 C  
HETATM   16  O   UNL     1      -8.343   9.752  70.860  1.00  0.00    -0.377 OA 
HETATM   17  H   UNL     1      -8.254  10.331  70.111  1.00  0.00     0.000 HD 
HETATM   18  C   UNL     1      -9.042   9.260  66.481  1.00  0.00    -0.191 C  
HETATM   19  O   UNL     1      -9.928   9.091  69.308  1.00  0.00    -0.178 OA 
ENDROOT
BRANCH   8  20
HETATM   20  C   UNL     1      -8.930   5.782  67.994  1.00  0.00    -0.111 C  
HETATM   21  C   UNL     1      -6.698   5.156  68.941  1.00  0.00    -0.050 C  
HETATM   22  C   UNL     1      -7.978   4.653  68.279  1.00  0.00    -0.084 C  
HETATM   23  C   UNL     1      -7.674   4.061  66.899  1.00  0.00    -0.088 C  
ENDBRANCH   8  20
BRANCH  14  24
HETATM   24  N   UNL     1      -9.192  10.995  68.227  1.00  0.00    -0.158 N  
HETATM   25  H   UNL     1      -8.453  11.648  68.492  1.00  0.00     0.000 HD 
HETATM   26  O   UNL     1     -11.373  10.511  67.932  1.00  0.00    -0.330 OA 
HETATM   27  C   UNL     1     -10.483  11.372  67.905  1.00  0.00    -0.184 C  
BRANCH  27  28
HETATM   28  C   UNL     1     -10.810  12.816  67.544  1.00  0.00    -0.263 C  
HETATM   29  C   UNL     1     -11.573  13.702  68.555  1.00  0.00    -0.335 C  
HETATM   30  N   UNL     1     -11.101  15.121  68.359  1.00  0.00    -0.269 NA 
HETATM   31  C   UNL     1      -9.729  15.291  68.986  1.00  0.00    -0.234 C  
HETATM   32  C   UNL     1     -12.139  16.078  68.636  1.00  0.00     0.164 C  
HETATM   33  C   UNL     1      -8.807  16.549  68.567  1.00  0.00    -0.228 C  
HETATM   34  C   UNL     1      -7.394  16.156  68.117  1.00  0.00    -0.137 A  
HETATM   35  C   UNL     1      -6.395  16.716  67.354  1.00  0.00    -0.169 A  
HETATM   36 BR   UNL     1      -6.408  18.419  66.597  1.00  0.00    -0.218 Br 
HETATM   37  N   UNL     1      -5.405  15.782  67.137  1.00  0.00    -0.321 NA 
HETATM   38  C   UNL     1      -5.724  14.586  67.744  1.00  0.00    -0.060 A  
HETATM   39  H   UNL     1      -4.554  15.952  66.601  1.00  0.00     0.000 HD 
HETATM   40  C   UNL     1      -5.195  13.287  67.673  1.00  0.00    -0.026 A  
HETATM   41  C   UNL     1      -5.860  12.269  68.388  1.00  0.00    -0.054 A  
HETATM   42  C   UNL     1      -7.045  12.520  69.063  1.00  0.00    -0.037 A  
HETATM   43  C   UNL     1      -7.616  13.782  68.925  1.00  0.00    -0.040 A  
HETATM   44  C   UNL     1      -6.904  14.854  68.403  1.00  0.00    -0.110 A  
HETATM   45  C   UNL     1      -9.025  13.978  68.647  1.00  0.00    -0.104 C  
HETATM   46  C   UNL     1      -9.411  13.387  67.485  1.00  0.00    -0.218 C  
ENDBRANCH  27  28
ENDBRANCH  14  24
TORSDOF 3
ENDMDL
MODEL       50
REMARK 921   NORMALIZED FREE ENERGY PREDICTED BY IDOCK:   -5.59 KCAL/MOL
REMARK 922        TOTAL FREE ENERGY PREDICTED BY IDOCK:   -6.10 KCAL/MOL
REMARK 923 INTER-LIGAND FREE ENERGY PREDICTED BY IDOCK:   -6.77 KCAL/MOL
REMARK 924 INTRA-LIGAND FREE ENERGY PREDICTED BY IDOCK:    0.67 KCAL/MOL
REMARK 927      BINDING AFFINITY PREDICTED BY RF-SCORE:    0.00 PKD
ROOT
HETATM    1  C   UNL     1     -12.508  13.490  70.446  1.00  0.00    -0.275 C  
HETATM    2  C   UNL     1     -13.593  13.619  71.512  1.00  0.00    -0.291 C  
HETATM    3  C   UNL     1     -13.530  15.128  71.897  1.00  0.00    -0.522 C  
HETATM    4  C   UNL     1     -12.267  15.685  71.242  1.00  0.00    -0.415 C  
HETATM    5  N   UNL     1     -11.551  14.524  70.779  1.00  0.00    -0.249 N  
HETATM    6  C   UNL     1     -10.485  14.720  69.938  1.00  0.00    -0.014 C  
HETATM    7  O   UNL     1      -9.665  15.612  70.134  1.00  0.00    -0.166 OA 
HETATM    8  C   UNL     1     -10.344  13.658  68.831  1.00  0.00    -0.114 C  
HETATM    9  N   UNL     1     -11.622  12.857  68.438  1.00  0.00    -0.311 N  
HETATM   10  C   UNL     1      -9.982   9.612  65.979  1.00  0.00    -0.344 C  
HETATM   11  C   UNL     1     -11.565  11.772  67.580  1.00  0.00    -0.291 C  
HETATM   12  C   UNL     1      -8.672  11.565  66.437  1.00  0.00    -0.179 C  
HETATM   13  O   UNL     1     -12.208  11.672  66.539  1.00  0.00    -0.177 OA 
HETATM   14  C   UNL     1     -10.740  10.692  68.275  1.00  0.00    -0.219 C  
HETATM   15  C   UNL     1     -12.000  12.216  69.633  1.00  0.00    -0.284 C  
HETATM   16  O   UNL     1     -13.149  11.369  69.545  1.00  0.00     0.310 OA 
HETATM   17  H   UNL     1     -12.847  10.610  69.061  1.00  0.00     0.000 HD 
HETATM   18  C   UNL     1      -9.468  10.480  67.186  1.00  0.00    -0.182 C  
HETATM   19  O   UNL     1     -10.837  11.375  69.662  1.00  0.00    -0.173 OA 
ENDROOT
BRANCH   8  20
HETATM   20  C   UNL     1      -9.600  14.240  67.680  1.00  0.00    -0.219 C  
HETATM   21  C   UNL     1     -11.525  15.382  66.557  1.00  0.00    -0.015 C  
HETATM   22  C   UNL     1     -10.080  15.508  67.029  1.00  0.00    -0.254 C  
HETATM   23  C   UNL     1      -9.138  15.698  65.836  1.00  0.00    -0.277 C  
ENDBRANCH   8  20
BRANCH  14  24
HETATM   24  N   UNL     1     -11.104   9.327  68.627  1.00  0.00    -0.458 N  
HETATM   25  H   UNL     1     -12.002   8.897  68.404  1.00  0.00     0.000 HD 
HETATM   26  O   UNL     1      -9.189   9.373  69.815  1.00  0.00    -0.168 OA 
HETATM   27  C   UNL     1     -10.081   8.685  69.301  1.00  0.00    -0.202 C  
BRANCH  27  28
HETATM   28  C   UNL     1     -10.061   7.166  69.429  1.00  0.00    -0.178 C  
HETATM   29  C   UNL     1      -9.716   6.300  68.196  1.00  0.00    -0.122 C  
HETATM   30  N   UNL     1      -9.023   5.058  68.696  1.00  0.00    -0.104 NA 
HETATM   31  C   UNL     1      -7.591   5.392  69.073  1.00  0.00    -0.085 C  
HETATM   32  C   UNL     1      -9.297   3.915  67.864  1.00  0.00    -0.177 C  
HETATM   33  C   UNL     1      -6.758   4.385  70.022  1.00  0.00    -0.033 C  
HETATM   34  C   UNL     1      -6.128   5.067  71.243  1.00  0.00    -0.022 A  
HETATM   35  C   UNL     1      -5.675   4.680  72.483  1.00  0.00    -0.012 A  
HETATM   36 BR   UNL     1      -5.579   2.933  73.126  1.00  0.00     0.000 Br 
HETATM   37  N   UNL     1      -5.392   5.797  73.238  1.00  0.00    -0.023 NA 
HETATM   38  C   UNL     1      -5.654   6.946  72.523  1.00  0.00    -0.038 A  
HETATM   39  H   UNL     1      -5.039   5.776  74.195  1.00  0.00     0.000 HD 
HETATM   40  C   UNL     1      -5.739   8.306  72.864  1.00  0.00    -0.057 A  
HETATM   41  C   UNL     1      -6.128   9.211  71.853  1.00  0.00    -0.035 A  
HETATM   42  C   UNL     1      -6.503   8.766  70.594  1.00  0.00    -0.043 A  
HETATM   43  C   UNL     1      -6.586   7.391  70.390  1.00  0.00    -0.046 A  
HETATM   44  C   UNL     1      -6.028   6.484  71.280  1.00  0.00    -0.036 A  
HETATM   45  C   UNL     1      -7.715   6.765  69.730  1.00  0.00    -0.113 C  
HETATM   46  C   UNL     1      -8.889   7.006  70.372  1.00  0.00    -0.155 C  
ENDBRANCH  27  28
ENDBRANCH  14  24
TORSDOF 3
ENDMDL
MODEL       51
REMARK 921   NORMALIZED FREE ENERGY PREDICTED BY IDOCK:   -5.43 KCAL/MOL
REMARK 922        TOTAL FREE ENERGY PREDICTED BY IDOCK:   -5.92 KCAL/MOL
REMARK 923 INTER-LIGAND FREE ENERGY PREDICTED BY IDOCK:   -7.43 KCAL/MOL
REMARK 924 INTRA-LIGAND FREE ENERGY PREDICTED BY IDOCK:    1.51 KCAL/MOL
REMARK 927      BINDING AFFINITY PREDICTED BY RF-SCORE:    0.00 PKD
ROOT
HETATM    1  C   UNL     1     -10.939  12.237  65.244  1.00  0.00    -0.307 C  
HETATM    2  C   UNL     1     -11.980  11.598  64.328  1.00  0.00    -0.182 C  
HETATM    3  C   UNL     1     -12.541  12.814  63.533  1.00  0.00    -0.359 C  
HETATM    4  C   UNL     1     -11.994  14.065  64.219  1.00  0.00    -0.435 C  
HETATM    5  N   UNL     1     -11.419  13.586  65.450  1.00  0.00    -0.299 N  
HETATM    6  C   UNL     1     -10.639  14.452  66.174  1.00  0.00    -0.298 C  
HETATM    7  O   UNL     1     -10.963  15.624  66.343  1.00  0.00    -0.291 OA 
HETATM    8  C   UNL     1      -9.420  13.797  66.849  1.00  0.00    -0.262 C  
HETATM    9  N   UNL     1      -8.898  12.459  66.246  1.00  0.00    -0.053 N  
HETATM   10  C   UNL     1      -6.124  11.045  69.340  1.00  0.00    -0.060 C  
HETATM   11  C   UNL     1      -7.920  11.708  66.876  1.00  0.00    -0.161 C  
HETATM   12  C   UNL     1      -6.847  13.329  69.313  1.00  0.00    -0.031 C  
HETATM   13  O   UNL     1      -6.856  11.376  66.362  1.00  0.00    -0.102 OA 
HETATM   14  C   UNL     1      -8.508  11.227  68.201  1.00  0.00    -0.145 C  
HETATM   15  C   UNL     1      -9.997  11.586  66.355  1.00  0.00    -0.209 C  
HETATM   16  O   UNL     1      -9.777  10.250  65.896  1.00  0.00    -0.196 OA 
HETATM   17  H   UNL     1      -9.216   9.862  66.557  1.00  0.00     0.000 HD 
HETATM   18  C   UNL     1      -7.440  11.908  69.316  1.00  0.00     0.148 C  
HETATM   19  O   UNL     1      -9.962  11.567  67.790  1.00  0.00    -0.177 OA 
ENDROOT
BRANCH   8  20
HETATM   20  C   UNL     1      -8.368  14.826  67.075  1.00  0.00    -0.228 C  
HETATM   21  C   UNL     1      -9.530  16.126  68.873  1.00  0.00    -0.244 C  
HETATM   22  C   UNL     1      -8.223  15.480  68.422  1.00  0.00    -0.145 C  
HETATM   23  C   UNL     1      -7.141  16.543  68.209  1.00  0.00    -0.151 C  
ENDBRANCH   8  20
BRANCH  14  24
HETATM   24  N   UNL     1      -8.686   9.871  68.699  1.00  0.00    -0.120 N  
HETATM   25  H   UNL     1      -8.192   9.056  68.334  1.00  0.00     0.000 HD 
HETATM   26  O   UNL     1     -10.386  10.777  69.869  1.00  0.00    -0.127 OA 
HETATM   27  C   UNL     1      -9.608   9.824  69.730  1.00  0.00    -0.230 C  
BRANCH  27  28
HETATM   28  C   UNL     1      -9.680   8.620  70.661  1.00  0.00    -0.221 C  
HETATM   29  C   UNL     1     -11.055   8.001  71.004  1.00  0.00    -0.253 C  
HETATM   30  N   UNL     1     -10.844   6.524  71.221  1.00  0.00    -0.240 NA 
HETATM   31  C   UNL     1     -10.678   5.833  69.880  1.00  0.00    -0.342 C  
HETATM   32  C   UNL     1     -11.755   5.986  72.197  1.00  0.00    -0.279 C  
HETATM   33  C   UNL     1     -10.022   4.359  69.814  1.00  0.00    -0.224 C  
HETATM   34  C   UNL     1      -8.849   4.248  68.832  1.00  0.00    -0.139 A  
HETATM   35  C   UNL     1      -7.764   3.419  68.657  1.00  0.00    -0.055 A  
HETATM   36 BR   UNL     1      -7.376   1.887  69.646  1.00  0.00    -0.039 Br 
HETATM   37  N   UNL     1      -6.932   3.948  67.695  1.00  0.00    -0.054 NA 
HETATM   38  C   UNL     1      -7.440   5.136  67.214  1.00  0.00    -0.083 A  
HETATM   39  H   UNL     1      -6.061   3.520  67.382  1.00  0.00     0.000 HD 
HETATM   40  C   UNL     1      -6.919   6.162  66.407  1.00  0.00    -0.067 A  
HETATM   41  C   UNL     1      -7.724   7.301  66.195  1.00  0.00    -0.101 A  
HETATM   42  C   UNL     1      -8.947   7.447  66.833  1.00  0.00    -0.150 A  
HETATM   43  C   UNL     1      -9.308   6.484  67.772  1.00  0.00    -0.118 A  
HETATM   44  C   UNL     1      -8.649   5.266  67.862  1.00  0.00    -0.103 A  
HETATM   45  C   UNL     1      -9.839   6.825  69.077  1.00  0.00    -0.152 C  
HETATM   46  C   UNL     1      -8.980   7.591  69.802  1.00  0.00    -0.141 C  
ENDBRANCH  27  28
ENDBRANCH  14  24
TORSDOF 3
ENDMDL
MODEL       52
REMARK 921   NORMALIZED FREE ENERGY PREDICTED BY IDOCK:   -5.43 KCAL/MOL
REMARK 922        TOTAL FREE ENERGY PREDICTED BY IDOCK:   -5.92 KCAL/MOL
REMARK 923 INTER-LIGAND FREE ENERGY PREDICTED BY IDOCK:   -7.33 KCAL/MOL
REMARK 924 INTRA-LIGAND FREE ENERGY PREDICTED BY IDOCK:    1.42 KCAL/MOL
REMARK 927      BINDING AFFINITY PREDICTED BY RF-SCORE:    0.00 PKD
ROOT
HETATM    1  C   UNL     1     -11.766  11.674  70.447  1.00  0.00    -0.199 C  
HETATM    2  C   UNL     1     -12.276  13.051  70.027  1.00  0.00    -0.306 C  
HETATM    3  C   UNL     1     -13.299  13.403  71.148  1.00  0.00    -0.096 C  
HETATM    4  C   UNL     1     -13.501  12.125  71.961  1.00  0.00    -0.286 C  
HETATM    5  N   UNL     1     -12.866  11.092  71.184  1.00  0.00    -0.385 N  
HETATM    6  C   UNL     1     -12.680   9.868  71.775  1.00  0.00    -0.428 C  
HETATM    7  O   UNL     1     -13.554   9.341  72.457  1.00  0.00    -0.467 OA 
HETATM    8  C   UNL     1     -11.355   9.177  71.400  1.00  0.00    -0.344 C  
HETATM    9  N   UNL     1     -10.192  10.081  70.893  1.00  0.00     0.030 N  
HETATM   10  C   UNL     1      -7.344   7.148  69.295  1.00  0.00    -0.091 C  
HETATM   11  C   UNL     1      -9.025   9.544  70.374  1.00  0.00    -0.243 C  
HETATM   12  C   UNL     1      -9.098   6.453  70.771  1.00  0.00    -0.151 C  
HETATM   13  O   UNL     1      -7.899   9.782  70.800  1.00  0.00    -0.304 OA 
HETATM   14  C   UNL     1      -9.403   8.801  69.095  1.00  0.00    -0.149 C  
HETATM   15  C   UNL     1     -10.720  10.698  69.743  1.00  0.00    -0.230 C  
HETATM   16  O   UNL     1      -9.830  11.574  69.046  1.00  0.00    -0.386 OA 
HETATM   17  H   UNL     1      -9.207  10.993  68.627  1.00  0.00     0.000 HD 
HETATM   18  C   UNL     1      -8.907   7.228  69.455  1.00  0.00    -0.137 C  
HETATM   19  O   UNL     1     -10.796   9.472  69.002  1.00  0.00    -0.219 OA 
ENDROOT
BRANCH   8  20
HETATM   20  C   UNL     1     -10.973   8.223  72.478  1.00  0.00    -0.424 C  
HETATM   21  C   UNL     1     -12.368   6.280  71.737  1.00  0.00    -0.149 C  
HETATM   22  C   UNL     1     -10.997   6.741  72.223  1.00  0.00    -0.276 C  
HETATM   23  C   UNL     1     -10.672   6.120  73.585  1.00  0.00    -0.234 C  
ENDBRANCH   8  20
BRANCH  14  24
HETATM   24  N   UNL     1      -8.926   8.994  67.734  1.00  0.00    -0.128 N  
HETATM   25  H   UNL     1      -8.303   9.750  67.446  1.00  0.00     0.000 HD 
HETATM   26  O   UNL     1     -10.413   7.375  67.234  1.00  0.00    -0.253 OA 
HETATM   27  C   UNL     1      -9.422   8.027  66.878  1.00  0.00    -0.191 C  
BRANCH  27  28
HETATM   28  C   UNL     1      -8.778   7.780  65.519  1.00  0.00    -0.102 C  
HETATM   29  C   UNL     1      -7.316   8.219  65.275  1.00  0.00    -0.081 C  
HETATM   30  N   UNL     1      -6.711   7.249  64.292  1.00  0.00    -0.046 NA 
HETATM   31  C   UNL     1      -6.380   5.948  65.001  1.00  0.00    -0.037 C  
HETATM   32  C   UNL     1      -5.726   7.877  63.451  1.00  0.00    -0.054 C  
HETATM   33  C   UNL     1      -6.130   4.607  64.137  1.00  0.00    -0.022 C  
HETATM   34  C   UNL     1      -6.982   3.414  64.587  1.00  0.00    -0.053 A  
HETATM   35  C   UNL     1      -7.432   2.238  64.031  1.00  0.00    -0.059 A  
HETATM   36 BR   UNL     1      -7.002   1.582  62.340  1.00  0.00    -0.022 Br 
HETATM   37  N   UNL     1      -8.347   1.650  64.877  1.00  0.00    -0.079 NA 
HETATM   38  C   UNL     1      -8.528   2.419  66.006  1.00  0.00    -0.100 A  
HETATM   39  H   UNL     1      -8.823   0.767  64.693  1.00  0.00     0.000 HD 
HETATM   40  C   UNL     1      -9.460   2.401  67.058  1.00  0.00     0.058 A  
HETATM   41  C   UNL     1      -9.385   3.432  68.018  1.00  0.00    -0.241 A  
HETATM   42  C   UNL     1      -8.484   4.478  67.881  1.00  0.00    -0.104 A  
HETATM   43  C   UNL     1      -7.729   4.536  66.713  1.00  0.00    -0.090 A  
HETATM   44  C   UNL     1      -7.631   3.453  65.850  1.00  0.00    -0.081 A  
HETATM   45  C   UNL     1      -7.562   5.757  65.949  1.00  0.00    -0.086 C  
HETATM   46  C   UNL     1      -8.748   6.268  65.522  1.00  0.00    -0.090 C  
ENDBRANCH  27  28
ENDBRANCH  14  24
TORSDOF 3
ENDMDL
MODEL       53
REMARK 921   NORMALIZED FREE ENERGY PREDICTED BY IDOCK:   -5.40 KCAL/MOL
REMARK 922        TOTAL FREE ENERGY PREDICTED BY IDOCK:   -5.88 KCAL/MOL
REMARK 923 INTER-LIGAND FREE ENERGY PREDICTED BY IDOCK:   -6.74 KCAL/MOL
REMARK 924 INTRA-LIGAND FREE ENERGY PREDICTED BY IDOCK:    0.86 KCAL/MOL
REMARK 927      BINDING AFFINITY PREDICTED BY RF-SCORE:    0.00 PKD
ROOT
HETATM    1  C   UNL     1     -12.466  12.349  69.774  1.00  0.00     0.134 C  
HETATM    2  C   UNL     1     -12.900  11.264  70.756  1.00  0.00    -0.279 C  
HETATM    3  C   UNL     1     -13.199  12.066  72.058  1.00  0.00    -0.481 C  
HETATM    4  C   UNL     1     -12.670  13.480  71.820  1.00  0.00    -0.244 C  
HETATM    5  N   UNL     1     -11.896  13.383  70.610  1.00  0.00    -0.185 N  
HETATM    6  C   UNL     1     -11.487  14.550  70.014  1.00  0.00    -0.258 C  
HETATM    7  O   UNL     1     -11.042  15.488  70.670  1.00  0.00    -0.308 OA 
HETATM    8  C   UNL     1     -11.514  14.521  68.474  1.00  0.00    -0.301 C  
HETATM    9  N   UNL     1     -12.454  13.484  67.792  1.00  0.00     0.061 N  
HETATM   10  C   UNL     1     -11.122  13.608  63.611  1.00  0.00     0.368 C  
HETATM   11  C   UNL     1     -12.425  13.263  66.425  1.00  0.00    -0.165 C  
HETATM   12  C   UNL     1     -10.529  15.369  65.124  1.00  0.00    -0.439 C  
HETATM   13  O   UNL     1     -13.396  13.370  65.681  1.00  0.00    -0.374 OA 
HETATM   14  C   UNL     1     -11.052  12.684  66.092  1.00  0.00    -0.292 C  
HETATM   15  C   UNL     1     -11.983  12.241  68.258  1.00  0.00    -0.200 C  
HETATM   16  O   UNL     1     -12.661  11.090  67.750  1.00  0.00     0.496 OA 
HETATM   17  H   UNL     1     -12.373  11.026  66.847  1.00  0.00     0.000 HD 
HETATM   18  C   UNL     1     -10.448  13.835  65.015  1.00  0.00    -0.418 C  
HETATM   19  O   UNL     1     -10.728  12.350  67.570  1.00  0.00    -0.221 OA 
ENDROOT
BRANCH   8  20
HETATM   20  C   UNL     1     -11.646  15.911  67.957  1.00  0.00    -0.168 C  
HETATM   21  C   UNL     1      -9.450  16.799  68.770  1.00  0.00    -0.259 C  
HETATM   22  C   UNL     1     -10.421  16.707  67.597  1.00  0.00    -0.320 C  
HETATM   23  C   UNL     1     -10.965  18.092  67.237  1.00  0.00    -0.095 C  
ENDBRANCH   8  20
BRANCH  14  24
HETATM   24  N   UNL     1     -10.707  11.422  65.455  1.00  0.00    -0.272 N  
HETATM   25  H   UNL     1     -11.388  10.717  65.170  1.00  0.00     0.000 HD 
HETATM   26  O   UNL     1      -8.592  12.022  65.950  1.00  0.00     0.081 OA 
HETATM   27  C   UNL     1      -9.340  11.296  65.283  1.00  0.00    -0.203 C  
BRANCH  27  28
HETATM   28  C   UNL     1      -8.765  10.272  64.311  1.00  0.00    -0.217 C  
HETATM   29  C   UNL     1      -7.232  10.104  64.198  1.00  0.00    -0.106 C  
HETATM   30  N   UNL     1      -6.960   8.660  63.857  1.00  0.00    -0.086 NA 
HETATM   31  C   UNL     1      -7.132   7.804  65.099  1.00  0.00    -0.060 C  
HETATM   32  C   UNL     1      -5.783   8.511  63.041  1.00  0.00    -0.074 C  
HETATM   33  C   UNL     1      -7.326   6.208  64.951  1.00  0.00    -0.074 C  
HETATM   34  C   UNL     1      -8.557   5.665  65.685  1.00  0.00    -0.150 A  
HETATM   35  C   UNL     1      -9.363   4.552  65.601  1.00  0.00    -0.164 A  
HETATM   36 BR   UNL     1      -9.116   3.094  64.467  1.00  0.00    -0.139 Br 
HETATM   37  N   UNL     1     -10.460   4.717  66.419  1.00  0.00    -0.341 NA 
HETATM   38  C   UNL     1     -10.411   5.937  67.057  1.00  0.00    -0.278 A  
HETATM   39  H   UNL     1     -11.205   4.030  66.535  1.00  0.00     0.000 HD 
HETATM   40  C   UNL     1     -11.336   6.679  67.812  1.00  0.00    -0.073 A  
HETATM   41  C   UNL     1     -10.949   7.966  68.240  1.00  0.00     0.147 A  
HETATM   42  C   UNL     1      -9.736   8.518  67.854  1.00  0.00    -0.193 A  
HETATM   43  C   UNL     1      -8.959   7.807  66.945  1.00  0.00    -0.153 A  
HETATM   44  C   UNL     1      -9.205   6.471  66.659  1.00  0.00    -0.172 A  
HETATM   45  C   UNL     1      -8.346   8.427  65.786  1.00  0.00    -0.150 C  
HETATM   46  C   UNL     1      -9.261   8.998  64.959  1.00  0.00    -0.116 C  
ENDBRANCH  27  28
ENDBRANCH  14  24
TORSDOF 3
ENDMDL
MODEL       54
REMARK 921   NORMALIZED FREE ENERGY PREDICTED BY IDOCK:   -5.35 KCAL/MOL
REMARK 922        TOTAL FREE ENERGY PREDICTED BY IDOCK:   -5.82 KCAL/MOL
REMARK 923 INTER-LIGAND FREE ENERGY PREDICTED BY IDOCK:   -6.40 KCAL/MOL
REMARK 924 INTRA-LIGAND FREE ENERGY PREDICTED BY IDOCK:    0.58 KCAL/MOL
REMARK 927      BINDING AFFINITY PREDICTED BY RF-SCORE:    0.00 PKD
ROOT
HETATM    1  C   UNL     1      -6.697  17.886  65.886  1.00  0.00    -0.277 C  
HETATM    2  C   UNL     1      -5.396  17.980  65.094  1.00  0.00    -0.073 C  
HETATM    3  C   UNL     1      -5.136  19.515  65.024  1.00  0.00    -0.181 C  
HETATM    4  C   UNL     1      -6.411  20.188  65.531  1.00  0.00    -0.238 C  
HETATM    5  N   UNL     1      -7.383  19.128  65.600  1.00  0.00    -0.215 N  
HETATM    6  C   UNL     1      -8.566  19.383  66.248  1.00  0.00    -0.345 C  
HETATM    7  O   UNL     1      -9.173  20.438  66.090  1.00  0.00    -0.213 OA 
HETATM    8  C   UNL     1      -9.112  18.196  67.064  1.00  0.00    -0.263 C  
HETATM    9  N   UNL     1      -8.095  17.106  67.517  1.00  0.00    -0.182 N  
HETATM   10  C   UNL     1     -10.723  13.874  68.898  1.00  0.00    -0.256 C  
HETATM   11  C   UNL     1      -8.508  15.923  68.105  1.00  0.00    -0.167 C  
HETATM   12  C   UNL     1     -11.579  16.094  68.615  1.00  0.00    -0.283 C  
HETATM   13  O   UNL     1      -8.136  15.525  69.205  1.00  0.00    -0.217 OA 
HETATM   14  C   UNL     1      -9.316  15.160  67.059  1.00  0.00    -0.230 C  
HETATM   15  C   UNL     1      -7.564  16.616  66.308  1.00  0.00    -0.191 C  
HETATM   16  O   UNL     1      -6.610  15.559  66.433  1.00  0.00     0.270 OA 
HETATM   17  H   UNL     1      -7.126  14.803  66.684  1.00  0.00     0.000 HD 
HETATM   18  C   UNL     1     -10.815  15.019  67.821  1.00  0.00    -0.284 C  
HETATM   19  O   UNL     1      -8.808  16.035  65.887  1.00  0.00    -0.311 OA 
ENDROOT
BRANCH   8  20
HETATM   20  C   UNL     1      -9.994  18.709  68.149  1.00  0.00    -0.397 C  
HETATM   21  C   UNL     1      -8.206  19.552  69.687  1.00  0.00     0.366 C  
HETATM   22  C   UNL     1      -9.544  19.852  69.017  1.00  0.00    -0.231 C  
HETATM   23  C   UNL     1     -10.653  19.987  70.065  1.00  0.00     0.866 C  
ENDBRANCH   8  20
BRANCH  14  24
HETATM   24  N   UNL     1      -9.099  13.830  66.508  1.00  0.00    -0.444 N  
HETATM   25  H   UNL     1      -8.469  13.137  66.912  1.00  0.00     0.000 HD 
HETATM   26  O   UNL     1     -10.312  14.609  64.775  1.00  0.00    -0.396 OA 
HETATM   27  C   UNL     1      -9.854  13.623  65.367  1.00  0.00    -0.126 C  
BRANCH  27  28
HETATM   28  C   UNL     1     -10.102  12.215  64.838  1.00  0.00    -0.280 C  
HETATM   29  C   UNL     1      -9.426  11.764  63.522  1.00  0.00    -0.129 C  
HETATM   30  N   UNL     1      -9.169  10.282  63.631  1.00  0.00    -0.258 NA 
HETATM   31  C   UNL     1      -7.970  10.039  64.529  1.00  0.00    -0.148 C  
HETATM   32  C   UNL     1      -9.253   9.624  62.353  1.00  0.00    -0.223 C  
HETATM   33  C   UNL     1      -7.729   8.574  65.164  1.00  0.00    -0.102 C  
HETATM   34  C   UNL     1      -7.541   8.584  66.686  1.00  0.00    -0.082 A  
HETATM   35  C   UNL     1      -7.673   7.682  67.717  1.00  0.00    -0.122 A  
HETATM   36 BR   UNL     1      -8.086   5.872  67.553  1.00  0.00    -0.102 Br 
HETATM   37  N   UNL     1      -7.555   8.340  68.922  1.00  0.00    -0.092 NA 
HETATM   38  C   UNL     1      -7.348   9.688  68.720  1.00  0.00    -0.074 A  
HETATM   39  H   UNL     1      -7.613   7.892  69.836  1.00  0.00     0.000 HD 
HETATM   40  C   UNL     1      -7.366  10.812  69.562  1.00  0.00    -0.125 A  
HETATM   41  C   UNL     1      -7.194  12.080  68.967  1.00  0.00    -0.053 A  
HETATM   42  C   UNL     1      -7.102  12.221  67.590  1.00  0.00    -0.126 A  
HETATM   43  C   UNL     1      -7.291  11.086  66.806  1.00  0.00    -0.139 A  
HETATM   44  C   UNL     1      -7.264   9.809  67.350  1.00  0.00    -0.086 A  
HETATM   45  C   UNL     1      -8.146  11.077  65.636  1.00  0.00     0.004 C  
HETATM   46  C   UNL     1      -9.431  11.411  65.929  1.00  0.00    -0.251 C  
ENDBRANCH  27  28
ENDBRANCH  14  24
TORSDOF 3
ENDMDL
MODEL       55
REMARK 921   NORMALIZED FREE ENERGY PREDICTED BY IDOCK:   -5.21 KCAL/MOL
REMARK 922        TOTAL FREE ENERGY PREDICTED BY IDOCK:   -5.66 KCAL/MOL
REMARK 923 INTER-LIGAND FREE ENERGY PREDICTED BY IDOCK:   -6.17 KCAL/MOL
REMARK 924 INTRA-LIGAND FREE ENERGY PREDICTED BY IDOCK:    0.51 KCAL/MOL
REMARK 927      BINDING AFFINITY PREDICTED BY RF-SCORE:    0.00 PKD
ROOT
HETATM    1  C   UNL     1      -8.717   9.071  64.716  1.00  0.00    -0.153 C  
HETATM    2  C   UNL     1      -8.913   9.809  63.395  1.00  0.00    -0.271 C  
HETATM    3  C   UNL     1      -8.583   8.720  62.331  1.00  0.00    -0.188 C  
HETATM    4  C   UNL     1      -7.975   7.545  63.096  1.00  0.00    -0.103 C  
HETATM    5  N   UNL     1      -7.729   8.057  64.419  1.00  0.00    -0.122 N  
HETATM    6  C   UNL     1      -7.400   7.160  65.404  1.00  0.00    -0.080 C  
HETATM    7  O   UNL     1      -6.608   6.244  65.204  1.00  0.00    -0.038 OA 
HETATM    8  C   UNL     1      -8.001   7.483  66.785  1.00  0.00    -0.115 C  
HETATM    9  N   UNL     1      -9.272   8.383  66.823  1.00  0.00    -0.160 N  
HETATM   10  C   UNL     1      -9.585   9.399  71.081  1.00  0.00    -0.220 C  
HETATM   11  C   UNL     1      -9.786   8.868  68.014  1.00  0.00    -0.168 C  
HETATM   12  C   UNL     1      -8.215   7.566  70.371  1.00  0.00    -0.123 C  
HETATM   13  O   UNL     1     -10.936   8.683  68.402  1.00  0.00    -0.007 OA 
HETATM   14  C   UNL     1      -8.739   9.808  68.606  1.00  0.00    -0.122 C  
HETATM   15  C   UNL     1      -8.854   9.585  66.220  1.00  0.00    -0.149 C  
HETATM   16  O   UNL     1      -9.837  10.620  66.154  1.00  0.00    -0.200 OA 
HETATM   17  H   UNL     1      -9.919  10.926  67.049  1.00  0.00     0.000 HD 
HETATM   18  C   UNL     1      -8.412   9.066  70.086  1.00  0.00    -0.165 C  
HETATM   19  O   UNL     1      -7.944   9.912  67.280  1.00  0.00    -0.108 OA 
ENDROOT
BRANCH   8  20
HETATM   20  C   UNL     1      -8.105   6.231  67.584  1.00  0.00    -0.117 C  
HETATM   21  C   UNL     1     -10.321   5.448  66.721  1.00  0.00    -0.321 C  
HETATM   22  C   UNL     1      -8.885   5.058  67.057  1.00  0.00    -0.106 C  
HETATM   23  C   UNL     1      -8.856   4.042  68.203  1.00  0.00    -0.135 C  
ENDBRANCH   8  20
BRANCH  14  24
HETATM   24  N   UNL     1      -8.850  11.216  68.958  1.00  0.00    -0.365 N  
HETATM   25  H   UNL     1      -9.704  11.657  69.300  1.00  0.00     0.000 HD 
HETATM   26  O   UNL     1      -6.791  11.361  68.051  1.00  0.00    -0.064 OA 
HETATM   27  C   UNL     1      -7.652  11.882  68.772  1.00  0.00    -0.090 C  
BRANCH  27  28
HETATM   28  C   UNL     1      -7.401  13.238  69.423  1.00  0.00     0.313 C  
HETATM   29  C   UNL     1      -6.021  13.916  69.268  1.00  0.00    -0.090 C  
HETATM   30  N   UNL     1      -6.247  15.407  69.270  1.00  0.00    -0.117 NA 
HETATM   31  C   UNL     1      -6.799  15.839  67.924  1.00  0.00    -0.145 C  
HETATM   32  C   UNL     1      -5.141  16.120  69.853  1.00  0.00    -0.129 C  
HETATM   33  C   UNL     1      -7.529  17.272  67.780  1.00  0.00    -0.184 C  
HETATM   34  C   UNL     1      -8.924  17.195  67.148  1.00  0.00    -0.238 A  
HETATM   35  C   UNL     1     -10.060  17.971  67.130  1.00  0.00    -0.346 A  
HETATM   36 BR   UNL     1     -10.256  19.657  67.901  1.00  0.00    -0.593 Br 
HETATM   37  N   UNL     1     -11.087  17.270  66.537  1.00  0.00     0.255 NA 
HETATM   38  C   UNL     1     -10.661  16.017  66.153  1.00  0.00    -0.297 A  
HETATM   39  H   UNL     1     -12.032  17.629  66.401  1.00  0.00     0.000 HD 
HETATM   40  C   UNL     1     -11.320  14.858  65.710  1.00  0.00    -0.314 A  
HETATM   41  C   UNL     1     -10.539  13.703  65.492  1.00  0.00    -0.300 A  
HETATM   42  C   UNL     1      -9.185  13.683  65.792  1.00  0.00     0.284 A  
HETATM   43  C   UNL     1      -8.641  14.804  66.413  1.00  0.00     0.042 A  
HETATM   44  C   UNL     1      -9.318  16.014  66.463  1.00  0.00    -0.296 A  
HETATM   45  C   UNL     1      -7.766  14.711  67.566  1.00  0.00    -0.216 C  
HETATM   46  C   UNL     1      -8.359  14.088  68.619  1.00  0.00    -0.104 C  
ENDBRANCH  27  28
ENDBRANCH  14  24
TORSDOF 3
ENDMDL
MODEL       56
REMARK 921   NORMALIZED FREE ENERGY PREDICTED BY IDOCK:   -5.20 KCAL/MOL
REMARK 922        TOTAL FREE ENERGY PREDICTED BY IDOCK:   -5.65 KCAL/MOL
REMARK 923 INTER-LIGAND FREE ENERGY PREDICTED BY IDOCK:   -6.66 KCAL/MOL
REMARK 924 INTRA-LIGAND FREE ENERGY PREDICTED BY IDOCK:    1.01 KCAL/MOL
REMARK 927      BINDING AFFINITY PREDICTED BY RF-SCORE:    0.00 PKD
ROOT
HETATM    1  C   UNL     1      -8.699   4.971  68.505  1.00  0.00    -0.097 C  
HETATM    2  C   UNL     1      -9.495   4.754  69.789  1.00  0.00    -0.233 C  
HETATM    3  C   UNL     1      -9.612   3.202  69.872  1.00  0.00    -0.144 C  
HETATM    4  C   UNL     1      -9.125   2.664  68.528  1.00  0.00    -0.164 C  
HETATM    5  N   UNL     1      -9.022   3.825  67.683  1.00  0.00    -0.122 N  
HETATM    6  C   UNL     1      -8.382   3.687  66.477  1.00  0.00    -0.104 C  
HETATM    7  O   UNL     1      -8.571   2.713  65.754  1.00  0.00    -0.099 OA 
HETATM    8  C   UNL     1      -7.529   4.903  66.067  1.00  0.00    -0.082 C  
HETATM    9  N   UNL     1      -7.045   5.855  67.201  1.00  0.00    -0.069 N  
HETATM   10  C   UNL     1      -5.564   9.323  64.953  1.00  0.00    -0.061 C  
HETATM   11  C   UNL     1      -6.420   7.060  66.923  1.00  0.00    -0.054 C  
HETATM   12  C   UNL     1      -5.913   7.224  63.851  1.00  0.00    -0.044 C  
HETATM   13  O   UNL     1      -5.309   7.379  67.335  1.00  0.00    -0.023 OA 
HETATM   14  C   UNL     1      -7.442   7.941  66.210  1.00  0.00    -0.079 C  
HETATM   15  C   UNL     1      -8.239   6.319  67.786  1.00  0.00    -0.118 C  
HETATM   16  O   UNL     1      -8.082   7.255  68.855  1.00  0.00    -0.124 OA 
HETATM   17  H   UNL     1      -7.808   8.058  68.427  1.00  0.00     0.000 HD 
HETATM   18  C   UNL     1      -6.675   8.229  64.735  1.00  0.00    -0.067 C  
HETATM   19  O   UNL     1      -8.641   7.049  66.618  1.00  0.00    -0.116 OA 
ENDROOT
BRANCH   8  20
HETATM   20  C   UNL     1      -6.459   4.461  65.130  1.00  0.00    -0.036 C  
HETATM   21  C   UNL     1      -7.927   3.767  63.223  1.00  0.00    -0.079 C  
HETATM   22  C   UNL     1      -6.676   4.533  63.643  1.00  0.00    -0.042 C  
HETATM   23  C   UNL     1      -5.422   3.884  63.049  1.00  0.00    -0.012 C  
ENDBRANCH   8  20
BRANCH  14  24
HETATM   24  N   UNL     1      -7.953   9.254  66.578  1.00  0.00    -0.103 N  
HETATM   25  H   UNL     1      -7.778   9.707  67.475  1.00  0.00     0.000 HD 
HETATM   26  O   UNL     1      -9.138   9.067  64.670  1.00  0.00    -0.137 OA 
HETATM   27  C   UNL     1      -8.706   9.811  65.560  1.00  0.00    -0.149 C  
BRANCH  27  28
HETATM   28  C   UNL     1      -9.015  11.303  65.542  1.00  0.00    -0.139 C  
HETATM   29  C   UNL     1     -10.059  11.855  64.543  1.00  0.00    -0.271 C  
HETATM   30  N   UNL     1     -10.723  13.042  65.194  1.00  0.00    -0.296 NA 
HETATM   31  C   UNL     1     -11.721  12.560  66.231  1.00  0.00    -0.404 C  
HETATM   32  C   UNL     1     -11.116  14.037  64.230  1.00  0.00    -0.180 C  
HETATM   33  C   UNL     1     -12.255  13.579  67.364  1.00  0.00    -0.278 C  
HETATM   34  C   UNL     1     -12.104  13.047  68.794  1.00  0.00    -0.197 A  
HETATM   35  C   UNL     1     -12.037  13.583  70.060  1.00  0.00    -0.341 A  
HETATM   36 BR   UNL     1     -12.237  15.381  70.508  1.00  0.00    -0.475 Br 
HETATM   37  N   UNL     1     -11.692  12.597  70.958  1.00  0.00     0.012 NA 
HETATM   38  C   UNL     1     -11.518  11.391  70.314  1.00  0.00    -0.151 A  
HETATM   39  H   UNL     1     -11.581  12.740  71.962  1.00  0.00     0.000 HD 
HETATM   40  C   UNL     1     -10.982  10.150  70.697  1.00  0.00    -0.357 A  
HETATM   41  C   UNL     1     -10.883   9.147  69.711  1.00  0.00    -0.224 A  
HETATM   42  C   UNL     1     -11.217   9.402  68.389  1.00  0.00     0.132 A  
HETATM   43  C   UNL     1     -11.552  10.708  68.044  1.00  0.00    -0.182 A  
HETATM   44  C   UNL     1     -11.849  11.665  69.004  1.00  0.00    -0.391 A  
HETATM   45  C   UNL     1     -11.008  11.373  66.876  1.00  0.00    -0.355 C  
HETATM   46  C   UNL     1      -9.651  11.448  66.907  1.00  0.00    -0.203 C  
ENDBRANCH  27  28
ENDBRANCH  14  24
TORSDOF 3
ENDMDL
MODEL       57
REMARK 921   NORMALIZED FREE ENERGY PREDICTED BY IDOCK:   -5.15 KCAL/MOL
REMARK 922        TOTAL FREE ENERGY PREDICTED BY IDOCK:   -5.59 KCAL/MOL
REMARK 923 INTER-LIGAND FREE ENERGY PREDICTED BY IDOCK:   -5.69 KCAL/MOL
REMARK 924 INTRA-LIGAND FREE ENERGY PREDICTED BY IDOCK:    0.11 KCAL/MOL
REMARK 927      BINDING AFFINITY PREDICTED BY RF-SCORE:    0.00 PKD
ROOT
HETATM    1  C   UNL     1     -10.045   5.517  66.431  1.00  0.00    -0.182 C  
HETATM    2  C   UNL     1     -10.964   4.883  65.391  1.00  0.00     0.108 C  
HETATM    3  C   UNL     1     -10.040   3.838  64.696  1.00  0.00    -0.193 C  
HETATM    4  C   UNL     1      -8.622   4.127  65.187  1.00  0.00    -0.116 C  
HETATM    5  N   UNL     1      -8.720   5.394  65.865  1.00  0.00    -0.140 N  
HETATM    6  C   UNL     1      -7.648   5.803  66.618  1.00  0.00    -0.092 C  
HETATM    7  O   UNL     1      -6.494   5.681  66.218  1.00  0.00    -0.041 OA 
HETATM    8  C   UNL     1      -8.029   6.535  67.919  1.00  0.00    -0.109 C  
HETATM    9  N   UNL     1      -9.448   6.269  68.504  1.00  0.00    -0.124 N  
HETATM   10  C   UNL     1      -9.820   9.410  71.547  1.00  0.00    -0.088 C  
HETATM   11  C   UNL     1      -9.945   7.001  69.570  1.00  0.00    -0.162 C  
HETATM   12  C   UNL     1      -7.671   8.836  70.656  1.00  0.00    -0.096 C  
HETATM   13  O   UNL     1     -10.342   6.514  70.624  1.00  0.00    -0.195 OA 
HETATM   14  C   UNL     1     -10.086   8.445  69.095  1.00  0.00    -0.203 C  
HETATM   15  C   UNL     1     -10.320   6.687  67.481  1.00  0.00    -0.208 C  
HETATM   16  O   UNL     1     -11.715   6.581  67.773  1.00  0.00    -0.552 OA 
HETATM   17  H   UNL     1     -11.879   7.278  68.398  1.00  0.00     0.000 HD 
HETATM   18  C   UNL     1      -9.071   9.258  70.171  1.00  0.00    -0.248 C  
HETATM   19  O   UNL     1      -9.951   8.069  67.599  1.00  0.00    -0.157 OA 
ENDROOT
BRANCH   8  20
HETATM   20  C   UNL     1      -6.918   6.402  68.903  1.00  0.00    -0.076 C  
HETATM   21  C   UNL     1      -7.604   4.216  69.913  1.00  0.00    -0.052 C  
HETATM   22  C   UNL     1      -6.454   5.041  69.343  1.00  0.00    -0.039 C  
HETATM   23  C   UNL     1      -5.411   5.333  70.427  1.00  0.00    -0.004 C  
ENDBRANCH   8  20
BRANCH  14  24
HETATM   24  N   UNL     1     -11.266   9.296  69.047  1.00  0.00    -0.442 N  
HETATM   25  H   UNL     1     -12.196   9.004  69.349  1.00  0.00     0.000 HD 
HETATM   26  O   UNL     1      -9.920  10.694  67.901  1.00  0.00    -0.161 OA 
HETATM   27  C   UNL     1     -10.969  10.549  68.542  1.00  0.00    -0.252 C  
BRANCH  27  28
HETATM   28  C   UNL     1     -11.920  11.722  68.750  1.00  0.00    -0.317 C  
HETATM   29  C   UNL     1     -12.393  12.078  70.179  1.00  0.00    -0.155 C  
HETATM   30  N   UNL     1     -12.610  13.569  70.225  1.00  0.00    -0.210 NA 
HETATM   31  C   UNL     1     -11.269  14.275  70.310  1.00  0.00     0.004 C  
HETATM   32  C   UNL     1     -13.670  13.932  71.128  1.00  0.00    -0.016 C  
HETATM   33  C   UNL     1     -11.166  15.845  69.945  1.00  0.00    -0.348 C  
HETATM   34  C   UNL     1     -10.085  16.167  68.907  1.00  0.00    -0.238 A  
HETATM   35  C   UNL     1      -9.826  17.181  68.013  1.00  0.00    -0.283 A  
HETATM   36 BR   UNL     1     -10.797  18.761  67.826  1.00  0.00    -0.215 Br 
HETATM   37  N   UNL     1      -8.786  16.812  67.187  1.00  0.00    -0.196 NA 
HETATM   38  C   UNL     1      -8.336  15.550  67.508  1.00  0.00    -0.173 A  
HETATM   39  H   UNL     1      -8.403  17.393  66.442  1.00  0.00     0.000 HD 
HETATM   40  C   UNL     1      -7.472  14.636  66.883  1.00  0.00     0.373 A  
HETATM   41  C   UNL     1      -7.316  13.367  67.480  1.00  0.00    -0.165 A  
HETATM   42  C   UNL     1      -8.059  13.000  68.593  1.00  0.00    -0.011 A  
HETATM   43  C   UNL     1      -9.039  13.881  69.039  1.00  0.00     0.212 A  
HETATM   44  C   UNL     1      -9.087  15.201  68.610  1.00  0.00    -0.195 A  
HETATM   45  C   UNL     1     -10.382  13.452  69.378  1.00  0.00     0.349 C  
HETATM   46  C   UNL     1     -11.017  12.860  68.332  1.00  0.00    -0.285 C  
ENDBRANCH  27  28
ENDBRANCH  14  24
TORSDOF 3
ENDMDL
MODEL       58
REMARK 921   NORMALIZED FREE ENERGY PREDICTED BY IDOCK:   -5.11 KCAL/MOL
REMARK 922        TOTAL FREE ENERGY PREDICTED BY IDOCK:   -5.53 KCAL/MOL
REMARK 923 INTER-LIGAND FREE ENERGY PREDICTED BY IDOCK:   -5.45 KCAL/MOL
REMARK 924 INTRA-LIGAND FREE ENERGY PREDICTED BY IDOCK:   -0.09 KCAL/MOL
REMARK 927      BINDING AFFINITY PREDICTED BY RF-SCORE:    0.00 PKD
ROOT
HETATM    1  C   UNL     1      -6.981  16.178  69.039  1.00  0.00    -0.178 C  
HETATM    2  C   UNL     1      -5.894  16.569  70.036  1.00  0.00    -0.200 C  
HETATM    3  C   UNL     1      -5.243  17.820  69.375  1.00  0.00    -0.182 C  
HETATM    4  C   UNL     1      -5.804  17.895  67.955  1.00  0.00    -0.158 C  
HETATM    5  N   UNL     1      -6.480  16.638  67.762  1.00  0.00    -0.137 N  
HETATM    6  C   UNL     1      -7.287  16.506  66.660  1.00  0.00    -0.233 C  
HETATM    7  O   UNL     1      -6.944  16.921  65.556  1.00  0.00     0.483 OA 
HETATM    8  C   UNL     1      -8.570  15.690  66.905  1.00  0.00    -0.248 C  
HETATM    9  N   UNL     1      -9.083  15.582  68.372  1.00  0.00    -0.185 N  
HETATM   10  C   UNL     1     -12.112  12.419  68.083  1.00  0.00    -0.100 C  
HETATM   11  C   UNL     1     -10.124  14.737  68.719  1.00  0.00    -0.237 C  
HETATM   12  C   UNL     1     -11.327  13.528  66.109  1.00  0.00    -0.325 C  
HETATM   13  O   UNL     1     -11.157  15.097  69.277  1.00  0.00    -0.245 OA 
HETATM   14  C   UNL     1      -9.648  13.309  68.465  1.00  0.00    -0.127 C  
HETATM   15  C   UNL     1      -8.019  14.967  69.058  1.00  0.00    -0.170 C  
HETATM   16  O   UNL     1      -8.242  14.713  70.447  1.00  0.00     0.195 OA 
HETATM   17  H   UNL     1      -8.860  13.991  70.459  1.00  0.00     0.000 HD 
HETATM   18  C   UNL     1     -10.775  12.770  67.331  1.00  0.00    -0.248 C  
HETATM   19  O   UNL     1      -8.159  13.722  68.357  1.00  0.00    -0.141 OA 
ENDROOT
BRANCH   8  20
HETATM   20  C   UNL     1      -9.607  16.090  65.913  1.00  0.00    -0.370 C  
HETATM   21  C   UNL     1     -10.726  17.868  67.275  1.00  0.00    -0.278 C  
HETATM   22  C   UNL     1     -10.154  17.491  65.912  1.00  0.00    -0.197 C  
HETATM   23  C   UNL     1     -11.260  17.460  64.853  1.00  0.00     0.735 C  
ENDBRANCH   8  20
BRANCH  14  24
HETATM   24  N   UNL     1      -9.544  12.188  69.387  1.00  0.00     0.131 N  
HETATM   25  H   UNL     1      -9.851  12.214  70.360  1.00  0.00     0.000 HD 
HETATM   26  O   UNL     1      -8.340  11.244  67.732  1.00  0.00    -0.119 OA 
HETATM   27  C   UNL     1      -8.977  11.081  68.781  1.00  0.00    -0.149 C  
BRANCH  27  28
HETATM   28  C   UNL     1      -9.115   9.694  69.398  1.00  0.00    -0.194 C  
HETATM   29  C   UNL     1     -10.488   9.232  69.939  1.00  0.00    -0.227 C  
HETATM   30  N   UNL     1     -10.569   7.738  69.749  1.00  0.00    -0.240 NA 
HETATM   31  C   UNL     1     -10.849   7.427  68.290  1.00  0.00    -0.023 C  
HETATM   32  C   UNL     1     -11.348   7.104  70.780  1.00  0.00    -0.289 C  
HETATM   33  C   UNL     1     -10.566   5.943  67.719  1.00  0.00    -0.331 C  
HETATM   34  C   UNL     1      -9.684   5.922  66.465  1.00  0.00    -0.185 A  
HETATM   35  C   UNL     1      -8.873   5.012  65.827  1.00  0.00    -0.139 A  
HETATM   36 BR   UNL     1      -8.633   3.225  66.301  1.00  0.00    -0.127 Br 
HETATM   37  N   UNL     1      -8.168   5.646  64.827  1.00  0.00    -0.131 NA 
HETATM   38  C   UNL     1      -8.489   6.985  64.781  1.00  0.00     0.118 A  
HETATM   39  H   UNL     1      -7.501   5.188  64.207  1.00  0.00     0.000 HD 
HETATM   40  C   UNL     1      -7.938   8.097  64.122  1.00  0.00    -0.142 A  
HETATM   41  C   UNL     1      -8.496   9.364  64.395  1.00  0.00    -0.196 A  
HETATM   42  C   UNL     1      -9.492   9.521  65.348  1.00  0.00    -0.336 A  
HETATM   43  C   UNL     1      -9.849   8.407  66.103  1.00  0.00    -0.183 A  
HETATM   44  C   UNL     1      -9.474   7.123  65.736  1.00  0.00     0.254 A  
HETATM   45  C   UNL     1     -10.001   8.455  67.544  1.00  0.00    -0.259 C  
HETATM   46  C   UNL     1      -8.860   8.844  68.173  1.00  0.00    -0.134 C  
ENDBRANCH  27  28
ENDBRANCH  14  24
TORSDOF 3
ENDMDL
MODEL       59
REMARK 921   NORMALIZED FREE ENERGY PREDICTED BY IDOCK:   -5.08 KCAL/MOL
REMARK 922        TOTAL FREE ENERGY PREDICTED BY IDOCK:   -5.50 KCAL/MOL
REMARK 923 INTER-LIGAND FREE ENERGY PREDICTED BY IDOCK:   -8.42 KCAL/MOL
REMARK 924 INTRA-LIGAND FREE ENERGY PREDICTED BY IDOCK:    2.92 KCAL/MOL
REMARK 927      BINDING AFFINITY PREDICTED BY RF-SCORE:    0.00 PKD
ROOT
HETATM    1  C   UNL     1      -6.794   8.797  71.698  1.00  0.00    -0.078 C  
HETATM    2  C   UNL     1      -5.649   9.787  71.893  1.00  0.00     0.027 C  
HETATM    3  C   UNL     1      -5.145   9.462  73.331  1.00  0.00    -0.103 C  
HETATM    4  C   UNL     1      -6.180   8.522  73.946  1.00  0.00    -0.121 C  
HETATM    5  N   UNL     1      -7.294   8.557  73.034  1.00  0.00    -0.045 N  
HETATM    6  C   UNL     1      -8.289   7.626  73.201  1.00  0.00    -0.138 C  
HETATM    7  O   UNL     1      -8.724   7.338  74.312  1.00  0.00    -0.186 OA 
HETATM    8  C   UNL     1      -8.886   7.092  71.885  1.00  0.00    -0.125 C  
HETATM    9  N   UNL     1      -8.010   7.203  70.602  1.00  0.00    -0.099 N  
HETATM   10  C   UNL     1     -10.884   6.290  67.413  1.00  0.00    -0.448 C  
HETATM   11  C   UNL     1      -8.515   6.909  69.347  1.00  0.00    -0.133 C  
HETATM   12  C   UNL     1     -11.380   5.727  69.688  1.00  0.00     0.043 C  
HETATM   13  O   UNL     1      -8.037   6.077  68.580  1.00  0.00    -0.105 OA 
HETATM   14  C   UNL     1      -9.607   7.933  69.051  1.00  0.00    -0.155 C  
HETATM   15  C   UNL     1      -7.784   8.587  70.465  1.00  0.00    -0.084 C  
HETATM   16  O   UNL     1      -7.018   8.980  69.324  1.00  0.00    -0.055 OA 
HETATM   17  H   UNL     1      -7.607   8.855  68.589  1.00  0.00     0.000 HD 
HETATM   18  C   UNL     1     -10.958   6.943  68.843  1.00  0.00    -0.217 C  
HETATM   19  O   UNL     1      -9.161   8.882  70.191  1.00  0.00    -0.161 OA 
ENDROOT
BRANCH   8  20
HETATM   20  C   UNL     1      -9.470   5.742  72.121  1.00  0.00    -0.164 C  
HETATM   21  C   UNL     1      -7.369   4.402  71.879  1.00  0.00    -0.069 C  
HETATM   22  C   UNL     1      -8.628   4.643  72.706  1.00  0.00    -0.114 C  
HETATM   23  C   UNL     1      -9.540   3.412  72.670  1.00  0.00    -0.184 C  
ENDBRANCH   8  20
BRANCH  14  24
HETATM   24  N   UNL     1      -9.719   8.880  67.950  1.00  0.00    -0.155 N  
HETATM   25  H   UNL     1     -10.405   9.634  67.909  1.00  0.00     0.000 HD 
HETATM   26  O   UNL     1      -8.232   7.518  66.941  1.00  0.00    -0.119 OA 
HETATM   27  C   UNL     1      -8.779   8.629  66.966  1.00  0.00    -0.127 C  
BRANCH  27  28
HETATM   28  C   UNL     1      -8.437   9.687  65.923  1.00  0.00    -0.136 C  
HETATM   29  C   UNL     1      -8.982   9.545  64.484  1.00  0.00    -0.212 C  
HETATM   30  N   UNL     1      -9.192  10.935  63.941  1.00  0.00    -0.210 NA 
HETATM   31  C   UNL     1     -10.454  11.529  64.541  1.00  0.00    -0.314 C  
HETATM   32  C   UNL     1      -8.977  10.998  62.519  1.00  0.00    -0.326 C  
HETATM   33  C   UNL     1     -10.694  13.125  64.482  1.00  0.00    -0.416 C  
HETATM   34  C   UNL     1     -11.010  13.752  65.846  1.00  0.00    -0.283 A  
HETATM   35  C   UNL     1     -10.933  15.003  66.414  1.00  0.00    -0.336 A  
HETATM   36 BR   UNL     1     -10.441  16.579  65.550  1.00  0.00    -0.246 Br 
HETATM   37  N   UNL     1     -11.176  14.909  67.767  1.00  0.00    -0.309 NA 
HETATM   38  C   UNL     1     -11.414  13.600  68.128  1.00  0.00    -0.313 A  
HETATM   39  H   UNL     1     -11.179  15.698  68.413  1.00  0.00     0.000 HD 
HETATM   40  C   UNL     1     -11.509  12.931  69.360  1.00  0.00    -0.323 A  
HETATM   41  C   UNL     1     -11.676  11.530  69.333  1.00  0.00    -0.413 A  
HETATM   42  C   UNL     1     -11.656  10.826  68.138  1.00  0.00    -0.276 A  
HETATM   43  C   UNL     1     -11.360  11.530  66.975  1.00  0.00    -0.340 A  
HETATM   44  C   UNL     1     -11.386  12.917  66.931  1.00  0.00    -0.358 A  
HETATM   45  C   UNL     1     -10.409  11.050  65.991  1.00  0.00    -0.311 C  
HETATM   46  C   UNL     1      -9.167  10.872  66.514  1.00  0.00    -0.189 C  
ENDBRANCH  27  28
ENDBRANCH  14  24
TORSDOF 3
ENDMDL
MODEL       60
REMARK 921   NORMALIZED FREE ENERGY PREDICTED BY IDOCK:   -5.07 KCAL/MOL
REMARK 922        TOTAL FREE ENERGY PREDICTED BY IDOCK:   -5.49 KCAL/MOL
REMARK 923 INTER-LIGAND FREE ENERGY PREDICTED BY IDOCK:   -5.99 KCAL/MOL
REMARK 924 INTRA-LIGAND FREE ENERGY PREDICTED BY IDOCK:    0.50 KCAL/MOL
REMARK 927      BINDING AFFINITY PREDICTED BY RF-SCORE:    0.00 PKD
ROOT
HETATM    1  C   UNL     1      -8.645   7.285  71.111  1.00  0.00    -0.130 C  
HETATM    2  C   UNL     1      -8.388   7.150  72.609  1.00  0.00    -0.122 C  
HETATM    3  C   UNL     1      -9.403   6.050  73.043  1.00  0.00    -0.139 C  
HETATM    4  C   UNL     1     -10.332   5.831  71.850  1.00  0.00    -0.214 C  
HETATM    5  N   UNL     1     -10.034   6.914  70.949  1.00  0.00    -0.189 N  
HETATM    6  C   UNL     1     -10.548   6.852  69.678  1.00  0.00    -0.231 C  
HETATM    7  O   UNL     1     -11.704   6.496  69.467  1.00  0.00    -0.329 OA 
HETATM    8  C   UNL     1      -9.605   7.387  68.584  1.00  0.00    -0.146 C  
HETATM    9  N   UNL     1      -8.080   7.414  68.901  1.00  0.00    -0.126 N  
HETATM   10  C   UNL     1      -6.479   9.867  65.632  1.00  0.00    -0.092 C  
HETATM   11  C   UNL     1      -7.171   8.029  68.056  1.00  0.00    -0.094 C  
HETATM   12  C   UNL     1      -8.668   8.907  65.467  1.00  0.00    -0.215 C  
HETATM   13  O   UNL     1      -6.198   7.472  67.556  1.00  0.00    -0.045 OA 
HETATM   14  C   UNL     1      -7.500   9.519  68.051  1.00  0.00    -0.083 C  
HETATM   15  C   UNL     1      -7.984   8.252  70.029  1.00  0.00    -0.104 C  
HETATM   16  O   UNL     1      -6.661   8.482  70.519  1.00  0.00    -0.035 OA 
HETATM   17  H   UNL     1      -6.267   9.058  69.875  1.00  0.00     0.000 HD 
HETATM   18  C   UNL     1      -7.840   9.788  66.419  1.00  0.00    -0.106 C  
HETATM   19  O   UNL     1      -8.395   9.425  69.312  1.00  0.00    -0.118 OA 
ENDROOT
BRANCH   8  20
HETATM   20  C   UNL     1      -9.955   6.758  67.280  1.00  0.00    -0.206 C  
HETATM   21  C   UNL     1      -8.680   4.622  67.566  1.00  0.00    -0.107 C  
HETATM   22  C   UNL     1     -10.001   5.261  67.148  1.00  0.00    -0.211 C  
HETATM   23  C   UNL     1     -10.267   5.024  65.658  1.00  0.00    -0.088 C  
ENDBRANCH   8  20
BRANCH  14  24
HETATM   24  N   UNL     1      -6.663  10.656  68.406  1.00  0.00    -0.059 N  
HETATM   25  H   UNL     1      -5.646  10.620  68.475  1.00  0.00     0.000 HD 
HETATM   26  O   UNL     1      -8.630  11.660  68.862  1.00  0.00    -0.067 OA 
HETATM   27  C   UNL     1      -7.419  11.792  68.638  1.00  0.00    -0.120 C  
BRANCH  27  28
HETATM   28  C   UNL     1      -6.775  13.173  68.641  1.00  0.00    -0.096 C  
HETATM   29  C   UNL     1      -6.080  13.694  67.361  1.00  0.00     0.150 C  
HETATM   30  N   UNL     1      -6.244  15.193  67.337  1.00  0.00    -0.326 NA 
HETATM   31  C   UNL     1      -7.659  15.542  66.914  1.00  0.00    -0.127 C  
HETATM   32  C   UNL     1      -5.126  15.847  66.709  1.00  0.00     0.792 C  
HETATM   33  C   UNL     1      -8.241  17.019  67.208  1.00  0.00    -0.205 C  
HETATM   34  C   UNL     1      -9.585  17.018  67.946  1.00  0.00    -0.249 A  
HETATM   35  C   UNL     1     -10.299  17.897  68.728  1.00  0.00    -0.307 A  
HETATM   36 BR   UNL     1      -9.834  19.661  69.110  1.00  0.00    -0.286 Br 
HETATM   37  N   UNL     1     -11.378  17.245  69.285  1.00  0.00     0.104 NA 
HETATM   38  C   UNL     1     -11.402  15.924  68.893  1.00  0.00    -0.377 A  
HETATM   39  H   UNL     1     -12.063  17.680  69.903  1.00  0.00     0.000 HD 
HETATM   40  C   UNL     1     -12.131  14.797  69.310  1.00  0.00    -0.296 A  
HETATM   41  C   UNL     1     -11.812  13.556  68.722  1.00  0.00    -0.390 A  
HETATM   42  C   UNL     1     -10.756  13.432  67.830  1.00  0.00    -0.259 A  
HETATM   43  C   UNL     1      -9.954  14.549  67.615  1.00  0.00    -0.224 A  
HETATM   44  C   UNL     1     -10.346  15.820  68.014  1.00  0.00    -0.252 A  
HETATM   45  C   UNL     1      -8.505  14.485  67.621  1.00  0.00    -0.189 C  
HETATM   46  C   UNL     1      -8.011  14.030  68.803  1.00  0.00    -0.081 C  
ENDBRANCH  27  28
ENDBRANCH  14  24
TORSDOF 3
ENDMDL
MODEL       61
REMARK 921   NORMALIZED FREE ENERGY PREDICTED BY IDOCK:   -5.00 KCAL/MOL
REMARK 922        TOTAL FREE ENERGY PREDICTED BY IDOCK:   -5.41 KCAL/MOL
REMARK 923 INTER-LIGAND FREE ENERGY PREDICTED BY IDOCK:   -5.47 KCAL/MOL
REMARK 924 INTRA-LIGAND FREE ENERGY PREDICTED BY IDOCK:    0.06 KCAL/MOL
REMARK 927      BINDING AFFINITY PREDICTED BY RF-SCORE:    0.00 PKD
ROOT
HETATM    1  C   UNL     1     -12.292  13.985  69.849  1.00  0.00    -0.310 C  
HETATM    2  C   UNL     1     -13.493  14.109  70.783  1.00  0.00    -0.037 C  
HETATM    3  C   UNL     1     -13.335  15.545  71.369  1.00  0.00    -0.592 C  
HETATM    4  C   UNL     1     -11.947  16.027  70.951  1.00  0.00    -0.339 C  
HETATM    5  N   UNL     1     -11.293  14.855  70.429  1.00  0.00    -0.255 N  
HETATM    6  C   UNL     1     -10.109  15.027  69.757  1.00  0.00    -0.087 C  
HETATM    7  O   UNL     1      -9.239  15.790  70.167  1.00  0.00     0.135 OA 
HETATM    8  C   UNL     1      -9.925  14.094  68.545  1.00  0.00    -0.235 C  
HETATM    9  N   UNL     1     -11.209  13.496  67.898  1.00  0.00    -0.263 N  
HETATM   10  C   UNL     1      -9.579  10.399  65.250  1.00  0.00    -0.316 C  
HETATM   11  C   UNL     1     -11.144  12.520  66.917  1.00  0.00    -0.278 C  
HETATM   12  C   UNL     1      -8.158  12.122  66.117  1.00  0.00     0.472 C  
HETATM   13  O   UNL     1     -11.648  12.619  65.802  1.00  0.00    -0.345 OA 
HETATM   14  C   UNL     1     -10.530  11.279  67.559  1.00  0.00    -0.201 C  
HETATM   15  C   UNL     1     -11.807  12.765  68.943  1.00  0.00    -0.308 C  
HETATM   16  O   UNL     1     -13.010  12.072  68.606  1.00  0.00     1.060 OA 
HETATM   17  H   UNL     1     -12.721  11.346  68.066  1.00  0.00     0.000 HD 
HETATM   18  C   UNL     1      -9.150  11.054  66.614  1.00  0.00    -0.177 C  
HETATM   19  O   UNL     1     -10.746  11.800  69.002  1.00  0.00    -0.214 OA 
ENDROOT
BRANCH   8  20
HETATM   20  C   UNL     1      -8.978  14.719  67.580  1.00  0.00    -0.183 C  
HETATM   21  C   UNL     1     -10.505  16.494  66.691  1.00  0.00    -0.266 C  
HETATM   22  C   UNL     1      -9.111  16.174  67.222  1.00  0.00    -0.215 C  
HETATM   23  C   UNL     1      -8.056  16.390  66.133  1.00  0.00    -0.193 C  
ENDBRANCH   8  20
BRANCH  14  24
HETATM   24  N   UNL     1     -11.070   9.933  67.681  1.00  0.00    -0.441 N  
HETATM   25  H   UNL     1     -11.906   9.604  67.196  1.00  0.00     0.000 HD 
HETATM   26  O   UNL     1      -9.539   9.721  69.321  1.00  0.00    -0.175 OA 
HETATM   27  C   UNL     1     -10.310   9.155  68.536  1.00  0.00    -0.207 C  
BRANCH  27  28
HETATM   28  C   UNL     1     -10.432   7.635  68.527  1.00  0.00    -0.206 C  
HETATM   29  C   UNL     1     -10.461   6.879  67.179  1.00  0.00    -0.303 C  
HETATM   30  N   UNL     1      -9.820   5.533  67.403  1.00  0.00    -0.138 NA 
HETATM   31  C   UNL     1      -8.312   5.694  67.474  1.00  0.00    -0.100 C  
HETATM   32  C   UNL     1     -10.393   4.515  66.562  1.00  0.00    -0.118 C  
HETATM   33  C   UNL     1      -7.411   4.521  68.121  1.00  0.00    -0.065 C  
HETATM   34  C   UNL     1      -6.460   5.009  69.222  1.00  0.00    -0.039 A  
HETATM   35  C   UNL     1      -5.796   4.452  70.291  1.00  0.00    -0.014 A  
HETATM   36 BR   UNL     1      -5.758   2.645  70.745  1.00  0.00    -0.014 Br 
HETATM   37  N   UNL     1      -5.233   5.452  71.054  1.00  0.00    -0.005 NA 
HETATM   38  C   UNL     1      -5.513   6.689  70.516  1.00  0.00    -0.022 A  
HETATM   39  H   UNL     1      -4.686   5.297  71.900  1.00  0.00     0.000 HD 
HETATM   40  C   UNL     1      -5.370   8.008  70.980  1.00  0.00    -0.029 A  
HETATM   41  C   UNL     1      -5.866   9.046  70.163  1.00  0.00    -0.030 A  
HETATM   42  C   UNL     1      -6.551   8.774  68.989  1.00  0.00    -0.048 A  
HETATM   43  C   UNL     1      -6.829   7.442  68.693  1.00  0.00    -0.073 A  
HETATM   44  C   UNL     1      -6.197   6.398  69.355  1.00  0.00    -0.034 A  
HETATM   45  C   UNL     1      -8.136   6.994  68.256  1.00  0.00    -0.123 C  
HETATM   46  C   UNL     1      -9.110   7.270  69.164  1.00  0.00    -0.137 C  
ENDBRANCH  27  28
ENDBRANCH  14  24
TORSDOF 3
ENDMDL
MODEL       62
REMARK 921   NORMALIZED FREE ENERGY PREDICTED BY IDOCK:   -4.99 KCAL/MOL
REMARK 922        TOTAL FREE ENERGY PREDICTED BY IDOCK:   -5.40 KCAL/MOL
REMARK 923 INTER-LIGAND FREE ENERGY PREDICTED BY IDOCK:   -8.57 KCAL/MOL
REMARK 924 INTRA-LIGAND FREE ENERGY PREDICTED BY IDOCK:    3.17 KCAL/MOL
REMARK 927      BINDING AFFINITY PREDICTED BY RF-SCORE:    0.00 PKD
ROOT
HETATM    1  C   UNL     1      -9.366  10.455  64.740  1.00  0.00    -0.251 C  
HETATM    2  C   UNL     1      -9.886  11.279  63.564  1.00  0.00    -0.394 C  
HETATM    3  C   UNL     1      -9.231  10.585  62.332  1.00  0.00    -0.302 C  
HETATM    4  C   UNL     1      -8.195   9.610  62.890  1.00  0.00    -0.153 C  
HETATM    5  N   UNL     1      -8.090   9.947  64.286  1.00  0.00    -0.144 N  
HETATM    6  C   UNL     1      -7.405   9.084  65.105  1.00  0.00    -0.096 C  
HETATM    7  O   UNL     1      -6.342   8.576  64.761  1.00  0.00    -0.064 OA 
HETATM    8  C   UNL     1      -8.013   8.924  66.511  1.00  0.00    -0.103 C  
HETATM    9  N   UNL     1      -9.522   9.267  66.684  1.00  0.00    -0.177 N  
HETATM   10  C   UNL     1      -9.975   9.362  71.049  1.00  0.00    -0.334 C  
HETATM   11  C   UNL     1     -10.119   9.318  67.933  1.00  0.00    -0.200 C  
HETATM   12  C   UNL     1      -8.064   8.317  70.052  1.00  0.00    -0.116 C  
HETATM   13  O   UNL     1     -11.099   8.657  68.265  1.00  0.00     0.103 OA 
HETATM   14  C   UNL     1      -9.464  10.466  68.697  1.00  0.00    -0.167 C  
HETATM   15  C   UNL     1      -9.607  10.621  66.308  1.00  0.00    -0.185 C  
HETATM   16  O   UNL     1     -10.905  11.212  66.407  1.00  0.00    -0.270 OA 
HETATM   17  H   UNL     1     -11.049  11.311  67.341  1.00  0.00     0.000 HD 
HETATM   18  C   UNL     1      -8.814   9.661  70.030  1.00  0.00    -0.259 C  
HETATM   19  O   UNL     1      -8.830  11.080  67.424  1.00  0.00    -0.137 OA 
ENDROOT
BRANCH   8  20
HETATM   20  C   UNL     1      -7.608   7.607  67.077  1.00  0.00    -0.103 C  
HETATM   21  C   UNL     1      -9.439   6.219  66.081  1.00  0.00    -0.092 C  
HETATM   22  C   UNL     1      -7.941   6.334  66.349  1.00  0.00    -0.109 C  
HETATM   23  C   UNL     1      -7.477   5.226  67.299  1.00  0.00    -0.084 C  
ENDBRANCH   8  20
BRANCH  14  24
HETATM   24  N   UNL     1     -10.068  11.651  69.288  1.00  0.00    -0.409 N  
HETATM   25  H   UNL     1      -9.547  12.371  69.789  1.00  0.00     0.000 HD 
HETATM   26  O   UNL     1     -12.010  10.626  68.780  1.00  0.00    -0.366 OA 
HETATM   27  C   UNL     1     -11.436  11.680  69.087  1.00  0.00    -0.300 C  
BRANCH  27  28
HETATM   28  C   UNL     1     -12.226  12.972  69.259  1.00  0.00    -0.138 C  
HETATM   29  C   UNL     1     -12.510  13.510  70.680  1.00  0.00    -0.333 C  
HETATM   30  N   UNL     1     -12.555  15.015  70.593  1.00  0.00    -0.351 NA 
HETATM   31  C   UNL     1     -11.143  15.559  70.487  1.00  0.00    -0.345 C  
HETATM   32  C   UNL     1     -13.473  15.583  71.546  1.00  0.00    -0.494 C  
HETATM   33  C   UNL     1     -10.903  17.066  69.956  1.00  0.00     0.239 C  
HETATM   34  C   UNL     1      -9.902  17.161  68.798  1.00  0.00    -0.293 A  
HETATM   35  C   UNL     1      -9.624  18.051  67.786  1.00  0.00    -0.278 A  
HETATM   36 BR   UNL     1     -10.427  19.713  67.527  1.00  0.00    -0.587 Br 
HETATM   37  N   UNL     1      -8.719  17.486  66.914  1.00  0.00    -0.243 NA 
HETATM   38  C   UNL     1      -8.382  16.213  67.320  1.00  0.00    -0.180 A  
HETATM   39  H   UNL     1      -8.351  17.947  66.082  1.00  0.00     0.000 HD 
HETATM   40  C   UNL     1      -7.691  15.149  66.716  1.00  0.00     0.098 A  
HETATM   41  C   UNL     1      -7.618  13.930  67.423  1.00  0.00    -0.160 A  
HETATM   42  C   UNL     1      -8.282  13.757  68.629  1.00  0.00    -0.077 A  
HETATM   43  C   UNL     1      -9.109  14.787  69.069  1.00  0.00    -0.136 A  
HETATM   44  C   UNL     1      -9.053  16.058  68.514  1.00  0.00    -0.203 A  
HETATM   45  C   UNL     1     -10.450  14.555  69.568  1.00  0.00    -0.080 C  
HETATM   46  C   UNL     1     -11.248  13.951  68.648  1.00  0.00    -0.298 C  
ENDBRANCH  27  28
ENDBRANCH  14  24
TORSDOF 3
ENDMDL
MODEL       63
REMARK 921   NORMALIZED FREE ENERGY PREDICTED BY IDOCK:   -4.98 KCAL/MOL
REMARK 922        TOTAL FREE ENERGY PREDICTED BY IDOCK:   -5.39 KCAL/MOL
REMARK 923 INTER-LIGAND FREE ENERGY PREDICTED BY IDOCK:   -8.43 KCAL/MOL
REMARK 924 INTRA-LIGAND FREE ENERGY PREDICTED BY IDOCK:    3.04 KCAL/MOL
REMARK 927      BINDING AFFINITY PREDICTED BY RF-SCORE:    0.00 PKD
ROOT
HETATM    1  C   UNL     1     -10.424  14.469  67.086  1.00  0.00    -0.267 C  
HETATM    2  C   UNL     1      -9.840  14.986  65.773  1.00  0.00    -0.386 C  
HETATM    3  C   UNL     1      -9.808  16.529  65.986  1.00  0.00    -0.348 C  
HETATM    4  C   UNL     1     -10.605  16.802  67.261  1.00  0.00    -0.275 C  
HETATM    5  N   UNL     1     -11.255  15.553  67.562  1.00  0.00    -0.306 N  
HETATM    6  C   UNL     1     -11.858  15.421  68.787  1.00  0.00    -0.318 C  
HETATM    7  O   UNL     1     -12.536  16.323  69.273  1.00  0.00     0.085 OA 
HETATM    8  C   UNL     1     -11.719  14.023  69.418  1.00  0.00    -0.315 C  
HETATM    9  N   UNL     1     -10.536  13.132  68.934  1.00  0.00    -0.182 N  
HETATM   10  C   UNL     1     -11.571   9.204  70.598  1.00  0.00    -0.282 C  
HETATM   11  C   UNL     1     -10.423  11.804  69.312  1.00  0.00     0.060 C  
HETATM   12  C   UNL     1     -12.625  11.188  71.431  1.00  0.00    -0.479 C  
HETATM   13  O   UNL     1      -9.447  11.322  69.880  1.00  0.00     0.793 OA 
HETATM   14  C   UNL     1     -11.616  11.064  68.714  1.00  0.00    -0.318 C  
HETATM   15  C   UNL     1     -10.767  12.983  67.553  1.00  0.00    -0.238 C  
HETATM   16  O   UNL     1      -9.827  12.165  66.852  1.00  0.00    -0.198 OA 
HETATM   17  H   UNL     1     -10.031  11.280  67.131  1.00  0.00     0.000 HD 
HETATM   18  C   UNL     1     -12.373  10.462  70.097  1.00  0.00    -0.281 C  
HETATM   19  O   UNL     1     -11.965  12.215  67.738  1.00  0.00    -0.506 OA 
ENDROOT
BRANCH   8  20
HETATM   20  C   UNL     1     -11.848  14.133  70.897  1.00  0.00    -0.294 C  
HETATM   21  C   UNL     1     -14.243  14.857  70.989  1.00  0.00    -0.211 C  
HETATM   22  C   UNL     1     -13.181  13.923  71.561  1.00  0.00    -0.425 C  
HETATM   23  C   UNL     1     -12.920  14.242  73.036  1.00  0.00    -0.512 C  
ENDBRANCH   8  20
BRANCH  14  24
HETATM   24  N   UNL     1     -11.643   9.929  67.802  1.00  0.00    -0.128 N  
HETATM   25  H   UNL     1     -12.496   9.503  67.441  1.00  0.00     0.000 HD 
HETATM   26  O   UNL     1      -9.429   9.846  68.218  1.00  0.00    -0.138 OA 
HETATM   27  C   UNL     1     -10.366   9.500  67.486  1.00  0.00    -0.248 C  
BRANCH  27  28
HETATM   28  C   UNL     1     -10.117   8.606  66.277  1.00  0.00    -0.215 C  
HETATM   29  C   UNL     1      -8.816   8.772  65.458  1.00  0.00    -0.188 C  
HETATM   30  N   UNL     1      -8.450   7.416  64.911  1.00  0.00    -0.012 NA 
HETATM   31  C   UNL     1      -7.847   6.569  66.017  1.00  0.00    -0.103 C  
HETATM   32  C   UNL     1      -7.788   7.508  63.636  1.00  0.00    -0.112 C  
HETATM   33  C   UNL     1      -7.761   4.966  65.841  1.00  0.00    -0.091 C  
HETATM   34  C   UNL     1      -8.370   4.183  67.011  1.00  0.00    -0.100 A  
HETATM   35  C   UNL     1      -8.879   2.921  67.215  1.00  0.00    -0.141 A  
HETATM   36 BR   UNL     1      -8.901   1.528  65.976  1.00  0.00    -0.101 Br 
HETATM   37  N   UNL     1      -9.475   2.860  68.455  1.00  0.00    -0.179 NA 
HETATM   38  C   UNL     1      -9.381   4.075  69.099  1.00  0.00    -0.167 A  
HETATM   39  H   UNL     1      -9.925   2.031  68.843  1.00  0.00     0.000 HD 
HETATM   40  C   UNL     1      -9.975   4.614  70.253  1.00  0.00    -0.309 A  
HETATM   41  C   UNL     1      -9.701   5.963  70.562  1.00  0.00    -0.217 A  
HETATM   42  C   UNL     1      -8.948   6.757  69.709  1.00  0.00    -0.144 A  
HETATM   43  C   UNL     1      -8.559   6.213  68.489  1.00  0.00    -0.113 A  
HETATM   44  C   UNL     1      -8.636   4.850  68.237  1.00  0.00    -0.105 A  
HETATM   45  C   UNL     1      -8.697   6.927  67.234  1.00  0.00    -0.119 C  
HETATM   46  C   UNL     1      -9.986   7.269  66.971  1.00  0.00    -0.293 C  
ENDBRANCH  27  28
ENDBRANCH  14  24
TORSDOF 3
ENDMDL
MODEL       64
REMARK 921   NORMALIZED FREE ENERGY PREDICTED BY IDOCK:   -4.96 KCAL/MOL
REMARK 922        TOTAL FREE ENERGY PREDICTED BY IDOCK:   -5.37 KCAL/MOL
REMARK 923 INTER-LIGAND FREE ENERGY PREDICTED BY IDOCK:   -5.72 KCAL/MOL
REMARK 924 INTRA-LIGAND FREE ENERGY PREDICTED BY IDOCK:    0.35 KCAL/MOL
REMARK 927      BINDING AFFINITY PREDICTED BY RF-SCORE:    0.00 PKD
ROOT
HETATM    1  C   UNL     1     -11.121  11.783  68.742  1.00  0.00    -0.241 C  
HETATM    2  C   UNL     1     -11.988  12.259  69.904  1.00  0.00    -0.377 C  
HETATM    3  C   UNL     1     -12.317  13.732  69.517  1.00  0.00    -0.258 C  
HETATM    4  C   UNL     1     -11.418  14.074  68.330  1.00  0.00    -0.304 C  
HETATM    5  N   UNL     1     -10.479  12.985  68.256  1.00  0.00    -0.244 N  
HETATM    6  C   UNL     1      -9.687  12.894  67.139  1.00  0.00    -0.221 C  
HETATM    7  O   UNL     1      -9.154  13.883  66.644  1.00  0.00    -0.247 OA 
HETATM    8  C   UNL     1      -9.430  11.453  66.657  1.00  0.00    -0.189 C  
HETATM    9  N   UNL     1     -10.454  10.360  67.084  1.00  0.00    -0.242 N  
HETATM   10  C   UNL     1      -8.371   6.647  66.015  1.00  0.00    -0.134 C  
HETATM   11  C   UNL     1     -10.224   9.015  66.847  1.00  0.00    -0.269 C  
HETATM   12  C   UNL     1      -7.654   8.744  65.105  1.00  0.00    -0.096 C  
HETATM   13  O   UNL     1     -10.980   8.279  66.219  1.00  0.00     0.780 OA 
HETATM   14  C   UNL     1      -9.002   8.616  67.670  1.00  0.00    -0.135 C  
HETATM   15  C   UNL     1     -10.404  10.380  68.492  1.00  0.00    -0.176 C  
HETATM   16  O   UNL     1     -11.240   9.430  69.156  1.00  0.00    -0.437 OA 
HETATM   17  H   UNL     1     -10.813   8.595  69.007  1.00  0.00     0.000 HD 
HETATM   18  C   UNL     1      -7.939   8.090  66.470  1.00  0.00    -0.102 C  
HETATM   19  O   UNL     1      -9.055   9.892  68.546  1.00  0.00    -0.122 OA 
ENDROOT
BRANCH   8  20
HETATM   20  C   UNL     1      -9.111  11.469  65.202  1.00  0.00     0.008 C  
HETATM   21  C   UNL     1     -11.455  11.607  64.331  1.00  0.00    -0.302 C  
HETATM   22  C   UNL     1     -10.034  12.153  64.231  1.00  0.00    -0.262 C  
HETATM   23  C   UNL     1      -9.431  11.840  62.858  1.00  0.00    -0.036 C  
ENDBRANCH   8  20
BRANCH  14  24
HETATM   24  N   UNL     1      -8.869   7.595  68.699  1.00  0.00    -0.128 N  
HETATM   25  H   UNL     1      -9.611   6.945  68.962  1.00  0.00     0.000 HD 
HETATM   26  O   UNL     1      -6.916   8.630  69.140  1.00  0.00    -0.060 OA 
HETATM   27  C   UNL     1      -7.612   7.615  69.277  1.00  0.00    -0.096 C  
BRANCH  27  28
HETATM   28  C   UNL     1      -7.102   6.426  70.081  1.00  0.00    -0.074 C  
HETATM   29  C   UNL     1      -6.107   6.659  71.242  1.00  0.00    -0.036 C  
HETATM   30  N   UNL     1      -6.368   5.597  72.281  1.00  0.00    -0.046 NA 
HETATM   31  C   UNL     1      -7.622   5.946  73.060  1.00  0.00    -0.095 C  
HETATM   32  C   UNL     1      -5.169   5.223  72.983  1.00  0.00    -0.017 C  
HETATM   33  C   UNL     1      -8.374   4.806  73.922  1.00  0.00    -0.104 C  
HETATM   34  C   UNL     1      -9.870   4.680  73.610  1.00  0.00    -0.168 A  
HETATM   35  C   UNL     1     -10.843   3.716  73.742  1.00  0.00    -0.234 A  
HETATM   36 BR   UNL     1     -10.641   2.050  74.553  1.00  0.00    -0.137 Br 
HETATM   37  N   UNL     1     -11.984   4.122  73.086  1.00  0.00     0.144 NA 
HETATM   38  C   UNL     1     -11.796   5.356  72.502  1.00  0.00    -0.038 A  
HETATM   39  H   UNL     1     -12.849   3.584  73.039  1.00  0.00     0.000 HD 
HETATM   40  C   UNL     1     -12.528   6.117  71.575  1.00  0.00     0.257 A  
HETATM   41  C   UNL     1     -11.960   7.329  71.128  1.00  0.00    -0.363 A  
HETATM   42  C   UNL     1     -10.686   7.713  71.518  1.00  0.00    -0.249 A  
HETATM   43  C   UNL     1      -9.942   6.816  72.279  1.00  0.00    -0.173 A  
HETATM   44  C   UNL     1     -10.526   5.719  72.896  1.00  0.00    -0.244 A  
HETATM   45  C   UNL     1      -8.556   6.504  71.988  1.00  0.00    -0.125 C  
HETATM   46  C   UNL     1      -8.392   5.990  70.740  1.00  0.00    -0.126 C  
ENDBRANCH  27  28
ENDBRANCH  14  24
TORSDOF 3
ENDMDL
MODEL       65
REMARK 921   NORMALIZED FREE ENERGY PREDICTED BY IDOCK:   -4.93 KCAL/MOL
REMARK 922        TOTAL FREE ENERGY PREDICTED BY IDOCK:   -5.33 KCAL/MOL
REMARK 923 INTER-LIGAND FREE ENERGY PREDICTED BY IDOCK:   -5.83 KCAL/MOL
REMARK 924 INTRA-LIGAND FREE ENERGY PREDICTED BY IDOCK:    0.51 KCAL/MOL
REMARK 927      BINDING AFFINITY PREDICTED BY RF-SCORE:    0.00 PKD
ROOT
HETATM    1  C   UNL     1      -7.524  14.555  68.758  1.00  0.00    -0.132 C  
HETATM    2  C   UNL     1      -6.659  14.612  70.015  1.00  0.00    -0.161 C  
HETATM    3  C   UNL     1      -6.277  16.120  70.109  1.00  0.00    -0.051 C  
HETATM    4  C   UNL     1      -6.710  16.755  68.788  1.00  0.00    -0.185 C  
HETATM    5  N   UNL     1      -7.038  15.642  67.936  1.00  0.00    -0.125 N  
HETATM    6  C   UNL     1      -7.686  15.906  66.756  1.00  0.00    -0.210 C  
HETATM    7  O   UNL     1      -7.358  16.845  66.036  1.00  0.00    -0.212 OA 
HETATM    8  C   UNL     1      -8.748  14.860  66.365  1.00  0.00    -0.082 C  
HETATM    9  N   UNL     1      -9.349  13.986  67.506  1.00  0.00    -0.202 N  
HETATM   10  C   UNL     1     -11.476  10.858  65.280  1.00  0.00     0.568 C  
HETATM   11  C   UNL     1     -10.179  12.910  67.239  1.00  0.00    -0.234 C  
HETATM   12  C   UNL     1     -10.811  12.884  64.187  1.00  0.00    -0.445 C  
HETATM   13  O   UNL     1     -11.314  12.778  67.688  1.00  0.00    -0.273 OA 
HETATM   14  C   UNL     1      -9.348  11.879  66.481  1.00  0.00    -0.216 C  
HETATM   15  C   UNL     1      -8.232  13.317  68.044  1.00  0.00    -0.162 C  
HETATM   16  O   UNL     1      -8.510  12.404  69.108  1.00  0.00    -0.257 OA 
HETATM   17  H   UNL     1      -8.932  11.666  68.682  1.00  0.00     0.000 HD 
HETATM   18  C   UNL     1     -10.203  11.749  65.032  1.00  0.00    -0.314 C  
HETATM   19  O   UNL     1      -8.001  12.547  66.855  1.00  0.00    -0.122 OA 
ENDROOT
BRANCH   8  20
HETATM   20  C   UNL     1      -9.758  15.492  65.472  1.00  0.00    -0.307 C  
HETATM   21  C   UNL     1     -10.899  16.918  67.185  1.00  0.00    -0.088 C  
HETATM   22  C   UNL     1     -10.297  16.861  65.784  1.00  0.00    -0.298 C  
HETATM   23  C   UNL     1     -11.377  17.090  64.723  1.00  0.00     0.477 C  
ENDBRANCH   8  20
BRANCH  14  24
HETATM   24  N   UNL     1      -9.056  10.493  66.818  1.00  0.00    -0.150 N  
HETATM   25  H   UNL     1      -9.618   9.926  67.454  1.00  0.00     0.000 HD 
HETATM   26  O   UNL     1      -7.136  10.872  65.699  1.00  0.00    -0.067 OA 
HETATM   27  C   UNL     1      -7.923  10.038  66.167  1.00  0.00    -0.113 C  
BRANCH  27  28
HETATM   28  C   UNL     1      -7.636   8.547  66.044  1.00  0.00    -0.089 C  
HETATM   29  C   UNL     1      -6.184   8.034  66.183  1.00  0.00    -0.045 C  
HETATM   30  N   UNL     1      -6.247   6.655  66.789  1.00  0.00    -0.039 NA 
HETATM   31  C   UNL     1      -6.529   6.766  68.276  1.00  0.00    -0.053 C  
HETATM   32  C   UNL     1      -5.178   5.811  66.323  1.00  0.00    -0.009 C  
HETATM   33  C   UNL     1      -7.069   5.479  69.088  1.00  0.00    -0.064 C  
HETATM   34  C   UNL     1      -8.345   5.748  69.894  1.00  0.00    -0.119 A  
HETATM   35  C   UNL     1      -9.374   5.000  70.419  1.00  0.00    -0.158 A  
HETATM   36 BR   UNL     1      -9.509   3.141  70.397  1.00  0.00    -0.196 Br 
HETATM   37  N   UNL     1     -10.363   5.840  70.883  1.00  0.00    -0.225 NA 
HETATM   38  C   UNL     1     -10.017   7.158  70.675  1.00  0.00    -0.190 A  
HETATM   39  H   UNL     1     -11.230   5.530  71.321  1.00  0.00     0.000 HD 
HETATM   40  C   UNL     1     -10.717   8.373  70.761  1.00  0.00    -0.244 A  
HETATM   41  C   UNL     1     -10.040   9.548  70.373  1.00  0.00    -0.329 A  
HETATM   42  C   UNL     1      -8.760   9.498  69.839  1.00  0.00    -0.224 A  
HETATM   43  C   UNL     1      -8.206   8.244  69.599  1.00  0.00    -0.118 A  
HETATM   44  C   UNL     1      -8.749   7.087  70.141  1.00  0.00    -0.141 A  
HETATM   45  C   UNL     1      -7.540   7.908  68.355  1.00  0.00    -0.108 C  
HETATM   46  C   UNL     1      -8.357   8.046  67.276  1.00  0.00    -0.122 C  
ENDBRANCH  27  28
ENDBRANCH  14  24
TORSDOF 3
ENDMDL
MODEL       66
REMARK 921   NORMALIZED FREE ENERGY PREDICTED BY IDOCK:   -4.86 KCAL/MOL
REMARK 922        TOTAL FREE ENERGY PREDICTED BY IDOCK:   -5.24 KCAL/MOL
REMARK 923 INTER-LIGAND FREE ENERGY PREDICTED BY IDOCK:   -7.12 KCAL/MOL
REMARK 924 INTRA-LIGAND FREE ENERGY PREDICTED BY IDOCK:    1.87 KCAL/MOL
REMARK 927      BINDING AFFINITY PREDICTED BY RF-SCORE:    0.00 PKD
ROOT
HETATM    1  C   UNL     1      -6.665   8.301  64.453  1.00  0.00    -0.066 C  
HETATM    2  C   UNL     1      -6.097   9.292  63.440  1.00  0.00    -0.090 C  
HETATM    3  C   UNL     1      -5.494   8.365  62.342  1.00  0.00    -0.071 C  
HETATM    4  C   UNL     1      -5.517   6.949  62.917  1.00  0.00    -0.032 C  
HETATM    5  N   UNL     1      -5.836   7.124  64.311  1.00  0.00    -0.036 N  
HETATM    6  C   UNL     1      -6.158   6.008  65.041  1.00  0.00    -0.026 C  
HETATM    7  O   UNL     1      -5.528   4.961  64.930  1.00  0.00    -0.013 OA 
HETATM    8  C   UNL     1      -7.271   6.229  66.083  1.00  0.00    -0.075 C  
HETATM    9  N   UNL     1      -8.244   7.424  65.852  1.00  0.00    -0.127 N  
HETATM   10  C   UNL     1     -10.335   7.697  69.702  1.00  0.00    -0.213 C  
HETATM   11  C   UNL     1      -9.166   7.808  66.811  1.00  0.00    -0.163 C  
HETATM   12  C   UNL     1      -9.116   5.717  69.123  1.00  0.00    -0.126 C  
HETATM   13  O   UNL     1     -10.377   7.881  66.623  1.00  0.00    -0.291 OA 
HETATM   14  C   UNL     1      -8.377   8.297  68.023  1.00  0.00    -0.129 C  
HETATM   15  C   UNL     1      -7.400   8.551  65.847  1.00  0.00    -0.077 C  
HETATM   16  O   UNL     1      -8.052   9.813  65.683  1.00  0.00    -0.114 OA 
HETATM   17  H   UNL     1      -8.490   9.962  66.513  1.00  0.00     0.000 HD 
HETATM   18  C   UNL     1      -8.906   7.238  69.226  1.00  0.00    -0.136 C  
HETATM   19  O   UNL     1      -7.050   8.415  67.232  1.00  0.00    -0.077 OA 
ENDROOT
BRANCH   8  20
HETATM   20  C   UNL     1      -7.941   4.931  66.372  1.00  0.00    -0.107 C  
HETATM   21  C   UNL     1      -9.396   4.826  64.337  1.00  0.00     0.007 C  
HETATM   22  C   UNL     1      -8.436   4.065  65.247  1.00  0.00    -0.113 C  
HETATM   23  C   UNL     1      -9.159   2.912  65.950  1.00  0.00    -0.132 C  
ENDBRANCH   8  20
BRANCH  14  24
HETATM   24  N   UNL     1      -8.404   9.592  68.687  1.00  0.00    -0.112 N  
HETATM   25  H   UNL     1      -7.834   9.833  69.498  1.00  0.00     0.000 HD 
HETATM   26  O   UNL     1     -10.170   9.980  67.340  1.00  0.00    -0.192 OA 
HETATM   27  C   UNL     1      -9.299  10.456  68.081  1.00  0.00    -0.145 C  
BRANCH  27  28
HETATM   28  C   UNL     1      -9.229  11.958  68.333  1.00  0.00    -0.173 C  
HETATM   29  C   UNL     1      -9.714  12.939  67.241  1.00  0.00    -0.220 C  
HETATM   30  N   UNL     1     -10.266  14.156  67.939  1.00  0.00    -0.232 NA 
HETATM   31  C   UNL     1     -11.639  13.839  68.502  1.00  0.00    -0.338 C  
HETATM   32  C   UNL     1     -10.066  15.357  67.170  1.00  0.00    -0.245 C  
HETATM   33  C   UNL     1     -12.274  14.786  69.646  1.00  0.00    -0.310 C  
HETATM   34  C   UNL     1     -12.745  14.022  70.889  1.00  0.00    -0.420 A  
HETATM   35  C   UNL     1     -12.989  14.315  72.212  1.00  0.00    -0.376 A  
HETATM   36 BR   UNL     1     -12.907  16.002  73.001  1.00  0.00    -0.575 Br 
HETATM   37  N   UNL     1     -13.207  13.147  72.909  1.00  0.00    -0.405 NA 
HETATM   38  C   UNL     1     -13.109  12.057  72.071  1.00  0.00    -0.351 A  
HETATM   39  H   UNL     1     -13.413  13.096  73.906  1.00  0.00     0.000 HD 
HETATM   40  C   UNL     1     -13.038  10.670  72.284  1.00  0.00    -0.200 A  
HETATM   41  C   UNL     1     -12.846   9.844  71.156  1.00  0.00    -0.461 A  
HETATM   42  C   UNL     1     -12.643  10.384  69.895  1.00  0.00    -0.059 A  
HETATM   43  C   UNL     1     -12.529  11.767  69.791  1.00  0.00    -0.051 A  
HETATM   44  C   UNL     1     -12.903  12.612  70.827  1.00  0.00    -0.102 A  
HETATM   45  C   UNL     1     -11.483  12.410  69.020  1.00  0.00    -0.352 C  
HETATM   46  C   UNL     1     -10.238  12.075  69.454  1.00  0.00     0.408 C  
ENDBRANCH  27  28
ENDBRANCH  14  24
TORSDOF 3
ENDMDL
MODEL       67
REMARK 921   NORMALIZED FREE ENERGY PREDICTED BY IDOCK:   -4.85 KCAL/MOL
REMARK 922        TOTAL FREE ENERGY PREDICTED BY IDOCK:   -5.23 KCAL/MOL
REMARK 923 INTER-LIGAND FREE ENERGY PREDICTED BY IDOCK:   -4.87 KCAL/MOL
REMARK 924 INTRA-LIGAND FREE ENERGY PREDICTED BY IDOCK:   -0.37 KCAL/MOL
REMARK 927      BINDING AFFINITY PREDICTED BY RF-SCORE:    0.00 PKD
ROOT
HETATM    1  C   UNL     1      -7.462   5.149  67.516  1.00  0.00    -0.083 C  
HETATM    2  C   UNL     1      -6.955   4.157  66.473  1.00  0.00    -0.059 C  
HETATM    3  C   UNL     1      -6.140   3.138  67.323  1.00  0.00    -0.028 C  
HETATM    4  C   UNL     1      -6.012   3.749  68.718  1.00  0.00    -0.024 C  
HETATM    5  N   UNL     1      -6.468   5.107  68.566  1.00  0.00    -0.039 N  
HETATM    6  C   UNL     1      -6.691   5.840  69.704  1.00  0.00    -0.055 C  
HETATM    7  O   UNL     1      -5.913   5.810  70.654  1.00  0.00    -0.026 OA 
HETATM    8  C   UNL     1      -7.906   6.783  69.625  1.00  0.00    -0.115 C  
HETATM    9  N   UNL     1      -9.014   6.441  68.585  1.00  0.00    -0.126 N  
HETATM   10  C   UNL     1     -11.436  10.102  68.546  1.00  0.00    -0.098 C  
HETATM   11  C   UNL     1     -10.058   7.312  68.319  1.00  0.00    -0.170 C  
HETATM   12  C   UNL     1      -9.909   9.679  70.343  1.00  0.00    -0.315 C  
HETATM   13  O   UNL     1     -11.247   7.026  68.421  1.00  0.00    -0.052 OA 
HETATM   14  C   UNL     1      -9.448   8.568  67.702  1.00  0.00    -0.145 C  
HETATM   15  C   UNL     1      -8.339   6.471  67.349  1.00  0.00    -0.120 C  
HETATM   16  O   UNL     1      -9.145   6.220  66.196  1.00  0.00    -0.155 OA 
HETATM   17  H   UNL     1      -9.667   7.008  66.096  1.00  0.00     0.000 HD 
HETATM   18  C   UNL     1      -9.923   9.755  68.805  1.00  0.00    -0.179 C  
HETATM   19  O   UNL     1      -8.090   7.883  67.411  1.00  0.00    -0.119 OA 
ENDROOT
BRANCH   8  20
HETATM   20  C   UNL     1      -8.410   7.055  71.000  1.00  0.00    -0.125 C  
HETATM   21  C   UNL     1      -9.811   4.997  71.273  1.00  0.00    -0.246 C  
HETATM   22  C   UNL     1      -8.775   5.916  71.913  1.00  0.00    -0.138 C  
HETATM   23  C   UNL     1      -9.356   6.602  73.154  1.00  0.00    -0.147 C  
ENDBRANCH   8  20
BRANCH  14  24
HETATM   24  N   UNL     1      -9.711   9.191  66.413  1.00  0.00    -0.240 N  
HETATM   25  H   UNL     1     -10.287   8.774  65.681  1.00  0.00     0.000 HD 
HETATM   26  O   UNL     1      -8.154  10.678  67.080  1.00  0.00    -0.116 OA 
HETATM   27  C   UNL     1      -9.083  10.419  66.303  1.00  0.00    -0.158 C  
BRANCH  27  28
HETATM   28  C   UNL     1      -9.508  11.423  65.238  1.00  0.00    -0.233 C  
HETATM   29  C   UNL     1     -10.978  11.452  64.759  1.00  0.00    -0.234 C  
HETATM   30  N   UNL     1     -11.303  12.877  64.387  1.00  0.00    -0.339 NA 
HETATM   31  C   UNL     1     -11.520  13.694  65.647  1.00  0.00    -0.308 C  
HETATM   32  C   UNL     1     -12.258  12.949  63.312  1.00  0.00    -0.397 C  
HETATM   33  C   UNL     1     -11.457  15.306  65.577  1.00  0.00    -0.152 C  
HETATM   34  C   UNL     1     -10.498  15.932  66.597  1.00  0.00    -0.306 A  
HETATM   35  C   UNL     1      -9.810  17.117  66.729  1.00  0.00    -0.285 A  
HETATM   36 BR   UNL     1      -9.924  18.590  65.593  1.00  0.00     0.481 Br 
HETATM   37  N   UNL     1      -8.931  17.022  67.786  1.00  0.00    -0.221 NA 
HETATM   38  C   UNL     1      -9.009  15.778  68.373  1.00  0.00    -0.187 A  
HETATM   39  H   UNL     1      -8.308  17.770  68.090  1.00  0.00     0.000 HD 
HETATM   40  C   UNL     1      -8.223  15.095  69.316  1.00  0.00    -0.216 A  
HETATM   41  C   UNL     1      -8.571  13.761  69.617  1.00  0.00     1.236 A  
HETATM   42  C   UNL     1      -9.594  13.115  68.939  1.00  0.00     0.202 A  
HETATM   43  C   UNL     1     -10.198  13.787  67.880  1.00  0.00    -0.245 A  
HETATM   44  C   UNL     1     -10.025  15.150  67.685  1.00  0.00    -0.229 A  
HETATM   45  C   UNL     1     -10.450  13.160  66.598  1.00  0.00    -0.280 C  
HETATM   46  C   UNL     1      -9.311  12.710  66.008  1.00  0.00    -0.074 C  
ENDBRANCH  27  28
ENDBRANCH  14  24
TORSDOF 3
ENDMDL
MODEL       68
REMARK 921   NORMALIZED FREE ENERGY PREDICTED BY IDOCK:   -4.82 KCAL/MOL
REMARK 922        TOTAL FREE ENERGY PREDICTED BY IDOCK:   -5.20 KCAL/MOL
REMARK 923 INTER-LIGAND FREE ENERGY PREDICTED BY IDOCK:   -4.54 KCAL/MOL
REMARK 924 INTRA-LIGAND FREE ENERGY PREDICTED BY IDOCK:   -0.66 KCAL/MOL
REMARK 927      BINDING AFFINITY PREDICTED BY RF-SCORE:    0.00 PKD
ROOT
HETATM    1  C   UNL     1      -8.583   4.537  70.147  1.00  0.00    -0.077 C  
HETATM    2  C   UNL     1      -8.973   4.088  71.553  1.00  0.00    -0.161 C  
HETATM    3  C   UNL     1      -9.354   2.591  71.351  1.00  0.00    -0.202 C  
HETATM    4  C   UNL     1      -9.415   2.364  69.841  1.00  0.00    -0.057 C  
HETATM    5  N   UNL     1      -9.355   3.685  69.270  1.00  0.00    -0.164 N  
HETATM    6  C   UNL     1      -9.155   3.790  67.917  1.00  0.00    -0.152 C  
HETATM    7  O   UNL     1      -9.740   3.063  67.119  1.00  0.00    -0.058 OA 
HETATM    8  C   UNL     1      -8.252   4.966  67.497  1.00  0.00    -0.105 C  
HETATM    9  N   UNL     1      -7.270   5.534  68.566  1.00  0.00    -0.073 N  
HETATM   10  C   UNL     1      -5.914   9.273  66.709  1.00  0.00    -0.060 C  
HETATM   11  C   UNL     1      -6.542   6.691  68.344  1.00  0.00    -0.059 C  
HETATM   12  C   UNL     1      -6.979   7.582  65.388  1.00  0.00    -0.059 C  
HETATM   13  O   UNL     1      -5.318   6.766  68.405  1.00  0.00    -0.014 OA 
HETATM   14  C   UNL     1      -7.544   7.836  68.222  1.00  0.00    -0.109 C  
HETATM   15  C   UNL     1      -8.115   5.963  69.608  1.00  0.00    -0.106 C  
HETATM   16  O   UNL     1      -7.462   6.569  70.725  1.00  0.00    -0.084 OA 
HETATM   17  H   UNL     1      -7.184   7.419  70.404  1.00  0.00     0.000 HD 
HETATM   18  C   UNL     1      -7.226   8.405  66.666  1.00  0.00    -0.077 C  
HETATM   19  O   UNL     1      -8.708   7.010  68.825  1.00  0.00    -0.127 OA 
ENDROOT
BRANCH   8  20
HETATM   20  C   UNL     1      -7.626   4.663  66.180  1.00  0.00    -0.090 C  
HETATM   21  C   UNL     1      -5.646   3.381  67.019  1.00  0.00    -0.022 C  
HETATM   22  C   UNL     1      -6.786   3.429  66.006  1.00  0.00    -0.041 C  
HETATM   23  C   UNL     1      -6.236   3.547  64.581  1.00  0.00    -0.023 C  
ENDBRANCH   8  20
BRANCH  14  24
HETATM   24  N   UNL     1      -7.656   9.059  69.005  1.00  0.00    -0.077 N  
HETATM   25  H   UNL     1      -6.974   9.358  69.703  1.00  0.00     0.000 HD 
HETATM   26  O   UNL     1      -9.715   9.173  68.094  1.00  0.00    -0.149 OA 
HETATM   27  C   UNL     1      -8.802   9.765  68.684  1.00  0.00    -0.126 C  
BRANCH  27  28
HETATM   28  C   UNL     1      -8.948  11.233  69.066  1.00  0.00     0.024 C  
HETATM   29  C   UNL     1      -7.684  12.087  69.318  1.00  0.00     0.319 C  
HETATM   30  N   UNL     1      -8.004  13.501  68.904  1.00  0.00     0.010 NA 
HETATM   31  C   UNL     1      -7.978  13.605  67.391  1.00  0.00    -0.166 C  
HETATM   32  C   UNL     1      -7.297  14.469  69.702  1.00  0.00    -0.011 C  
HETATM   33  C   UNL     1      -8.688  14.859  66.662  1.00  0.00    -0.262 C  
HETATM   34  C   UNL     1      -9.684  14.454  65.568  1.00  0.00    -0.214 A  
HETATM   35  C   UNL     1     -10.765  15.026  64.937  1.00  0.00    -0.397 A  
HETATM   36 BR   UNL     1     -11.391  16.764  65.179  1.00  0.00     0.500 Br 
HETATM   37  N   UNL     1     -11.396  14.079  64.159  1.00  0.00    -0.605 NA 
HETATM   38  C   UNL     1     -10.756  12.863  64.258  1.00  0.00    -0.406 A  
HETATM   39  H   UNL     1     -12.223  14.255  63.589  1.00  0.00     0.000 HD 
HETATM   40  C   UNL     1     -11.080  11.556  63.859  1.00  0.00    -0.458 A  
HETATM   41  C   UNL     1     -10.194  10.520  64.223  1.00  0.00    -0.314 A  
HETATM   42  C   UNL     1      -9.090  10.768  65.025  1.00  0.00    -0.226 A  
HETATM   43  C   UNL     1      -8.940  12.049  65.547  1.00  0.00     0.239 A  
HETATM   44  C   UNL     1      -9.667  13.127  65.061  1.00  0.00     0.062 A  
HETATM   45  C   UNL     1      -8.619  12.294  66.940  1.00  0.00    -0.182 C  
HETATM   46  C   UNL     1      -9.546  11.771  67.786  1.00  0.00    -0.184 C  
ENDBRANCH  27  28
ENDBRANCH  14  24
TORSDOF 3
ENDMDL
MODEL       69
REMARK 921   NORMALIZED FREE ENERGY PREDICTED BY IDOCK:   -4.82 KCAL/MOL
REMARK 922        TOTAL FREE ENERGY PREDICTED BY IDOCK:   -5.19 KCAL/MOL
REMARK 923 INTER-LIGAND FREE ENERGY PREDICTED BY IDOCK:   -7.20 KCAL/MOL
REMARK 924 INTRA-LIGAND FREE ENERGY PREDICTED BY IDOCK:    2.01 KCAL/MOL
REMARK 927      BINDING AFFINITY PREDICTED BY RF-SCORE:    0.00 PKD
ROOT
HETATM    1  C   UNL     1      -9.490   3.907  68.063  1.00  0.00    -0.165 C  
HETATM    2  C   UNL     1      -9.326   3.545  66.589  1.00  0.00    -0.194 C  
HETATM    3  C   UNL     1      -9.404   1.989  66.597  1.00  0.00     0.084 C  
HETATM    4  C   UNL     1      -9.336   1.565  68.064  1.00  0.00    -0.169 C  
HETATM    5  N   UNL     1      -8.966   2.762  68.775  1.00  0.00    -0.114 N  
HETATM    6  C   UNL     1      -9.056   2.749  70.144  1.00  0.00    -0.118 C  
HETATM    7  O   UNL     1      -8.677   1.787  70.806  1.00  0.00    -0.050 OA 
HETATM    8  C   UNL     1      -9.540   4.074  70.762  1.00  0.00    -0.193 C  
HETATM    9  N   UNL     1     -10.358   5.036  69.849  1.00  0.00    -0.273 N  
HETATM   10  C   UNL     1     -10.428   8.741  72.201  1.00  0.00    -0.384 C  
HETATM   11  C   UNL     1     -10.691   6.317  70.254  1.00  0.00    -0.280 C  
HETATM   12  C   UNL     1      -9.856   6.658  73.238  1.00  0.00    -0.199 C  
HETATM   13  O   UNL     1     -11.837   6.755  70.307  1.00  0.00    -0.364 OA 
HETATM   14  C   UNL     1      -9.386   7.093  70.409  1.00  0.00    -0.159 C  
HETATM   15  C   UNL     1      -9.478   5.327  68.789  1.00  0.00    -0.128 C  
HETATM   16  O   UNL     1      -9.974   6.234  67.802  1.00  0.00    -0.117 OA 
HETATM   17  H   UNL     1      -9.967   7.080  68.235  1.00  0.00     0.000 HD 
HETATM   18  C   UNL     1      -9.438   7.528  72.039  1.00  0.00    -0.174 C  
HETATM   19  O   UNL     1      -8.558   6.046  69.623  1.00  0.00    -0.123 OA 
ENDROOT
BRANCH   8  20
HETATM   20  C   UNL     1     -10.159   3.803  72.089  1.00  0.00    -0.220 C  
HETATM   21  C   UNL     1      -8.051   3.466  73.398  1.00  0.00    -0.074 C  
HETATM   22  C   UNL     1      -9.420   4.140  73.354  1.00  0.00    -0.127 C  
HETATM   23  C   UNL     1     -10.321   3.603  74.470  1.00  0.00    -0.253 C  
ENDBRANCH   8  20
BRANCH  14  24
HETATM   24  N   UNL     1      -8.951   8.318  69.753  1.00  0.00    -0.145 N  
HETATM   25  H   UNL     1      -9.584   9.005  69.343  1.00  0.00     0.000 HD 
HETATM   26  O   UNL     1      -6.894   7.421  69.964  1.00  0.00    -0.052 OA 
HETATM   27  C   UNL     1      -7.573   8.436  69.757  1.00  0.00    -0.087 C  
BRANCH  27  28
HETATM   28  C   UNL     1      -6.901   9.778  69.491  1.00  0.00    -0.060 C  
HETATM   29  C   UNL     1      -6.198  10.026  68.136  1.00  0.00    -0.053 C  
HETATM   30  N   UNL     1      -6.332  11.494  67.820  1.00  0.00    -0.059 NA 
HETATM   31  C   UNL     1      -7.740  11.783  67.335  1.00  0.00    -0.151 C  
HETATM   32  C   UNL     1      -5.202  11.991  67.079  1.00  0.00    -0.079 C  
HETATM   33  C   UNL     1      -8.292  13.301  67.335  1.00  0.00    -0.193 C  
HETATM   34  C   UNL     1      -9.634  13.470  68.057  1.00  0.00    -0.221 A  
HETATM   35  C   UNL     1     -10.328  14.498  68.652  1.00  0.00    -0.242 A  
HETATM   36 BR   UNL     1      -9.828  16.294  68.684  1.00  0.00    -0.240 Br 
HETATM   37  N   UNL     1     -11.419  13.989  69.323  1.00  0.00    -0.278 NA 
HETATM   38  C   UNL     1     -11.471  12.618  69.195  1.00  0.00    -0.304 A  
HETATM   39  H   UNL     1     -12.094  14.550  69.843  1.00  0.00     0.000 HD 
HETATM   40  C   UNL     1     -12.221  11.609  69.823  1.00  0.00    -0.285 A  
HETATM   41  C   UNL     1     -11.929  10.271  69.487  1.00  0.00    -0.087 A  
HETATM   42  C   UNL     1     -10.877   9.955  68.639  1.00  0.00    -0.244 A  
HETATM   43  C   UNL     1     -10.053  10.992  68.212  1.00  0.00    -0.191 A  
HETATM   44  C   UNL     1     -10.419  12.324  68.355  1.00  0.00    -0.244 A  
HETATM   45  C   UNL     1      -8.607  10.901  68.232  1.00  0.00    -0.139 C  
HETATM   46  C   UNL     1      -8.119  10.675  69.481  1.00  0.00    -0.056 C  
ENDBRANCH  27  28
ENDBRANCH  14  24
TORSDOF 3
ENDMDL
MODEL       70
REMARK 921   NORMALIZED FREE ENERGY PREDICTED BY IDOCK:   -4.81 KCAL/MOL
REMARK 922        TOTAL FREE ENERGY PREDICTED BY IDOCK:   -5.19 KCAL/MOL
REMARK 923 INTER-LIGAND FREE ENERGY PREDICTED BY IDOCK:   -7.07 KCAL/MOL
REMARK 924 INTRA-LIGAND FREE ENERGY PREDICTED BY IDOCK:    1.89 KCAL/MOL
REMARK 927      BINDING AFFINITY PREDICTED BY RF-SCORE:    0.00 PKD
ROOT
HETATM    1  C   UNL     1     -12.399  13.434  70.322  1.00  0.00    -0.284 C  
HETATM    2  C   UNL     1     -13.225  13.449  71.606  1.00  0.00    -0.449 C  
HETATM    3  C   UNL     1     -14.005  14.793  71.507  1.00  0.00    -0.548 C  
HETATM    4  C   UNL     1     -13.386  15.563  70.340  1.00  0.00     0.118 C  
HETATM    5  N   UNL     1     -12.190  14.832  70.013  1.00  0.00    -0.326 N  
HETATM    6  C   UNL     1     -11.541  15.151  68.846  1.00  0.00    -0.341 C  
HETATM    7  O   UNL     1     -11.375  16.316  68.499  1.00  0.00    -0.367 OA 
HETATM    8  C   UNL     1     -10.940  13.943  68.103  1.00  0.00    -0.249 C  
HETATM    9  N   UNL     1     -11.549  12.541  68.399  1.00  0.00    -0.301 N  
HETATM   10  C   UNL     1      -8.629   9.832  66.556  1.00  0.00    -0.135 C  
HETATM   11  C   UNL     1     -10.973  11.379  67.914  1.00  0.00    -0.240 C  
HETATM   12  C   UNL     1      -8.654  12.158  65.982  1.00  0.00     0.265 C  
HETATM   13  O   UNL     1     -11.554  10.550  67.218  1.00  0.00    -0.327 OA 
HETATM   14  C   UNL     1      -9.601  11.250  68.570  1.00  0.00    -0.198 C  
HETATM   15  C   UNL     1     -11.344  12.367  69.781  1.00  0.00    -0.053 C  
HETATM   16  O   UNL     1     -11.789  11.122  70.323  1.00  0.00    -0.314 OA 
HETATM   17  H   UNL     1     -11.160  10.486  70.001  1.00  0.00     0.000 HD 
HETATM   18  C   UNL     1      -8.579  11.255  67.227  1.00  0.00    -0.143 C  
HETATM   19  O   UNL     1      -9.915  12.307  69.658  1.00  0.00     0.797 OA 
ENDROOT
BRANCH   8  20
HETATM   20  C   UNL     1     -10.811  14.269  66.655  1.00  0.00    -0.301 C  
HETATM   21  C   UNL     1     -13.023  13.375  65.895  1.00  0.00     0.041 C  
HETATM   22  C   UNL     1     -12.036  14.537  65.826  1.00  0.00    -0.285 C  
HETATM   23  C   UNL     1     -11.497  14.702  64.401  1.00  0.00    -0.272 C  
ENDBRANCH   8  20
BRANCH  14  24
HETATM   24  N   UNL     1      -9.062  10.177  69.392  1.00  0.00    -0.199 N  
HETATM   25  H   UNL     1      -8.123  10.177  69.792  1.00  0.00     0.000 HD 
HETATM   26  O   UNL     1     -10.937   9.086  68.781  1.00  0.00    -0.085 OA 
HETATM   27  C   UNL     1      -9.980   9.157  69.563  1.00  0.00    -0.189 C  
BRANCH  27  28
HETATM   28  C   UNL     1      -9.809   8.129  70.676  1.00  0.00    -0.196 C  
HETATM   29  C   UNL     1     -11.059   7.493  71.327  1.00  0.00    -0.246 C  
HETATM   30  N   UNL     1     -10.689   6.091  71.742  1.00  0.00    -0.235 NA 
HETATM   31  C   UNL     1     -10.660   5.192  70.520  1.00  0.00    -0.151 C  
HETATM   32  C   UNL     1     -11.398   5.673  72.923  1.00  0.00    -0.273 C  
HETATM   33  C   UNL     1      -9.893   3.772  70.588  1.00  0.00    -0.159 C  
HETATM   34  C   UNL     1      -8.871   3.567  69.463  1.00  0.00    -0.148 A  
HETATM   35  C   UNL     1      -7.754   2.791  69.254  1.00  0.00    -0.046 A  
HETATM   36 BR   UNL     1      -7.092   1.479  70.401  1.00  0.00    -0.033 Br 
HETATM   37  N   UNL     1      -7.121   3.198  68.100  1.00  0.00    -0.049 NA 
HETATM   38  C   UNL     1      -7.796   4.251  67.521  1.00  0.00    -0.088 A  
HETATM   39  H   UNL     1      -6.270   2.778  67.725  1.00  0.00     0.000 HD 
HETATM   40  C   UNL     1      -7.491   5.153  66.488  1.00  0.00    -0.087 A  
HETATM   41  C   UNL     1      -8.416   6.186  66.226  1.00  0.00    -0.132 A  
HETATM   42  C   UNL     1      -9.540   6.362  67.018  1.00  0.00    -0.168 A  
HETATM   43  C   UNL     1      -9.675   5.555  68.144  1.00  0.00    -0.164 A  
HETATM   44  C   UNL     1      -8.905   4.414  68.323  1.00  0.00    -0.128 A  
HETATM   45  C   UNL     1     -10.038   6.082  69.446  1.00  0.00    -0.243 C  
HETATM   46  C   UNL     1      -9.153   7.013  69.893  1.00  0.00    -0.141 C  
ENDBRANCH  27  28
ENDBRANCH  14  24
TORSDOF 3
ENDMDL
MODEL       71
REMARK 921   NORMALIZED FREE ENERGY PREDICTED BY IDOCK:   -4.77 KCAL/MOL
REMARK 922        TOTAL FREE ENERGY PREDICTED BY IDOCK:   -5.13 KCAL/MOL
REMARK 923 INTER-LIGAND FREE ENERGY PREDICTED BY IDOCK:   -6.48 KCAL/MOL
REMARK 924 INTRA-LIGAND FREE ENERGY PREDICTED BY IDOCK:    1.35 KCAL/MOL
REMARK 927      BINDING AFFINITY PREDICTED BY RF-SCORE:    0.00 PKD
ROOT
HETATM    1  C   UNL     1      -8.355   8.620  64.674  1.00  0.00    -0.155 C  
HETATM    2  C   UNL     1      -8.951   9.027  63.329  1.00  0.00     0.104 C  
HETATM    3  C   UNL     1      -8.272   8.042  62.331  1.00  0.00    -0.150 C  
HETATM    4  C   UNL     1      -7.161   7.340  63.111  1.00  0.00    -0.078 C  
HETATM    5  N   UNL     1      -7.055   8.078  64.343  1.00  0.00    -0.075 N  
HETATM    6  C   UNL     1      -6.298   7.538  65.352  1.00  0.00    -0.038 C  
HETATM    7  O   UNL     1      -5.209   7.017  65.133  1.00  0.00    -0.026 OA 
HETATM    8  C   UNL     1      -6.869   7.763  66.765  1.00  0.00    -0.071 C  
HETATM    9  N   UNL     1      -8.396   8.049  66.886  1.00  0.00    -0.114 N  
HETATM   10  C   UNL     1      -8.779   9.398  71.045  1.00  0.00    -0.064 C  
HETATM   11  C   UNL     1      -8.973   8.430  68.086  1.00  0.00    -0.139 C  
HETATM   12  C   UNL     1      -6.817   8.224  70.328  1.00  0.00    -0.036 C  
HETATM   13  O   UNL     1      -9.899   7.837  68.632  1.00  0.00    -0.161 OA 
HETATM   14  C   UNL     1      -8.386   9.789  68.456  1.00  0.00    -0.110 C  
HETATM   15  C   UNL     1      -8.580   9.225  66.133  1.00  0.00    -0.134 C  
HETATM   16  O   UNL     1      -9.914   9.739  66.102  1.00  0.00    -0.244 OA 
HETATM   17  H   UNL     1     -10.048  10.099  66.971  1.00  0.00     0.000 HD 
HETATM   18  C   UNL     1      -7.658   9.454  69.941  1.00  0.00    -0.109 C  
HETATM   19  O   UNL     1      -7.817  10.038  67.036  1.00  0.00    -0.101 OA 
ENDROOT
BRANCH   8  20
HETATM   20  C   UNL     1      -6.365   6.698  67.676  1.00  0.00    -0.044 C  
HETATM   21  C   UNL     1      -7.949   4.880  67.002  1.00  0.00    -0.103 C  
HETATM   22  C   UNL     1      -6.498   5.249  67.297  1.00  0.00    -0.052 C  
HETATM   23  C   UNL     1      -5.987   4.491  68.526  1.00  0.00    -0.026 C  
ENDBRANCH   8  20
BRANCH  14  24
HETATM   24  N   UNL     1      -9.059  11.057  68.696  1.00  0.00    -0.172 N  
HETATM   25  H   UNL     1      -9.949  11.150  69.186  1.00  0.00     0.000 HD 
HETATM   26  O   UNL     1      -7.474  11.888  67.325  1.00  0.00    -0.134 OA 
HETATM   27  C   UNL     1      -8.342  12.121  68.177  1.00  0.00    -0.170 C  
BRANCH  27  28
HETATM   28  C   UNL     1      -8.625  13.549  68.627  1.00  0.00    -0.009 C  
HETATM   29  C   UNL     1      -9.117  14.591  67.596  1.00  0.00    -0.195 C  
HETATM   30  N   UNL     1     -10.014  15.559  68.325  1.00  0.00    -0.212 NA 
HETATM   31  C   UNL     1     -11.366  14.914  68.569  1.00  0.00    -0.298 C  
HETATM   32  C   UNL     1      -9.943  16.885  67.768  1.00  0.00    -0.278 C  
HETATM   33  C   UNL     1     -12.360  15.533  69.681  1.00  0.00    -0.221 C  
HETATM   34  C   UNL     1     -12.860  14.505  70.704  1.00  0.00    -0.399 A  
HETATM   35  C   UNL     1     -13.371  14.531  71.981  1.00  0.00    -0.373 A  
HETATM   36 BR   UNL     1     -13.769  16.054  72.979  1.00  0.00    -0.232 Br 
HETATM   37  N   UNL     1     -13.455  13.245  72.469  1.00  0.00    -0.576 NA 
HETATM   38  C   UNL     1     -12.999  12.341  71.534  1.00  0.00    -0.289 A  
HETATM   39  H   UNL     1     -13.806  12.997  73.393  1.00  0.00     0.000 HD 
HETATM   40  C   UNL     1     -12.679  10.973  71.577  1.00  0.00    -0.521 A  
HETATM   41  C   UNL     1     -12.140  10.389  70.412  1.00  0.00    -0.402 A  
HETATM   42  C   UNL     1     -11.850  11.155  69.292  1.00  0.00    -0.422 A  
HETATM   43  C   UNL     1     -12.008  12.534  69.390  1.00  0.00    -0.315 A  
HETATM   44  C   UNL     1     -12.712  13.118  70.433  1.00  0.00    -0.080 A  
HETATM   45  C   UNL     1     -11.005  13.472  68.922  1.00  0.00    -0.286 C  
HETATM   46  C   UNL     1      -9.806  13.300  69.539  1.00  0.00     1.028 C  
ENDBRANCH  27  28
ENDBRANCH  14  24
TORSDOF 3
ENDMDL
MODEL       72
REMARK 921   NORMALIZED FREE ENERGY PREDICTED BY IDOCK:   -4.74 KCAL/MOL
REMARK 922        TOTAL FREE ENERGY PREDICTED BY IDOCK:   -5.11 KCAL/MOL
REMARK 923 INTER-LIGAND FREE ENERGY PREDICTED BY IDOCK:   -8.56 KCAL/MOL
REMARK 924 INTRA-LIGAND FREE ENERGY PREDICTED BY IDOCK:    3.46 KCAL/MOL
REMARK 927      BINDING AFFINITY PREDICTED BY RF-SCORE:    0.00 PKD
ROOT
HETATM    1  C   UNL     1      -9.082   8.087  70.891  1.00  0.00    -0.148 C  
HETATM    2  C   UNL     1      -9.196   8.500  72.356  1.00  0.00    -0.328 C  
HETATM    3  C   UNL     1      -9.181   7.136  73.109  1.00  0.00    -0.179 C  
HETATM    4  C   UNL     1      -9.331   6.055  72.039  1.00  0.00    -0.149 C  
HETATM    5  N   UNL     1      -9.683   6.772  70.841  1.00  0.00    -0.178 N  
HETATM    6  C   UNL     1      -9.654   6.088  69.651  1.00  0.00    -0.148 C  
HETATM    7  O   UNL     1     -10.101   4.948  69.552  1.00  0.00    -0.221 OA 
HETATM    8  C   UNL     1      -9.145   6.914  68.455  1.00  0.00    -0.126 C  
HETATM    9  N   UNL     1      -8.249   8.150  68.765  1.00  0.00    -0.123 N  
HETATM   10  C   UNL     1      -8.133  10.226  64.900  1.00  0.00    -0.154 C  
HETATM   11  C   UNL     1      -7.882   9.049  67.778  1.00  0.00    -0.101 C  
HETATM   12  C   UNL     1      -8.835   7.939  65.025  1.00  0.00     0.168 C  
HETATM   13  O   UNL     1      -6.723   9.340  67.496  1.00  0.00    -0.067 OA 
HETATM   14  C   UNL     1      -9.161   9.724  67.288  1.00  0.00    -0.134 C  
HETATM   15  C   UNL     1      -9.069   8.970  69.563  1.00  0.00    -0.151 C  
HETATM   16  O   UNL     1      -8.493  10.214  69.970  1.00  0.00    -0.339 OA 
HETATM   17  H   UNL     1      -8.485  10.740  69.179  1.00  0.00     0.000 HD 
HETATM   18  C   UNL     1      -9.163   9.305  65.653  1.00  0.00    -0.291 C  
HETATM   19  O   UNL     1      -9.995   9.243  68.501  1.00  0.00    -0.165 OA 
ENDROOT
BRANCH   8  20
HETATM   20  C   UNL     1      -8.596   5.995  67.419  1.00  0.00    -0.102 C  
HETATM   21  C   UNL     1      -6.302   5.711  68.382  1.00  0.00    -0.041 C  
HETATM   22  C   UNL     1      -7.514   5.012  67.773  1.00  0.00    -0.079 C  
HETATM   23  C   UNL     1      -7.147   4.361  66.436  1.00  0.00    -0.071 C  
ENDBRANCH   8  20
BRANCH  14  24
HETATM   24  N   UNL     1      -9.516  11.136  67.268  1.00  0.00    -0.164 N  
HETATM   25  H   UNL     1     -10.417  11.496  66.954  1.00  0.00     0.000 HD 
HETATM   26  O   UNL     1      -7.339  11.448  67.760  1.00  0.00    -0.090 OA 
HETATM   27  C   UNL     1      -8.479  11.928  67.728  1.00  0.00    -0.154 C  
BRANCH  27  28
HETATM   28  C   UNL     1      -8.729  13.367  68.166  1.00  0.00    -0.179 C  
HETATM   29  C   UNL     1      -9.325  14.379  67.161  1.00  0.00    -0.220 C  
HETATM   30  N   UNL     1     -10.155  15.362  67.948  1.00  0.00    -0.225 NA 
HETATM   31  C   UNL     1     -11.472  14.716  68.337  1.00  0.00    -0.311 C  
HETATM   32  C   UNL     1     -10.148  16.672  67.352  1.00  0.00    -0.274 C  
HETATM   33  C   UNL     1     -12.360  15.359  69.523  1.00  0.00    -0.207 C  
HETATM   34  C   UNL     1     -12.751  14.356  70.615  1.00  0.00    -0.421 A  
HETATM   35  C   UNL     1     -13.138  14.413  71.935  1.00  0.00    -0.355 A  
HETATM   36 BR   UNL     1     -13.449  15.960  72.927  1.00  0.00    -0.561 Br 
HETATM   37  N   UNL     1     -13.165  13.140  72.461  1.00  0.00    -0.423 NA 
HETATM   38  C   UNL     1     -12.794  12.214  71.510  1.00  0.00    -0.289 A  
HETATM   39  H   UNL     1     -13.424  12.915  73.421  1.00  0.00     0.000 HD 
HETATM   40  C   UNL     1     -12.461  10.849  71.558  1.00  0.00    -0.419 A  
HETATM   41  C   UNL     1     -12.032  10.238  70.361  1.00  0.00    -0.391 A  
HETATM   42  C   UNL     1     -11.857  10.975  69.199  1.00  0.00    -0.407 A  
HETATM   43  C   UNL     1     -12.014  12.356  69.276  1.00  0.00    -0.308 A  
HETATM   44  C   UNL     1     -12.620  12.964  70.367  1.00  0.00    -0.145 A  
HETATM   45  C   UNL     1     -11.069  13.285  68.690  1.00  0.00    -0.301 C  
HETATM   46  C   UNL     1      -9.815  13.136  69.194  1.00  0.00     0.410 C  
ENDBRANCH  27  28
ENDBRANCH  14  24
TORSDOF 3
ENDMDL
MODEL       73
REMARK 921   NORMALIZED FREE ENERGY PREDICTED BY IDOCK:   -4.72 KCAL/MOL
REMARK 922        TOTAL FREE ENERGY PREDICTED BY IDOCK:   -5.08 KCAL/MOL
REMARK 923 INTER-LIGAND FREE ENERGY PREDICTED BY IDOCK:   -5.85 KCAL/MOL
REMARK 924 INTRA-LIGAND FREE ENERGY PREDICTED BY IDOCK:    0.77 KCAL/MOL
REMARK 927      BINDING AFFINITY PREDICTED BY RF-SCORE:    0.00 PKD
ROOT
HETATM    1  C   UNL     1      -8.573   7.348  72.332  1.00  0.00    -0.116 C  
HETATM    2  C   UNL     1      -8.062   7.674  73.733  1.00  0.00    -0.205 C  
HETATM    3  C   UNL     1      -7.672   6.276  74.299  1.00  0.00    -0.091 C  
HETATM    4  C   UNL     1      -8.224   5.246  73.314  1.00  0.00    -0.111 C  
HETATM    5  N   UNL     1      -9.085   6.000  72.440  1.00  0.00    -0.137 N  
HETATM    6  C   UNL     1      -9.543   5.383  71.302  1.00  0.00    -0.157 C  
HETATM    7  O   UNL     1      -9.944   4.223  71.314  1.00  0.00    -0.186 OA 
HETATM    8  C   UNL     1      -9.630   6.305  70.071  1.00  0.00    -0.158 C  
HETATM    9  N   UNL     1      -8.736   7.581  70.065  1.00  0.00    -0.139 N  
HETATM   10  C   UNL     1     -10.373   9.864  66.692  1.00  0.00    -0.275 C  
HETATM   11  C   UNL     1      -8.865   8.555  69.089  1.00  0.00    -0.142 C  
HETATM   12  C   UNL     1     -10.862   7.530  66.926  1.00  0.00    -0.174 C  
HETATM   13  O   UNL     1      -7.951   8.939  68.364  1.00  0.00    -0.102 OA 
HETATM   14  C   UNL     1     -10.255   9.166  69.244  1.00  0.00    -0.210 C  
HETATM   15  C   UNL     1      -9.166   8.300  71.198  1.00  0.00    -0.162 C  
HETATM   16  O   UNL     1      -8.521   9.557  71.415  1.00  0.00    -0.278 OA 
HETATM   17  H   UNL     1      -8.874  10.124  70.740  1.00  0.00     0.000 HD 
HETATM   18  C   UNL     1     -10.943   8.836  67.738  1.00  0.00     0.063 C  
HETATM   19  O   UNL     1     -10.468   8.564  70.655  1.00  0.00    -0.194 OA 
ENDROOT
BRANCH   8  20
HETATM   20  C   UNL     1      -9.543   5.483  68.832  1.00  0.00    -0.178 C  
HETATM   21  C   UNL     1      -7.047   5.368  68.660  1.00  0.00    -0.065 C  
HETATM   22  C   UNL     1      -8.358   4.588  68.597  1.00  0.00    -0.089 C  
HETATM   23  C   UNL     1      -8.584   4.028  67.189  1.00  0.00    -0.104 C  
ENDBRANCH   8  20
BRANCH  14  24
HETATM   24  N   UNL     1     -10.640  10.549  69.486  1.00  0.00    -0.237 N  
HETATM   25  H   UNL     1     -10.038  11.352  69.304  1.00  0.00     0.000 HD 
HETATM   26  O   UNL     1     -12.433   9.625  70.492  1.00  0.00    -0.150 OA 
HETATM   27  C   UNL     1     -11.923  10.638  69.995  1.00  0.00    -0.329 C  
BRANCH  27  28
HETATM   28  C   UNL     1     -12.686  11.957  69.966  1.00  0.00     0.176 C  
HETATM   29  C   UNL     1     -12.832  12.785  71.263  1.00  0.00    -0.262 C  
HETATM   30  N   UNL     1     -12.878  14.240  70.868  1.00  0.00    -0.343 NA 
HETATM   31  C   UNL     1     -11.479  14.716  70.521  1.00  0.00    -0.220 C  
HETATM   32  C   UNL     1     -13.698  15.016  71.762  1.00  0.00    -0.455 C  
HETATM   33  C   UNL     1     -11.284  16.073  69.668  1.00  0.00    -0.336 C  
HETATM   34  C   UNL     1     -10.397  15.901  68.429  1.00  0.00    -0.240 A  
HETATM   35  C   UNL     1     -10.212  16.555  67.232  1.00  0.00    -0.287 A  
HETATM   36 BR   UNL     1     -11.028  18.146  66.706  1.00  0.00     0.296 Br 
HETATM   37  N   UNL     1      -9.397  15.800  66.417  1.00  0.00    -0.273 NA 
HETATM   38  C   UNL     1      -9.029  14.631  67.048  1.00  0.00    -0.240 A  
HETATM   39  H   UNL     1      -9.107  16.068  65.477  1.00  0.00     0.000 HD 
HETATM   40  C   UNL     1      -8.403  13.448  66.618  1.00  0.00     0.234 A  
HETATM   41  C   UNL     1      -8.270  12.401  67.554  1.00  0.00    -0.173 A  
HETATM   42  C   UNL     1      -8.816  12.498  68.826  1.00  0.00     0.161 A  
HETATM   43  C   UNL     1      -9.593  13.617  69.115  1.00  0.00     0.359 A  
HETATM   44  C   UNL     1      -9.584  14.743  68.304  1.00  0.00    -0.215 A  
HETATM   45  C   UNL     1     -10.881  13.526  69.773  1.00  0.00     0.264 C  
HETATM   46  C   UNL     1     -11.767  12.764  69.076  1.00  0.00    -0.371 C  
ENDBRANCH  27  28
ENDBRANCH  14  24
TORSDOF 3
ENDMDL
MODEL       74
REMARK 921   NORMALIZED FREE ENERGY PREDICTED BY IDOCK:   -4.72 KCAL/MOL
REMARK 922        TOTAL FREE ENERGY PREDICTED BY IDOCK:   -5.08 KCAL/MOL
REMARK 923 INTER-LIGAND FREE ENERGY PREDICTED BY IDOCK:   -8.17 KCAL/MOL
REMARK 924 INTRA-LIGAND FREE ENERGY PREDICTED BY IDOCK:    3.09 KCAL/MOL
REMARK 927      BINDING AFFINITY PREDICTED BY RF-SCORE:    0.00 PKD
ROOT
HETATM    1  C   UNL     1      -8.702   7.032  72.242  1.00  0.00    -0.125 C  
HETATM    2  C   UNL     1      -8.203   7.736  73.501  1.00  0.00    -0.232 C  
HETATM    3  C   UNL     1      -8.096   6.575  74.534  1.00  0.00    -0.129 C  
HETATM    4  C   UNL     1      -8.782   5.369  73.894  1.00  0.00    -0.118 C  
HETATM    5  N   UNL     1      -9.453   5.900  72.736  1.00  0.00    -0.149 N  
HETATM    6  C   UNL     1      -9.965   5.009  71.826  1.00  0.00    -0.191 C  
HETATM    7  O   UNL     1     -10.568   4.000  72.180  1.00  0.00    -0.073 OA 
HETATM    8  C   UNL     1      -9.830   5.453  70.357  1.00  0.00    -0.205 C  
HETATM    9  N   UNL     1      -8.721   6.495  70.021  1.00  0.00    -0.139 N  
HETATM   10  C   UNL     1      -9.770   7.705  65.934  1.00  0.00     0.255 C  
HETATM   11  C   UNL     1      -8.629   7.082  68.770  1.00  0.00    -0.125 C  
HETATM   12  C   UNL     1     -10.682   5.699  66.876  1.00  0.00    -0.350 C  
HETATM   13  O   UNL     1      -7.630   7.047  68.057  1.00  0.00    -0.106 OA 
HETATM   14  C   UNL     1      -9.891   7.916  68.571  1.00  0.00    -0.177 C  
HETATM   15  C   UNL     1      -9.063   7.616  70.802  1.00  0.00    -0.153 C  
HETATM   16  O   UNL     1      -8.212   8.755  70.657  1.00  0.00    -0.113 OA 
HETATM   17  H   UNL     1      -8.426   9.103  69.800  1.00  0.00     0.000 HD 
HETATM   18  C   UNL     1     -10.561   7.200  67.198  1.00  0.00    -0.417 C  
HETATM   19  O   UNL     1     -10.271   7.876  70.072  1.00  0.00    -0.200 OA 
ENDROOT
BRANCH   8  20
HETATM   20  C   UNL     1      -9.839   4.253  69.476  1.00  0.00    -0.224 C  
HETATM   21  C   UNL     1      -7.383   3.765  69.521  1.00  0.00    -0.052 C  
HETATM   22  C   UNL     1      -8.791   3.186  69.635  1.00  0.00    -0.146 C  
HETATM   23  C   UNL     1      -9.068   2.212  68.486  1.00  0.00    -0.207 C  
ENDBRANCH   8  20
BRANCH  14  24
HETATM   24  N   UNL     1     -10.030   9.340  68.302  1.00  0.00    -0.166 N  
HETATM   25  H   UNL     1     -10.925   9.826  68.227  1.00  0.00     0.000 HD 
HETATM   26  O   UNL     1      -7.809   9.246  67.932  1.00  0.00    -0.092 OA 
HETATM   27  C   UNL     1      -8.798   9.954  68.161  1.00  0.00    -0.118 C  
BRANCH  27  28
HETATM   28  C   UNL     1      -8.662  11.469  68.263  1.00  0.00    -0.162 C  
HETATM   29  C   UNL     1      -8.977  12.349  67.032  1.00  0.00    -0.209 C  
HETATM   30  N   UNL     1      -9.519  13.661  67.541  1.00  0.00    -0.214 NA 
HETATM   31  C   UNL     1     -10.958  13.476  67.987  1.00  0.00    -0.251 C  
HETATM   32  C   UNL     1      -9.172  14.760  66.678  1.00  0.00    -0.275 C  
HETATM   33  C   UNL     1     -11.643  14.572  68.955  1.00  0.00    -0.341 C  
HETATM   34  C   UNL     1     -12.279  13.972  70.214  1.00  0.00    -0.430 A  
HETATM   35  C   UNL     1     -12.634  14.418  71.467  1.00  0.00    -0.350 A  
HETATM   36 BR   UNL     1     -12.527  16.174  72.083  1.00  0.00    -0.356 Br 
HETATM   37  N   UNL     1     -12.991  13.345  72.254  1.00  0.00    -0.317 NA 
HETATM   38  C   UNL     1     -12.878  12.167  71.548  1.00  0.00    -0.289 A  
HETATM   39  H   UNL     1     -13.296  13.413  73.224  1.00  0.00     0.000 HD 
HETATM   40  C   UNL     1     -12.912  10.809  71.907  1.00  0.00    -0.524 A  
HETATM   41  C   UNL     1     -12.661   9.857  70.896  1.00  0.00    -0.376 A  
HETATM   42  C   UNL     1     -12.303  10.247  69.614  1.00  0.00     0.043 A  
HETATM   43  C   UNL     1     -12.094  11.603  69.382  1.00  0.00    -0.328 A  
HETATM   44  C   UNL     1     -12.517  12.573  70.281  1.00  0.00    -0.157 A  
HETATM   45  C   UNL     1     -10.941  12.106  68.662  1.00  0.00    -0.284 C  
HETATM   46  C   UNL     1      -9.768  11.757  69.255  1.00  0.00     0.400 C  
ENDBRANCH  27  28
ENDBRANCH  14  24
TORSDOF 3
ENDMDL
MODEL       75
REMARK 921   NORMALIZED FREE ENERGY PREDICTED BY IDOCK:   -4.68 KCAL/MOL
REMARK 922        TOTAL FREE ENERGY PREDICTED BY IDOCK:   -5.03 KCAL/MOL
REMARK 923 INTER-LIGAND FREE ENERGY PREDICTED BY IDOCK:   -8.21 KCAL/MOL
REMARK 924 INTRA-LIGAND FREE ENERGY PREDICTED BY IDOCK:    3.18 KCAL/MOL
REMARK 927      BINDING AFFINITY PREDICTED BY RF-SCORE:    0.00 PKD
ROOT
HETATM    1  C   UNL     1      -8.996  15.849  67.099  1.00  0.00    -0.208 C  
HETATM    2  C   UNL     1      -8.219  16.519  65.969  1.00  0.00    -0.113 C  
HETATM    3  C   UNL     1      -7.966  17.955  66.521  1.00  0.00    -0.303 C  
HETATM    4  C   UNL     1      -8.827  18.089  67.776  1.00  0.00    -0.255 C  
HETATM    5  N   UNL     1      -9.690  16.936  67.754  1.00  0.00    -0.246 N  
HETATM    6  C   UNL     1     -10.419  16.658  68.883  1.00  0.00    -0.322 C  
HETATM    7  O   UNL     1     -10.990  17.542  69.516  1.00  0.00     0.232 OA 
HETATM    8  C   UNL     1     -10.560  15.156  69.195  1.00  0.00    -0.256 C  
HETATM    9  N   UNL     1      -9.490  14.195  68.595  1.00  0.00    -0.195 N  
HETATM   10  C   UNL     1     -11.277  10.246  69.286  1.00  0.00    -0.281 C  
HETATM   11  C   UNL     1      -9.621  12.819  68.676  1.00  0.00    -0.021 C  
HETATM   12  C   UNL     1     -12.082  12.164  70.474  1.00  0.00    -0.383 C  
HETATM   13  O   UNL     1      -8.790  12.068  69.178  1.00  0.00     0.267 OA 
HETATM   14  C   UNL     1     -10.854  12.437  67.860  1.00  0.00    -0.222 C  
HETATM   15  C   UNL     1      -9.610  14.380  67.205  1.00  0.00    -0.250 C  
HETATM   16  O   UNL     1      -8.748  13.576  66.396  1.00  0.00    -0.438 OA 
HETATM   17  H   UNL     1      -9.113  12.701  66.459  1.00  0.00     0.000 HD 
HETATM   18  C   UNL     1     -11.822  11.700  69.029  1.00  0.00    -0.391 C  
HETATM   19  O   UNL     1     -10.925  13.809  67.145  1.00  0.00    -0.283 OA 
ENDROOT
BRANCH   8  20
HETATM   20  C   UNL     1     -10.808  14.976  70.652  1.00  0.00    -0.134 C  
HETATM   21  C   UNL     1     -13.240  15.572  70.670  1.00  0.00    -0.293 C  
HETATM   22  C   UNL     1     -12.174  14.589  71.147  1.00  0.00    -0.411 C  
HETATM   23  C   UNL     1     -12.047  14.630  72.673  1.00  0.00    -0.220 C  
ENDBRANCH   8  20
BRANCH  14  24
HETATM   24  N   UNL     1     -10.971  11.540  66.720  1.00  0.00    -0.283 N  
HETATM   25  H   UNL     1     -11.830  11.396  66.189  1.00  0.00     0.000 HD 
HETATM   26  O   UNL     1      -8.903  10.881  67.327  1.00  0.00    -0.134 OA 
HETATM   27  C   UNL     1      -9.772  10.906  66.446  1.00  0.00    -0.201 C  
BRANCH  27  28
HETATM   28  C   UNL     1      -9.532  10.235  65.098  1.00  0.00    -0.309 C  
HETATM   29  C   UNL     1      -8.122  10.274  64.466  1.00  0.00    -0.150 C  
HETATM   30  N   UNL     1      -7.948   9.005  63.670  1.00  0.00    -0.142 NA 
HETATM   31  C   UNL     1      -7.677   7.847  64.614  1.00  0.00    -0.120 C  
HETATM   32  C   UNL     1      -7.108   9.202  62.517  1.00  0.00    -0.097 C  
HETATM   33  C   UNL     1      -7.874   6.330  64.098  1.00  0.00    -0.117 C  
HETATM   34  C   UNL     1      -8.778   5.483  65.002  1.00  0.00    -0.096 A  
HETATM   35  C   UNL     1      -9.541   4.345  64.871  1.00  0.00    -0.154 A  
HETATM   36 BR   UNL     1      -9.655   3.261  63.359  1.00  0.00    -0.110 Br 
HETATM   37  N   UNL     1     -10.305   4.172  66.004  1.00  0.00    -0.442 NA 
HETATM   38  C   UNL     1     -10.073   5.187  66.907  1.00  0.00    -0.226 A  
HETATM   39  H   UNL     1     -10.954   3.399  66.154  1.00  0.00     0.000 HD 
HETATM   40  C   UNL     1     -10.708   5.603  68.089  1.00  0.00    -0.231 A  
HETATM   41  C   UNL     1     -10.229   6.774  68.712  1.00  0.00    -0.184 A  
HETATM   42  C   UNL     1      -9.227   7.539  68.133  1.00  0.00    -0.137 A  
HETATM   43  C   UNL     1      -8.782   7.175  66.866  1.00  0.00    -0.126 A  
HETATM   44  C   UNL     1      -9.081   5.937  66.313  1.00  0.00    -0.157 A  
HETATM   45  C   UNL     1      -8.605   8.134  65.793  1.00  0.00    -0.175 C  
HETATM   46  C   UNL     1      -9.756   8.791  65.489  1.00  0.00     0.103 C  
ENDBRANCH  27  28
ENDBRANCH  14  24
TORSDOF 3
ENDMDL
MODEL       76
REMARK 921   NORMALIZED FREE ENERGY PREDICTED BY IDOCK:   -4.61 KCAL/MOL
REMARK 922        TOTAL FREE ENERGY PREDICTED BY IDOCK:   -4.96 KCAL/MOL
REMARK 923 INTER-LIGAND FREE ENERGY PREDICTED BY IDOCK:   -7.73 KCAL/MOL
REMARK 924 INTRA-LIGAND FREE ENERGY PREDICTED BY IDOCK:    2.77 KCAL/MOL
REMARK 927      BINDING AFFINITY PREDICTED BY RF-SCORE:    0.00 PKD
ROOT
HETATM    1  C   UNL     1      -7.381   4.529  65.976  1.00  0.00    -0.077 C  
HETATM    2  C   UNL     1      -6.917   4.475  64.523  1.00  0.00    -0.050 C  
HETATM    3  C   UNL     1      -6.576   2.968  64.319  1.00  0.00    -0.035 C  
HETATM    4  C   UNL     1      -6.607   2.330  65.707  1.00  0.00    -0.028 C  
HETATM    5  N   UNL     1      -6.676   3.442  66.620  1.00  0.00    -0.048 N  
HETATM    6  C   UNL     1      -6.954   3.175  67.937  1.00  0.00    -0.050 C  
HETATM    7  O   UNL     1      -6.430   2.236  68.529  1.00  0.00    -0.028 OA 
HETATM    8  C   UNL     1      -7.859   4.218  68.620  1.00  0.00    -0.073 C  
HETATM    9  N   UNL     1      -8.765   5.093  67.704  1.00  0.00    -0.104 N  
HETATM   10  C   UNL     1     -10.161   8.213  70.456  1.00  0.00    -0.207 C  
HETATM   11  C   UNL     1      -9.485   6.166  68.201  1.00  0.00    -0.113 C  
HETATM   12  C   UNL     1      -9.206   6.187  71.306  1.00  0.00    -0.157 C  
HETATM   13  O   UNL     1     -10.701   6.297  68.101  1.00  0.00    -0.233 OA 
HETATM   14  C   UNL     1      -8.471   7.198  68.688  1.00  0.00    -0.125 C  
HETATM   15  C   UNL     1      -7.853   5.765  66.867  1.00  0.00    -0.101 C  
HETATM   16  O   UNL     1      -8.429   6.679  65.931  1.00  0.00    -0.135 OA 
HETATM   17  H   UNL     1      -8.710   7.415  66.461  1.00  0.00     0.000 HD 
HETATM   18  C   UNL     1      -8.870   7.324  70.324  1.00  0.00    -0.147 C  
HETATM   19  O   UNL     1      -7.289   6.533  67.940  1.00  0.00    -0.088 OA 
ENDROOT
BRANCH   8  20
HETATM   20  C   UNL     1      -8.566   3.583  69.767  1.00  0.00    -0.107 C  
HETATM   21  C   UNL     1      -9.563   1.644  68.534  1.00  0.00    -0.188 C  
HETATM   22  C   UNL     1      -8.809   2.099  69.780  1.00  0.00    -0.133 C  
HETATM   23  C   UNL     1      -9.655   1.868  71.036  1.00  0.00    -0.197 C  
ENDBRANCH   8  20
BRANCH  14  24
HETATM   24  N   UNL     1      -8.291   8.585  68.285  1.00  0.00    -0.123 N  
HETATM   25  H   UNL     1      -7.583   9.209  68.673  1.00  0.00     0.000 HD 
HETATM   26  O   UNL     1     -10.213   8.258  67.153  1.00  0.00    -0.237 OA 
HETATM   27  C   UNL     1      -9.201   8.954  67.310  1.00  0.00    -0.138 C  
BRANCH  27  28
HETATM   28  C   UNL     1      -8.976  10.198  66.459  1.00  0.00    -0.161 C  
HETATM   29  C   UNL     1      -9.646  10.306  65.070  1.00  0.00    -0.285 C  
HETATM   30  N   UNL     1      -9.933  11.765  64.819  1.00  0.00    -0.249 NA 
HETATM   31  C   UNL     1     -11.147  12.190  65.625  1.00  0.00    -0.316 C  
HETATM   32  C   UNL     1      -9.848  12.098  63.421  1.00  0.00    -0.176 C  
HETATM   33  C   UNL     1     -11.423  13.759  65.888  1.00  0.00    -0.330 C  
HETATM   34  C   UNL     1     -11.627  14.110  67.367  1.00  0.00    -0.399 A  
HETATM   35  C   UNL     1     -11.524  15.236  68.152  1.00  0.00    -0.346 A  
HETATM   36 BR   UNL     1     -11.146  16.962  67.561  1.00  0.00     0.105 Br 
HETATM   37  N   UNL     1     -11.643  14.883  69.479  1.00  0.00    -0.285 NA 
HETATM   38  C   UNL     1     -11.821  13.522  69.606  1.00  0.00    -0.336 A  
HETATM   39  H   UNL     1     -11.604  15.538  70.259  1.00  0.00     0.000 HD 
HETATM   40  C   UNL     1     -11.790  12.633  70.693  1.00  0.00    -0.016 A  
HETATM   41  C   UNL     1     -11.930  11.257  70.418  1.00  0.00    -0.471 A  
HETATM   42  C   UNL     1     -12.004  10.787  69.115  1.00  0.00    -0.302 A  
HETATM   43  C   UNL     1     -11.829  11.705  68.083  1.00  0.00    -0.315 A  
HETATM   44  C   UNL     1     -11.887  13.074  68.304  1.00  0.00    -0.381 A  
HETATM   45  C   UNL     1     -10.962  11.452  66.949  1.00  0.00    -0.355 C  
HETATM   46  C   UNL     1      -9.674  11.226  67.322  1.00  0.00    -0.192 C  
ENDBRANCH  27  28
ENDBRANCH  14  24
TORSDOF 3
ENDMDL
MODEL       77
REMARK 921   NORMALIZED FREE ENERGY PREDICTED BY IDOCK:   -4.57 KCAL/MOL
REMARK 922        TOTAL FREE ENERGY PREDICTED BY IDOCK:   -4.91 KCAL/MOL
REMARK 923 INTER-LIGAND FREE ENERGY PREDICTED BY IDOCK:   -6.04 KCAL/MOL
REMARK 924 INTRA-LIGAND FREE ENERGY PREDICTED BY IDOCK:    1.13 KCAL/MOL
REMARK 927      BINDING AFFINITY PREDICTED BY RF-SCORE:    0.00 PKD
ROOT
HETATM    1  C   UNL     1     -11.578  14.251  69.041  1.00  0.00    -0.305 C  
HETATM    2  C   UNL     1     -12.950  14.594  69.615  1.00  0.00     0.386 C  
HETATM    3  C   UNL     1     -12.689  15.927  70.378  1.00  0.00    -0.011 C  
HETATM    4  C   UNL     1     -11.172  16.108  70.416  1.00  0.00    -0.381 C  
HETATM    5  N   UNL     1     -10.641  14.848  69.967  1.00  0.00    -0.143 N  
HETATM    6  C   UNL     1      -9.303  14.784  69.672  1.00  0.00     0.202 C  
HETATM    7  O   UNL     1      -8.458  15.312  70.389  1.00  0.00     0.516 OA 
HETATM    8  C   UNL     1      -8.960  13.895  68.461  1.00  0.00    -0.141 C  
HETATM    9  N   UNL     1     -10.091  13.632  67.422  1.00  0.00    -0.239 N  
HETATM   10  C   UNL     1      -8.406  10.384  64.996  1.00  0.00    -0.166 C  
HETATM   11  C   UNL     1      -9.936  12.716  66.394  1.00  0.00    -0.255 C  
HETATM   12  C   UNL     1      -6.988  11.702  66.409  1.00  0.00     0.141 C  
HETATM   13  O   UNL     1     -10.060  12.980  65.202  1.00  0.00    -0.279 OA 
HETATM   14  C   UNL     1      -9.797  11.339  67.037  1.00  0.00    -0.191 C  
HETATM   15  C   UNL     1     -11.101  13.001  68.173  1.00  0.00    -0.256 C  
HETATM   16  O   UNL     1     -12.266  12.611  67.441  1.00  0.00    -0.406 OA 
HETATM   17  H   UNL     1     -11.982  11.867  66.924  1.00  0.00     0.000 HD 
HETATM   18  C   UNL     1      -8.274  10.859  66.491  1.00  0.00    -0.157 C  
HETATM   19  O   UNL     1     -10.320  11.822  68.413  1.00  0.00    -0.201 OA 
ENDROOT
BRANCH   8  20
HETATM   20  C   UNL     1      -7.668  14.341  67.871  1.00  0.00    -0.157 C  
HETATM   21  C   UNL     1      -8.358  16.660  67.226  1.00  0.00    -0.198 C  
HETATM   22  C   UNL     1      -7.288  15.796  67.888  1.00  0.00    -0.151 C  
HETATM   23  C   UNL     1      -5.981  15.852  67.091  1.00  0.00     0.059 C  
ENDBRANCH   8  20
BRANCH  14  24
HETATM   24  N   UNL     1     -10.606  10.142  66.854  1.00  0.00    -0.225 N  
HETATM   25  H   UNL     1     -11.212   9.977  66.049  1.00  0.00     0.000 HD 
HETATM   26  O   UNL     1      -9.979   9.680  68.969  1.00  0.00    -0.172 OA 
HETATM   27  C   UNL     1     -10.452   9.257  67.906  1.00  0.00    -0.236 C  
BRANCH  27  28
HETATM   28  C   UNL     1     -10.872   7.798  67.769  1.00  0.00    -0.111 C  
HETATM   29  C   UNL     1     -10.119   6.875  66.784  1.00  0.00    -0.194 C  
HETATM   30  N   UNL     1     -10.146   5.482  67.360  1.00  0.00    -0.162 NA 
HETATM   31  C   UNL     1      -9.139   5.380  68.491  1.00  0.00    -0.108 C  
HETATM   32  C   UNL     1     -10.175   4.474  66.333  1.00  0.00    -0.217 C  
HETATM   33  C   UNL     1      -9.249   4.169  69.554  1.00  0.00    -0.214 C  
HETATM   34  C   UNL     1      -9.266   4.631  71.016  1.00  0.00    -0.195 A  
HETATM   35  C   UNL     1      -9.692   4.122  72.222  1.00  0.00    -0.154 A  
HETATM   36 BR   UNL     1     -10.394   2.421  72.515  1.00  0.00    -0.178 Br 
HETATM   37  N   UNL     1      -9.620   5.104  73.186  1.00  0.00    -0.141 NA 
HETATM   38  C   UNL     1      -9.152   6.282  72.646  1.00  0.00    -0.136 A  
HETATM   39  H   UNL     1      -9.877   4.976  74.165  1.00  0.00     0.000 HD 
HETATM   40  C   UNL     1      -9.082   7.606  73.110  1.00  0.00    -0.254 A  
HETATM   41  C   UNL     1      -8.610   8.590  72.216  1.00  0.00    -0.235 A  
HETATM   42  C   UNL     1      -8.312   8.280  70.897  1.00  0.00    -0.139 A  
HETATM   43  C   UNL     1      -8.594   6.991  70.454  1.00  0.00    -0.142 A  
HETATM   44  C   UNL     1      -8.867   5.956  71.337  1.00  0.00    -0.137 A  
HETATM   45  C   UNL     1      -9.274   6.726  69.201  1.00  0.00    -0.137 C  
HETATM   46  C   UNL     1     -10.507   7.297  69.149  1.00  0.00    -0.222 C  
ENDBRANCH  27  28
ENDBRANCH  14  24
TORSDOF 3
ENDMDL
MODEL       78
REMARK 921   NORMALIZED FREE ENERGY PREDICTED BY IDOCK:   -4.53 KCAL/MOL
REMARK 922        TOTAL FREE ENERGY PREDICTED BY IDOCK:   -4.86 KCAL/MOL
REMARK 923 INTER-LIGAND FREE ENERGY PREDICTED BY IDOCK:   -5.52 KCAL/MOL
REMARK 924 INTRA-LIGAND FREE ENERGY PREDICTED BY IDOCK:    0.66 KCAL/MOL
REMARK 927      BINDING AFFINITY PREDICTED BY RF-SCORE:    0.00 PKD
ROOT
HETATM    1  C   UNL     1      -6.949   8.020  66.678  1.00  0.00    -0.072 C  
HETATM    2  C   UNL     1      -5.967   8.038  65.510  1.00  0.00    -0.038 C  
HETATM    3  C   UNL     1      -5.501   6.554  65.419  1.00  0.00    -0.021 C  
HETATM    4  C   UNL     1      -6.025   5.863  66.677  1.00  0.00    -0.022 C  
HETATM    5  N   UNL     1      -6.489   6.935  67.518  1.00  0.00    -0.048 N  
HETATM    6  C   UNL     1      -7.232   6.608  68.624  1.00  0.00    -0.085 C  
HETATM    7  O   UNL     1      -6.927   5.667  69.351  1.00  0.00    -0.059 OA 
HETATM    8  C   UNL     1      -8.378   7.590  68.934  1.00  0.00    -0.129 C  
HETATM    9  N   UNL     1      -8.911   8.465  67.760  1.00  0.00    -0.137 N  
HETATM   10  C   UNL     1     -11.396  11.424  69.841  1.00  0.00    -0.300 C  
HETATM   11  C   UNL     1      -9.816   9.491  67.970  1.00  0.00    -0.155 C  
HETATM   12  C   UNL     1     -10.737   9.404  70.947  1.00  0.00    -0.393 C  
HETATM   13  O   UNL     1     -10.909   9.581  67.417  1.00  0.00    -0.269 OA 
HETATM   14  C   UNL     1      -9.115  10.541  68.828  1.00  0.00    -0.166 C  
HETATM   15  C   UNL     1      -7.784   9.202  67.348  1.00  0.00    -0.092 C  
HETATM   16  O   UNL     1      -8.005  10.129  66.283  1.00  0.00    -0.112 OA 
HETATM   17  H   UNL     1      -8.502  10.833  66.682  1.00  0.00     0.000 HD 
HETATM   18  C   UNL     1     -10.109  10.589  70.190  1.00  0.00     0.156 C  
HETATM   19  O   UNL     1      -7.706   9.949  68.571  1.00  0.00    -0.079 OA 
ENDROOT
BRANCH   8  20
HETATM   20  C   UNL     1      -9.435   6.886  69.712  1.00  0.00    -0.145 C  
HETATM   21  C   UNL     1     -10.795   6.054  67.781  1.00  0.00    -0.380 C  
HETATM   22  C   UNL     1     -10.152   5.704  69.120  1.00  0.00    -0.274 C  
HETATM   23  C   UNL     1     -11.223   5.356  70.158  1.00  0.00     0.399 C  
ENDBRANCH   8  20
BRANCH  14  24
HETATM   24  N   UNL     1      -8.863  11.948  68.552  1.00  0.00    -0.302 N  
HETATM   25  H   UNL     1      -9.468  12.537  67.979  1.00  0.00     0.000 HD 
HETATM   26  O   UNL     1      -6.879  11.544  69.542  1.00  0.00    -0.118 OA 
HETATM   27  C   UNL     1      -7.703  12.387  69.164  1.00  0.00     0.290 C  
BRANCH  27  28
HETATM   28  C   UNL     1      -7.432  13.875  69.352  1.00  0.00     0.190 C  
HETATM   29  C   UNL     1      -6.080  14.470  68.896  1.00  0.00    -0.086 C  
HETATM   30  N   UNL     1      -6.334  15.891  68.462  1.00  0.00    -0.109 NA 
HETATM   31  C   UNL     1      -6.990  15.895  67.094  1.00  0.00    -0.192 C  
HETATM   32  C   UNL     1      -5.202  16.744  68.717  1.00  0.00    -0.120 C  
HETATM   33  C   UNL     1      -7.755  17.219  66.576  1.00  0.00    -0.325 C  
HETATM   34  C   UNL     1      -9.190  16.958  66.101  1.00  0.00    -0.270 A  
HETATM   35  C   UNL     1     -10.339  17.696  65.933  1.00  0.00    -0.257 A  
HETATM   36 BR   UNL     1     -10.511  19.537  66.168  1.00  0.00    -0.605 Br 
HETATM   37  N   UNL     1     -11.392  16.851  65.658  1.00  0.00     0.434 NA 
HETATM   38  C   UNL     1     -10.971  15.539  65.644  1.00  0.00    -0.303 A  
HETATM   39  H   UNL     1     -12.351  17.155  65.490  1.00  0.00     0.000 HD 
HETATM   40  C   UNL     1     -11.637  14.302  65.623  1.00  0.00    -0.346 A  
HETATM   41  C   UNL     1     -10.852  13.133  65.709  1.00  0.00    -0.289 A  
HETATM   42  C   UNL     1      -9.480  13.201  65.899  1.00  0.00    -0.036 A  
HETATM   43  C   UNL     1      -8.914  14.455  66.109  1.00  0.00     0.080 A  
HETATM   44  C   UNL     1      -9.609  15.626  65.839  1.00  0.00    -0.385 A  
HETATM   45  C   UNL     1      -7.957  14.715  67.167  1.00  0.00    -0.184 C  
HETATM   46  C   UNL     1      -8.461  14.444  68.400  1.00  0.00    -0.165 C  
ENDBRANCH  27  28
ENDBRANCH  14  24
TORSDOF 3
ENDMDL
MODEL       79
REMARK 921   NORMALIZED FREE ENERGY PREDICTED BY IDOCK:   -4.53 KCAL/MOL
REMARK 922        TOTAL FREE ENERGY PREDICTED BY IDOCK:   -4.86 KCAL/MOL
REMARK 923 INTER-LIGAND FREE ENERGY PREDICTED BY IDOCK:   -5.27 KCAL/MOL
REMARK 924 INTRA-LIGAND FREE ENERGY PREDICTED BY IDOCK:    0.42 KCAL/MOL
REMARK 927      BINDING AFFINITY PREDICTED BY RF-SCORE:    0.00 PKD
ROOT
HETATM    1  C   UNL     1     -10.181  12.122  65.464  1.00  0.00    -0.265 C  
HETATM    2  C   UNL     1     -10.887  11.638  64.201  1.00  0.00    -0.433 C  
HETATM    3  C   UNL     1     -11.944  12.753  63.940  1.00  0.00    -0.554 C  
HETATM    4  C   UNL     1     -11.953  13.634  65.189  1.00  0.00    -0.372 C  
HETATM    5  N   UNL     1     -11.180  12.903  66.159  1.00  0.00    -0.283 N  
HETATM    6  C   UNL     1     -10.814  13.554  67.310  1.00  0.00    -0.276 C  
HETATM    7  O   UNL     1     -11.598  14.275  67.921  1.00  0.00    -0.299 OA 
HETATM    8  C   UNL     1      -9.406  13.197  67.822  1.00  0.00    -0.206 C  
HETATM    9  N   UNL     1      -8.389  12.628  66.788  1.00  0.00    -0.074 N  
HETATM   10  C   UNL     1      -5.155  11.146  69.359  1.00  0.00    -0.044 C  
HETATM   11  C   UNL     1      -7.160  12.122  67.177  1.00  0.00    -0.120 C  
HETATM   12  C   UNL     1      -6.781  12.680  70.220  1.00  0.00     0.707 C  
HETATM   13  O   UNL     1      -6.078  12.519  66.756  1.00  0.00    -0.179 OA 
HETATM   14  C   UNL     1      -7.434  10.889  68.034  1.00  0.00    -0.090 C  
HETATM   15  C   UNL     1      -9.008  11.455  66.315  1.00  0.00    -0.200 C  
HETATM   16  O   UNL     1      -8.259  10.701  65.358  1.00  0.00    -0.160 OA 
HETATM   17  H   UNL     1      -7.561  10.304  65.865  1.00  0.00     0.000 HD 
HETATM   18  C   UNL     1      -6.713  11.323  69.497  1.00  0.00    -0.128 C  
HETATM   19  O   UNL     1      -8.910  10.780  67.578  1.00  0.00    -0.129 OA 
ENDROOT
BRANCH   8  20
HETATM   20  C   UNL     1      -8.883  14.318  68.651  1.00  0.00    -0.150 C  
HETATM   21  C   UNL     1      -8.986  16.119  66.914  1.00  0.00    -0.248 C  
HETATM   22  C   UNL     1      -9.294  15.735  68.358  1.00  0.00    -0.196 C  
HETATM   23  C   UNL     1      -8.461  16.577  69.330  1.00  0.00    -0.056 C  
ENDBRANCH   8  20
BRANCH  14  24
HETATM   24  N   UNL     1      -6.998   9.512  67.847  1.00  0.00    -0.079 N  
HETATM   25  H   UNL     1      -6.315   9.217  67.149  1.00  0.00     0.000 HD 
HETATM   26  O   UNL     1      -8.662   9.038  69.292  1.00  0.00    -0.132 OA 
HETATM   27  C   UNL     1      -7.626   8.655  68.732  1.00  0.00    -0.096 C  
BRANCH  27  28
HETATM   28  C   UNL     1      -7.070   7.261  69.000  1.00  0.00    -0.080 C  
HETATM   29  C   UNL     1      -7.936   6.224  69.751  1.00  0.00    -0.118 C  
HETATM   30  N   UNL     1      -7.566   4.860  69.224  1.00  0.00    -0.060 NA 
HETATM   31  C   UNL     1      -8.200   4.653  67.861  1.00  0.00    -0.099 C  
HETATM   32  C   UNL     1      -7.687   3.841  70.233  1.00  0.00    -0.047 C  
HETATM   33  C   UNL     1      -7.643   3.493  66.886  1.00  0.00    -0.079 C  
HETATM   34  C   UNL     1      -7.285   3.988  65.479  1.00  0.00    -0.068 A  
HETATM   35  C   UNL     1      -6.481   3.568  64.444  1.00  0.00    -0.034 A  
HETATM   36 BR   UNL     1      -5.506   1.981  64.380  1.00  0.00    -0.009 Br 
HETATM   37  N   UNL     1      -6.414   4.554  63.484  1.00  0.00    -0.026 NA 
HETATM   38  C   UNL     1      -7.165   5.647  63.859  1.00  0.00    -0.054 A  
HETATM   39  H   UNL     1      -5.883   4.484  62.617  1.00  0.00     0.000 HD 
HETATM   40  C   UNL     1      -7.280   6.962  63.375  1.00  0.00    -0.070 A  
HETATM   41  C   UNL     1      -8.106   7.853  64.091  1.00  0.00    -0.093 A  
HETATM   42  C   UNL     1      -8.711   7.476  65.281  1.00  0.00     0.043 A  
HETATM   43  C   UNL     1      -8.393   6.225  65.802  1.00  0.00    -0.145 A  
HETATM   44  C   UNL     1      -7.753   5.256  65.042  1.00  0.00    -0.086 A  
HETATM   45  C   UNL     1      -8.055   6.022  67.198  1.00  0.00    -0.106 C  
HETATM   46  C   UNL     1      -6.972   6.749  67.580  1.00  0.00    -0.083 C  
ENDBRANCH  27  28
ENDBRANCH  14  24
TORSDOF 3
ENDMDL
MODEL       80
REMARK 921   NORMALIZED FREE ENERGY PREDICTED BY IDOCK:   -4.53 KCAL/MOL
REMARK 922        TOTAL FREE ENERGY PREDICTED BY IDOCK:   -4.86 KCAL/MOL
REMARK 923 INTER-LIGAND FREE ENERGY PREDICTED BY IDOCK:   -6.95 KCAL/MOL
REMARK 924 INTRA-LIGAND FREE ENERGY PREDICTED BY IDOCK:    2.09 KCAL/MOL
REMARK 927      BINDING AFFINITY PREDICTED BY RF-SCORE:    0.00 PKD
ROOT
HETATM    1  C   UNL     1      -8.681   5.114  68.206  1.00  0.00    -0.101 C  
HETATM    2  C   UNL     1      -8.829   4.652  69.653  1.00  0.00    -0.121 C  
HETATM    3  C   UNL     1      -9.118   3.128  69.508  1.00  0.00    -0.198 C  
HETATM    4  C   UNL     1      -9.380   2.881  68.023  1.00  0.00    -0.205 C  
HETATM    5  N   UNL     1      -9.505   4.196  67.449  1.00  0.00    -0.176 N  
HETATM    6  C   UNL     1      -9.510   4.302  66.081  1.00  0.00    -0.178 C  
HETATM    7  O   UNL     1     -10.147   3.524  65.377  1.00  0.00    -0.037 OA 
HETATM    8  C   UNL     1      -8.771   5.538  65.536  1.00  0.00    -0.154 C  
HETATM    9  N   UNL     1      -7.692   6.191  66.451  1.00  0.00    -0.101 N  
HETATM   10  C   UNL     1      -6.908  10.002  64.419  1.00  0.00    -0.127 C  
HETATM   11  C   UNL     1      -7.094   7.397  66.126  1.00  0.00    -0.069 C  
HETATM   12  C   UNL     1      -8.020   8.220  63.266  1.00  0.00    -0.156 C  
HETATM   13  O   UNL     1      -5.884   7.566  66.010  1.00  0.00    -0.035 OA 
HETATM   14  C   UNL     1      -8.188   8.461  66.152  1.00  0.00    -0.113 C  
HETATM   15  C   UNL     1      -8.407   6.565  67.605  1.00  0.00    -0.121 C  
HETATM   16  O   UNL     1      -7.649   7.232  68.616  1.00  0.00    -0.108 OA 
HETATM   17  H   UNL     1      -7.485   8.096  68.258  1.00  0.00     0.000 HD 
HETATM   18  C   UNL     1      -8.142   9.036  64.566  1.00  0.00    -0.143 C  
HETATM   19  O   UNL     1      -9.186   7.556  66.917  1.00  0.00    -0.136 OA 
ENDROOT
BRANCH   8  20
HETATM   20  C   UNL     1      -8.320   5.270  64.142  1.00  0.00    -0.131 C  
HETATM   21  C   UNL     1      -6.094   4.259  64.681  1.00  0.00    -0.026 C  
HETATM   22  C   UNL     1      -7.372   4.138  63.856  1.00  0.00    -0.051 C  
HETATM   23  C   UNL     1      -7.063   4.275  62.362  1.00  0.00    -0.032 C  
ENDBRANCH   8  20
BRANCH  14  24
HETATM   24  N   UNL     1      -8.279   9.680  66.942  1.00  0.00    -0.113 N  
HETATM   25  H   UNL     1      -9.103  10.281  66.977  1.00  0.00     0.000 HD 
HETATM   26  O   UNL     1      -6.076   9.345  67.279  1.00  0.00    -0.055 OA 
HETATM   27  C   UNL     1      -7.110   9.923  67.640  1.00  0.00    -0.087 C  
BRANCH  27  28
HETATM   28  C   UNL     1      -7.086  10.894  68.815  1.00  0.00    -0.083 C  
HETATM   29  C   UNL     1      -5.990  11.983  68.885  1.00  0.00    -0.060 C  
HETATM   30  N   UNL     1      -6.587  13.181  69.579  1.00  0.00    -0.077 NA 
HETATM   31  C   UNL     1      -7.499  13.922  68.618  1.00  0.00    -0.122 C  
HETATM   32  C   UNL     1      -5.605  13.908  70.340  1.00  0.00    -0.137 C  
HETATM   33  C   UNL     1      -8.586  14.969  69.193  1.00  0.00    -0.188 C  
HETATM   34  C   UNL     1     -10.014  14.712  68.696  1.00  0.00    -0.234 A  
HETATM   35  C   UNL     1     -11.289  15.015  69.114  1.00  0.00    -0.296 A  
HETATM   36 BR   UNL     1     -11.747  16.075  70.578  1.00  0.00    -0.293 Br 
HETATM   37  N   UNL     1     -12.201  14.328  68.344  1.00  0.00    -0.595 NA 
HETATM   38  C   UNL     1     -11.557  13.552  67.404  1.00  0.00    -0.356 A  
HETATM   39  H   UNL     1     -13.214  14.385  68.454  1.00  0.00     0.000 HD 
HETATM   40  C   UNL     1     -11.973  12.532  66.532  1.00  0.00    -0.367 A  
HETATM   41  C   UNL     1     -10.984  11.888  65.759  1.00  0.00    -0.359 A  
HETATM   42  C   UNL     1      -9.639  12.185  65.919  1.00  0.00    -0.226 A  
HETATM   43  C   UNL     1      -9.285  13.062  66.940  1.00  0.00    -0.236 A  
HETATM   44  C   UNL     1     -10.225  13.857  67.581  1.00  0.00    -0.242 A  
HETATM   45  C   UNL     1      -8.195  12.794  67.858  1.00  0.00    -0.168 C  
HETATM   46  C   UNL     1      -8.376  11.640  68.554  1.00  0.00    -0.140 C  
ENDBRANCH  27  28
ENDBRANCH  14  24
TORSDOF 3
ENDMDL
MODEL       81
REMARK 921   NORMALIZED FREE ENERGY PREDICTED BY IDOCK:   -4.52 KCAL/MOL
REMARK 922        TOTAL FREE ENERGY PREDICTED BY IDOCK:   -4.84 KCAL/MOL
REMARK 923 INTER-LIGAND FREE ENERGY PREDICTED BY IDOCK:   -6.94 KCAL/MOL
REMARK 924 INTRA-LIGAND FREE ENERGY PREDICTED BY IDOCK:    2.10 KCAL/MOL
REMARK 927      BINDING AFFINITY PREDICTED BY RF-SCORE:    0.00 PKD
ROOT
HETATM    1  C   UNL     1      -7.908   7.524  64.564  1.00  0.00    -0.130 C  
HETATM    2  C   UNL     1      -7.674   7.414  63.060  1.00  0.00    -0.129 C  
HETATM    3  C   UNL     1      -7.217   5.936  62.882  1.00  0.00    -0.052 C  
HETATM    4  C   UNL     1      -6.966   5.393  64.288  1.00  0.00    -0.048 C  
HETATM    5  N   UNL     1      -7.005   6.552  65.141  1.00  0.00    -0.050 N  
HETATM    6  C   UNL     1      -7.045   6.350  66.497  1.00  0.00    -0.068 C  
HETATM    7  O   UNL     1      -6.341   5.506  67.045  1.00  0.00    -0.036 OA 
HETATM    8  C   UNL     1      -7.933   7.349  67.263  1.00  0.00    -0.115 C  
HETATM    9  N   UNL     1      -9.056   8.072  66.461  1.00  0.00    -0.164 N  
HETATM   10  C   UNL     1     -10.316  11.229  69.238  1.00  0.00    -0.101 C  
HETATM   11  C   UNL     1      -9.795   9.106  67.013  1.00  0.00    -0.207 C  
HETATM   12  C   UNL     1      -9.038   9.363  70.026  1.00  0.00    -0.244 C  
HETATM   13  O   UNL     1     -11.019   9.116  67.104  1.00  0.00    -0.127 OA 
HETATM   14  C   UNL     1      -8.828  10.258  67.275  1.00  0.00    -0.132 C  
HETATM   15  C   UNL     1      -8.360   8.768  65.454  1.00  0.00    -0.151 C  
HETATM   16  O   UNL     1      -9.165   9.559  64.577  1.00  0.00    -0.338 OA 
HETATM   17  H   UNL     1      -9.434  10.300  65.108  1.00  0.00     0.000 HD 
HETATM   18  C   UNL     1      -8.977  10.456  68.944  1.00  0.00    -0.170 C  
HETATM   19  O   UNL     1      -7.716   9.656  66.380  1.00  0.00    -0.100 OA 
ENDROOT
BRANCH   8  20
HETATM   20  C   UNL     1      -8.383   6.731  68.541  1.00  0.00    -0.120 C  
HETATM   21  C   UNL     1     -10.564   5.802  67.731  1.00  0.00    -0.310 C  
HETATM   22  C   UNL     1      -9.289   5.530  68.524  1.00  0.00    -0.143 C  
HETATM   23  C   UNL     1      -9.614   5.285  70.001  1.00  0.00    -0.238 C  
ENDBRANCH   8  20
BRANCH  14  24
HETATM   24  N   UNL     1      -8.857  11.625  66.776  1.00  0.00    -0.179 N  
HETATM   25  H   UNL     1      -8.070  12.273  66.831  1.00  0.00     0.000 HD 
HETATM   26  O   UNL     1     -11.058  11.227  66.497  1.00  0.00    -0.285 OA 
HETATM   27  C   UNL     1     -10.083  11.938  66.217  1.00  0.00    -0.220 C  
BRANCH  27  28
HETATM   28  C   UNL     1     -10.240  13.141  65.296  1.00  0.00    -0.299 C  
HETATM   29  C   UNL     1     -11.614  13.840  65.177  1.00  0.00    -0.331 C  
HETATM   30  N   UNL     1     -11.357  15.301  64.910  1.00  0.00    -0.399 NA 
HETATM   31  C   UNL     1     -10.931  15.985  66.197  1.00  0.00    -0.083 C  
HETATM   32  C   UNL     1     -12.385  15.889  64.092  1.00  0.00     0.399 C  
HETATM   33  C   UNL     1     -10.190  17.418  66.134  1.00  0.00    -0.334 C  
HETATM   34  C   UNL     1      -8.866  17.462  66.908  1.00  0.00    -0.259 A  
HETATM   35  C   UNL     1      -7.721  18.226  66.890  1.00  0.00    -0.224 A  
HETATM   36 BR   UNL     1      -7.415  19.729  65.832  1.00  0.00    -0.326 Br 
HETATM   37  N   UNL     1      -6.773  17.651  67.708  1.00  0.00    -0.180 NA 
HETATM   38  C   UNL     1      -7.261  16.497  68.280  1.00  0.00    -0.159 A  
HETATM   39  H   UNL     1      -5.839  18.028  67.867  1.00  0.00     0.000 HD 
HETATM   40  C   UNL     1      -6.674  15.445  69.003  1.00  0.00    -0.128 A  
HETATM   41  C   UNL     1      -7.496  14.356  69.360  1.00  0.00    -0.022 A  
HETATM   42  C   UNL     1      -8.814  14.280  68.934  1.00  0.00    -0.022 A  
HETATM   43  C   UNL     1      -9.270  15.259  68.057  1.00  0.00    -0.188 A  
HETATM   44  C   UNL     1      -8.566  16.437  67.843  1.00  0.00    -0.175 A  
HETATM   45  C   UNL     1     -10.029  14.947  66.861  1.00  0.00    -0.245 C  
HETATM   46  C   UNL     1      -9.348  14.130  66.014  1.00  0.00    -0.108 C  
ENDBRANCH  27  28
ENDBRANCH  14  24
TORSDOF 3
ENDMDL
MODEL       82
REMARK 921   NORMALIZED FREE ENERGY PREDICTED BY IDOCK:   -4.42 KCAL/MOL
REMARK 922        TOTAL FREE ENERGY PREDICTED BY IDOCK:   -4.73 KCAL/MOL
REMARK 923 INTER-LIGAND FREE ENERGY PREDICTED BY IDOCK:   -5.57 KCAL/MOL
REMARK 924 INTRA-LIGAND FREE ENERGY PREDICTED BY IDOCK:    0.85 KCAL/MOL
REMARK 927      BINDING AFFINITY PREDICTED BY RF-SCORE:    0.00 PKD
ROOT
HETATM    1  C   UNL     1     -10.015   4.690  66.584  1.00  0.00    -0.236 C  
HETATM    2  C   UNL     1     -10.775   5.035  65.306  1.00  0.00     0.234 C  
HETATM    3  C   UNL     1     -10.654   3.731  64.462  1.00  0.00    -0.168 C  
HETATM    4  C   UNL     1      -9.631   2.850  65.179  1.00  0.00    -0.019 C  
HETATM    5  N   UNL     1      -9.035   3.711  66.167  1.00  0.00    -0.135 N  
HETATM    6  C   UNL     1      -8.241   3.134  67.127  1.00  0.00    -0.084 C  
HETATM    7  O   UNL     1      -7.424   2.261  66.849  1.00  0.00    -0.063 OA 
HETATM    8  C   UNL     1      -8.374   3.765  68.526  1.00  0.00    -0.078 C  
HETATM    9  N   UNL     1      -9.686   4.544  68.840  1.00  0.00    -0.167 N  
HETATM   10  C   UNL     1      -8.679   6.624  72.572  1.00  0.00    -0.126 C  
HETATM   11  C   UNL     1      -9.832   5.286  70.000  1.00  0.00    -0.218 C  
HETATM   12  C   UNL     1      -7.351   4.778  71.818  1.00  0.00    -0.071 C  
HETATM   13  O   UNL     1     -10.730   5.124  70.822  1.00  0.00    -0.187 OA 
HETATM   14  C   UNL     1      -8.819   6.426  69.935  1.00  0.00    -0.142 C  
HETATM   15  C   UNL     1      -9.709   5.572  67.878  1.00  0.00    -0.131 C  
HETATM   16  O   UNL     1     -10.814   6.475  67.961  1.00  0.00    -0.252 OA 
HETATM   17  H   UNL     1     -10.632   7.000  68.732  1.00  0.00     0.000 HD 
HETATM   18  C   UNL     1      -7.883   6.130  71.307  1.00  0.00    -0.111 C  
HETATM   19  O   UNL     1      -8.558   6.236  68.420  1.00  0.00    -0.114 OA 
ENDROOT
BRANCH   8  20
HETATM   20  C   UNL     1      -7.985   2.765  69.558  1.00  0.00    -0.053 C  
HETATM   21  C   UNL     1      -5.511   2.810  69.176  1.00  0.00    -0.013 C  
HETATM   22  C   UNL     1      -6.632   2.835  70.211  1.00  0.00    -0.033 C  
HETATM   23  C   UNL     1      -6.577   1.585  71.095  1.00  0.00    -0.023 C  
ENDBRANCH   8  20
BRANCH  14  24
HETATM   24  N   UNL     1      -9.035   7.865  69.986  1.00  0.00    -0.145 N  
HETATM   25  H   UNL     1      -9.944   8.303  70.137  1.00  0.00     0.000 HD 
HETATM   26  O   UNL     1      -6.891   7.973  69.300  1.00  0.00    -0.046 OA 
HETATM   27  C   UNL     1      -7.855   8.563  69.804  1.00  0.00    -0.094 C  
BRANCH  27  28
HETATM   28  C   UNL     1      -7.748  10.032  70.196  1.00  0.00    -0.158 C  
HETATM   29  C   UNL     1      -6.359  10.710  70.247  1.00  0.00    -0.141 C  
HETATM   30  N   UNL     1      -6.550  12.160  69.879  1.00  0.00    -0.007 NA 
HETATM   31  C   UNL     1      -6.743  12.282  68.379  1.00  0.00    -0.064 C  
HETATM   32  C   UNL     1      -5.608  13.016  70.553  1.00  0.00    -0.175 C  
HETATM   33  C   UNL     1      -7.385  13.629  67.761  1.00  0.00    -0.170 C  
HETATM   34  C   UNL     1      -8.581  13.374  66.835  1.00  0.00    -0.114 A  
HETATM   35  C   UNL     1      -9.662  14.090  66.375  1.00  0.00    -0.296 A  
HETATM   36 BR   UNL     1     -10.010  15.892  66.701  1.00  0.00    -0.284 Br 
HETATM   37  N   UNL     1     -10.523  13.246  65.708  1.00  0.00    -0.280 NA 
HETATM   38  C   UNL     1     -10.040  11.956  65.715  1.00  0.00    -0.241 A  
HETATM   39  H   UNL     1     -11.398  13.537  65.271  1.00  0.00     0.000 HD 
HETATM   40  C   UNL     1     -10.591  10.708  65.377  1.00  0.00    -0.185 A  
HETATM   41  C   UNL     1      -9.803   9.560  65.606  1.00  0.00    -0.343 A  
HETATM   42  C   UNL     1      -8.566   9.650  66.228  1.00  0.00    -0.137 A  
HETATM   43  C   UNL     1      -8.172  10.893  66.714  1.00  0.00    -0.140 A  
HETATM   44  C   UNL     1      -8.816  12.063  66.339  1.00  0.00    -0.126 A  
HETATM   45  C   UNL     1      -7.612  11.073  68.039  1.00  0.00    -0.092 C  
HETATM   46  C   UNL     1      -8.459  10.663  69.020  1.00  0.00    -0.148 C  
ENDBRANCH  27  28
ENDBRANCH  14  24
TORSDOF 3
ENDMDL
MODEL       83
REMARK 921   NORMALIZED FREE ENERGY PREDICTED BY IDOCK:   -4.41 KCAL/MOL
REMARK 922        TOTAL FREE ENERGY PREDICTED BY IDOCK:   -4.72 KCAL/MOL
REMARK 923 INTER-LIGAND FREE ENERGY PREDICTED BY IDOCK:   -6.95 KCAL/MOL
REMARK 924 INTRA-LIGAND FREE ENERGY PREDICTED BY IDOCK:    2.23 KCAL/MOL
REMARK 927      BINDING AFFINITY PREDICTED BY RF-SCORE:    0.00 PKD
ROOT
HETATM    1  C   UNL     1      -7.775   5.133  71.665  1.00  0.00    -0.107 C  
HETATM    2  C   UNL     1      -6.990   5.320  72.961  1.00  0.00    -0.083 C  
HETATM    3  C   UNL     1      -6.810   3.860  73.476  1.00  0.00    -0.049 C  
HETATM    4  C   UNL     1      -7.713   2.985  72.607  1.00  0.00    -0.058 C  
HETATM    5  N   UNL     1      -8.529   3.916  71.872  1.00  0.00    -0.096 N  
HETATM    6  C   UNL     1      -9.279   3.430  70.832  1.00  0.00    -0.130 C  
HETATM    7  O   UNL     1      -9.903   2.376  70.923  1.00  0.00    -0.104 OA 
HETATM    8  C   UNL     1      -9.371   4.374  69.618  1.00  0.00    -0.158 C  
HETATM    9  N   UNL     1      -8.248   5.440  69.451  1.00  0.00    -0.095 N  
HETATM   10  C   UNL     1      -9.899   8.077  66.355  1.00  0.00    -0.237 C  
HETATM   11  C   UNL     1      -8.327   6.439  68.495  1.00  0.00    -0.113 C  
HETATM   12  C   UNL     1     -10.813   5.889  66.696  1.00  0.00    -0.292 C  
HETATM   13  O   UNL     1      -7.483   6.642  67.628  1.00  0.00    -0.093 OA 
HETATM   14  C   UNL     1      -9.519   7.319  68.864  1.00  0.00    -0.143 C  
HETATM   15  C   UNL     1      -8.333   6.209  70.628  1.00  0.00    -0.126 C  
HETATM   16  O   UNL     1      -7.417   7.302  70.723  1.00  0.00    -0.077 OA 
HETATM   17  H   UNL     1      -7.749   7.943  70.105  1.00  0.00     0.000 HD 
HETATM   18  C   UNL     1     -10.492   7.167  67.493  1.00  0.00    -0.331 C  
HETATM   19  O   UNL     1      -9.623   6.745  70.299  1.00  0.00    -0.165 OA 
ENDROOT
BRANCH   8  20
HETATM   20  C   UNL     1      -9.655   3.577  68.393  1.00  0.00    -0.154 C  
HETATM   21  C   UNL     1      -7.293   2.990  67.800  1.00  0.00    -0.054 C  
HETATM   22  C   UNL     1      -8.720   2.477  67.970  1.00  0.00    -0.135 C  
HETATM   23  C   UNL     1      -9.285   2.000  66.628  1.00  0.00    -0.006 C  
ENDBRANCH   8  20
BRANCH  14  24
HETATM   24  N   UNL     1      -9.568   8.746  69.146  1.00  0.00    -0.161 N  
HETATM   25  H   UNL     1     -10.399   9.238  69.476  1.00  0.00     0.000 HD 
HETATM   26  O   UNL     1      -7.518   8.761  68.208  1.00  0.00    -0.089 OA 
HETATM   27  C   UNL     1      -8.347   9.353  68.913  1.00  0.00    -0.120 C  
BRANCH  27  28
HETATM   28  C   UNL     1      -8.032  10.727  69.492  1.00  0.00    -0.022 C  
HETATM   29  C   UNL     1      -6.608  11.311  69.345  1.00  0.00    -0.116 C  
HETATM   30  N   UNL     1      -6.741  12.810  69.253  1.00  0.00    -0.091 NA 
HETATM   31  C   UNL     1      -7.223  13.192  67.865  1.00  0.00    -0.133 C  
HETATM   32  C   UNL     1      -5.611  13.489  69.831  1.00  0.00    -0.108 C  
HETATM   33  C   UNL     1      -7.857  14.655  67.612  1.00  0.00    -0.196 C  
HETATM   34  C   UNL     1      -9.233  14.624  66.936  1.00  0.00    -0.267 A  
HETATM   35  C   UNL     1     -10.317  15.465  66.833  1.00  0.00    -0.277 A  
HETATM   36 BR   UNL     1     -10.431  17.203  67.497  1.00  0.00    -0.329 Br 
HETATM   37  N   UNL     1     -11.367  14.793  66.247  1.00  0.00    -0.345 NA 
HETATM   38  C   UNL     1     -11.008  13.495  65.953  1.00  0.00    -0.278 A  
HETATM   39  H   UNL     1     -12.283  15.199  66.057  1.00  0.00     0.000 HD 
HETATM   40  C   UNL     1     -11.724  12.353  65.555  1.00  0.00    -0.459 A  
HETATM   41  C   UNL     1     -11.010  11.142  65.432  1.00  0.00    -0.151 A  
HETATM   42  C   UNL     1      -9.670  11.059  65.780  1.00  0.00    -0.268 A  
HETATM   43  C   UNL     1      -9.077  12.180  66.354  1.00  0.00    -0.177 A  
HETATM   44  C   UNL     1      -9.678  13.430  66.308  1.00  0.00    -0.280 A  
HETATM   45  C   UNL     1      -8.246  12.105  67.539  1.00  0.00    -0.167 C  
HETATM   46  C   UNL     1      -8.909  11.584  68.605  1.00  0.00    -0.108 C  
ENDBRANCH  27  28
ENDBRANCH  14  24
TORSDOF 3
ENDMDL
MODEL       84
REMARK 921   NORMALIZED FREE ENERGY PREDICTED BY IDOCK:   -4.37 KCAL/MOL
REMARK 922        TOTAL FREE ENERGY PREDICTED BY IDOCK:   -4.67 KCAL/MOL
REMARK 923 INTER-LIGAND FREE ENERGY PREDICTED BY IDOCK:   -6.92 KCAL/MOL
REMARK 924 INTRA-LIGAND FREE ENERGY PREDICTED BY IDOCK:    2.25 KCAL/MOL
REMARK 927      BINDING AFFINITY PREDICTED BY RF-SCORE:    0.00 PKD
ROOT
HETATM    1  C   UNL     1      -9.033   7.986  72.015  1.00  0.00    -0.156 C  
HETATM    2  C   UNL     1      -8.618   8.200  73.469  1.00  0.00    -0.313 C  
HETATM    3  C   UNL     1      -8.806   6.788  74.099  1.00  0.00    -0.189 C  
HETATM    4  C   UNL     1      -9.553   5.951  73.061  1.00  0.00    -0.154 C  
HETATM    5  N   UNL     1      -9.987   6.900  72.069  1.00  0.00    -0.167 N  
HETATM    6  C   UNL     1     -10.485   6.411  70.888  1.00  0.00    -0.228 C  
HETATM    7  O   UNL     1     -11.259   5.458  70.859  1.00  0.00    -0.055 OA 
HETATM    8  C   UNL     1     -10.097   7.234  69.645  1.00  0.00    -0.194 C  
HETATM    9  N   UNL     1      -8.826   8.130  69.745  1.00  0.00    -0.142 N  
HETATM   10  C   UNL     1      -9.149  10.633  66.154  1.00  0.00    -0.190 C  
HETATM   11  C   UNL     1      -8.490   9.031  68.749  1.00  0.00    -0.131 C  
HETATM   12  C   UNL     1     -10.436   8.621  66.348  1.00  0.00     0.028 C  
HETATM   13  O   UNL     1      -7.419   9.040  68.149  1.00  0.00    -0.083 OA 
HETATM   14  C   UNL     1      -9.594  10.085  68.706  1.00  0.00    -0.168 C  
HETATM   15  C   UNL     1      -9.118   9.015  70.800  1.00  0.00    -0.245 C  
HETATM   16  O   UNL     1      -8.112   9.989  71.088  1.00  0.00    -0.155 OA 
HETATM   17  H   UNL     1      -8.163  10.602  70.364  1.00  0.00     0.000 HD 
HETATM   18  C   UNL     1     -10.162   9.921  67.126  1.00  0.00    -0.285 C  
HETATM   19  O   UNL     1     -10.173   9.674  70.083  1.00  0.00    -0.229 OA 
ENDROOT
BRANCH   8  20
HETATM   20  C   UNL     1     -10.147   6.361  68.439  1.00  0.00    -0.173 C  
HETATM   21  C   UNL     1      -7.859   5.363  68.634  1.00  0.00    -0.087 C  
HETATM   22  C   UNL     1      -9.340   5.093  68.387  1.00  0.00    -0.155 C  
HETATM   23  C   UNL     1      -9.563   4.565  66.966  1.00  0.00    -0.210 C  
ENDBRANCH   8  20
BRANCH  14  24
HETATM   24  N   UNL     1      -9.506  11.528  68.878  1.00  0.00    -0.399 N  
HETATM   25  H   UNL     1     -10.311  12.139  69.019  1.00  0.00     0.000 HD 
HETATM   26  O   UNL     1      -7.342  11.225  68.324  1.00  0.00    -0.085 OA 
HETATM   27  C   UNL     1      -8.195  11.968  68.827  1.00  0.00     0.027 C  
BRANCH  27  28
HETATM   28  C   UNL     1      -7.811  13.344  69.357  1.00  0.00     0.595 C  
HETATM   29  C   UNL     1      -6.356  13.844  69.202  1.00  0.00    -0.107 C  
HETATM   30  N   UNL     1      -6.406  15.343  69.053  1.00  0.00    -0.107 NA 
HETATM   31  C   UNL     1      -6.858  15.699  67.648  1.00  0.00    -0.176 C  
HETATM   32  C   UNL     1      -5.244  15.981  69.616  1.00  0.00    -0.117 C  
HETATM   33  C   UNL     1      -7.409  17.185  67.337  1.00  0.00    -0.176 C  
HETATM   34  C   UNL     1      -8.781  17.203  66.651  1.00  0.00    -0.281 A  
HETATM   35  C   UNL     1      -9.817  18.098  66.509  1.00  0.00    -0.362 A  
HETATM   36 BR   UNL     1      -9.841  19.862  67.108  1.00  0.00    -0.574 Br 
HETATM   37  N   UNL     1     -10.898  17.462  65.938  1.00  0.00    -0.117 NA 
HETATM   38  C   UNL     1     -10.609  16.136  65.695  1.00  0.00    -0.363 A  
HETATM   39  H   UNL     1     -11.789  17.910  65.726  1.00  0.00     0.000 HD 
HETATM   40  C   UNL     1     -11.383  15.021  65.333  1.00  0.00    -0.328 A  
HETATM   41  C   UNL     1     -10.736  13.770  65.261  1.00  0.00    -0.345 A  
HETATM   42  C   UNL     1      -9.404  13.627  65.622  1.00  0.00     0.229 A  
HETATM   43  C   UNL     1      -8.754  14.734  66.160  1.00  0.00     0.222 A  
HETATM   44  C   UNL     1      -9.286  16.013  66.064  1.00  0.00    -0.380 A  
HETATM   45  C   UNL     1      -7.936  14.658  67.354  1.00  0.00    -0.223 C  
HETATM   46  C   UNL     1      -8.634  14.213  68.433  1.00  0.00    -0.176 C  
ENDBRANCH  27  28
ENDBRANCH  14  24
TORSDOF 3
ENDMDL
MODEL       85
REMARK 921   NORMALIZED FREE ENERGY PREDICTED BY IDOCK:   -3.84 KCAL/MOL
REMARK 922        TOTAL FREE ENERGY PREDICTED BY IDOCK:   -4.05 KCAL/MOL
REMARK 923 INTER-LIGAND FREE ENERGY PREDICTED BY IDOCK:   -4.06 KCAL/MOL
REMARK 924 INTRA-LIGAND FREE ENERGY PREDICTED BY IDOCK:    0.02 KCAL/MOL
REMARK 927      BINDING AFFINITY PREDICTED BY RF-SCORE:    0.00 PKD
ROOT
HETATM    1  C   UNL     1     -13.017  13.481  71.604  1.00  0.00    -0.359 C  
HETATM    2  C   UNL     1     -13.910  14.161  72.638  1.00  0.00    -0.504 C  
HETATM    3  C   UNL     1     -13.844  15.662  72.226  1.00  0.00    -0.575 C  
HETATM    4  C   UNL     1     -12.734  15.771  71.182  1.00  0.00    -0.431 C  
HETATM    5  N   UNL     1     -12.061  14.499  71.228  1.00  0.00    -0.345 N  
HETATM    6  C   UNL     1     -11.162  14.212  70.232  1.00  0.00     0.061 C  
HETATM    7  O   UNL     1     -10.357  15.048  69.829  1.00  0.00    -0.222 OA 
HETATM    8  C   UNL     1     -11.168  12.742  69.773  1.00  0.00     0.080 C  
HETATM    9  N   UNL     1     -12.460  11.912  70.039  1.00  0.00    -0.088 N  
HETATM   10  C   UNL     1     -11.131   7.808  69.228  1.00  0.00     0.095 C  
HETATM   11  C   UNL     1     -12.506  10.546  69.820  1.00  0.00    -0.064 C  
HETATM   12  C   UNL     1      -9.843   9.674  68.454  1.00  0.00    -0.170 C  
HETATM   13  O   UNL     1     -13.311   9.985  69.082  1.00  0.00     1.682 OA 
HETATM   14  C   UNL     1     -11.531   9.900  70.802  1.00  0.00    -0.354 C  
HETATM   15  C   UNL     1     -12.604  11.949  71.439  1.00  0.00    -0.240 C  
HETATM   16  O   UNL     1     -13.715  11.222  71.967  1.00  0.00    -0.274 OA 
HETATM   17  H   UNL     1     -13.469  10.310  71.870  1.00  0.00     0.000 HD 
HETATM   18  C   UNL     1     -10.455   9.128  69.756  1.00  0.00    -0.234 C  
HETATM   19  O   UNL     1     -11.420  11.173  71.677  1.00  0.00     1.047 OA 
ENDROOT
BRANCH   8  20
HETATM   20  C   UNL     1     -10.653  12.657  68.378  1.00  0.00    -0.258 C  
HETATM   21  C   UNL     1     -12.596  13.735  67.222  1.00  0.00     0.217 C  
HETATM   22  C   UNL     1     -11.077  13.671  67.351  1.00  0.00    -0.299 C  
HETATM   23  C   UNL     1     -10.446  13.171  66.048  1.00  0.00    -0.291 C  
ENDBRANCH   8  20
BRANCH  14  24
HETATM   24  N   UNL     1     -11.775   8.896  71.827  1.00  0.00    -0.337 N  
HETATM   25  H   UNL     1     -12.703   8.599  72.130  1.00  0.00     0.000 HD 
HETATM   26  O   UNL     1      -9.551   9.041  72.163  1.00  0.00    -0.312 OA 
HETATM   27  C   UNL     1     -10.592   8.394  72.339  1.00  0.00    -0.335 C  
BRANCH  27  28
HETATM   28  C   UNL     1     -10.571   7.086  73.121  1.00  0.00    -0.350 C  
HETATM   29  C   UNL     1     -11.592   5.976  72.781  1.00  0.00    -0.158 C  
HETATM   30  N   UNL     1     -10.929   4.651  73.059  1.00  0.00    -0.247 NA 
HETATM   31  C   UNL     1      -9.952   4.328  71.943  1.00  0.00    -0.185 C  
HETATM   32  C   UNL     1     -11.873   3.656  73.496  1.00  0.00     0.261 C  
HETATM   33  C   UNL     1      -8.808   3.213  72.178  1.00  0.00    -0.119 C  
HETATM   34  C   UNL     1      -7.392   3.704  71.852  1.00  0.00    -0.055 A  
HETATM   35  C   UNL     1      -6.106   3.351  72.195  1.00  0.00    -0.013 A  
HETATM   36 BR   UNL     1      -5.604   1.891  73.238  1.00  0.00     0.000 Br 
HETATM   37  N   UNL     1      -5.229   4.308  71.733  1.00  0.00     0.000 NA 
HETATM   38  C   UNL     1      -5.907   5.315  71.081  1.00  0.00    -0.020 A  
HETATM   39  H   UNL     1      -4.217   4.276  71.857  1.00  0.00     0.000 HD 
HETATM   40  C   UNL     1      -5.545   6.591  70.616  1.00  0.00    -0.023 A  
HETATM   41  C   UNL     1      -6.561   7.399  70.064  1.00  0.00    -0.046 A  
HETATM   42  C   UNL     1      -7.886   6.989  70.063  1.00  0.00    -0.113 A  
HETATM   43  C   UNL     1      -8.199   5.801  70.718  1.00  0.00    -0.123 A  
HETATM   44  C   UNL     1      -7.219   4.893  71.094  1.00  0.00    -0.056 A  
HETATM   45  C   UNL     1      -9.320   5.683  71.630  1.00  0.00    -0.164 C  
HETATM   46  C   UNL     1      -9.229   6.546  72.677  1.00  0.00    -0.141 C  
ENDBRANCH  27  28
ENDBRANCH  14  24
TORSDOF 3
ENDMDL
MODEL       86
REMARK 921   NORMALIZED FREE ENERGY PREDICTED BY IDOCK:   -3.63 KCAL/MOL
REMARK 922        TOTAL FREE ENERGY PREDICTED BY IDOCK:   -3.80 KCAL/MOL
REMARK 923 INTER-LIGAND FREE ENERGY PREDICTED BY IDOCK:   -6.86 KCAL/MOL
REMARK 924 INTRA-LIGAND FREE ENERGY PREDICTED BY IDOCK:    3.06 KCAL/MOL
REMARK 927      BINDING AFFINITY PREDICTED BY RF-SCORE:    0.00 PKD
ROOT
HETATM    1  C   UNL     1      -9.753   4.457  65.523  1.00  0.00    -0.200 C  
HETATM    2  C   UNL     1     -10.982   4.420  64.618  1.00  0.00     0.018 C  
HETATM    3  C   UNL     1     -10.733   3.158  63.739  1.00  0.00    -0.202 C  
HETATM    4  C   UNL     1      -9.292   2.728  64.006  1.00  0.00    -0.120 C  
HETATM    5  N   UNL     1      -8.714   3.821  64.744  1.00  0.00    -0.112 N  
HETATM    6  C   UNL     1      -7.489   3.622  65.331  1.00  0.00    -0.077 C  
HETATM    7  O   UNL     1      -6.579   3.043  64.745  1.00  0.00    -0.037 OA 
HETATM    8  C   UNL     1      -7.327   4.296  66.707  1.00  0.00    -0.080 C  
HETATM    9  N   UNL     1      -8.625   4.627  67.502  1.00  0.00    -0.104 N  
HETATM   10  C   UNL     1      -7.136   7.243  70.696  1.00  0.00    -0.065 C  
HETATM   11  C   UNL     1      -8.595   5.380  68.664  1.00  0.00    -0.095 C  
HETATM   12  C   UNL     1      -5.618   5.874  69.445  1.00  0.00    -0.012 C  
HETATM   13  O   UNL     1      -9.036   5.007  69.747  1.00  0.00    -0.106 OA 
HETATM   14  C   UNL     1      -8.117   6.778  68.281  1.00  0.00    -0.115 C  
HETATM   15  C   UNL     1      -9.329   5.501  66.652  1.00  0.00    -0.141 C  
HETATM   16  O   UNL     1     -10.569   5.997  67.161  1.00  0.00    -0.231 OA 
HETATM   17  H   UNL     1     -10.317   6.619  67.834  1.00  0.00     0.000 HD 
HETATM   18  C   UNL     1      -6.717   6.927  69.212  1.00  0.00    -0.050 C  
HETATM   19  O   UNL     1      -8.357   6.551  66.767  1.00  0.00    -0.109 OA 
ENDROOT
BRANCH   8  20
HETATM   20  C   UNL     1      -6.288   3.573  67.491  1.00  0.00    -0.037 C  
HETATM   21  C   UNL     1      -7.793   1.936  68.643  1.00  0.00    -0.054 C  
HETATM   22  C   UNL     1      -6.490   2.132  67.872  1.00  0.00    -0.029 C  
HETATM   23  C   UNL     1      -5.285   1.805  68.758  1.00  0.00    -0.012 C  
ENDBRANCH   8  20
BRANCH  14  24
HETATM   24  N   UNL     1      -8.772   8.065  68.461  1.00  0.00    -0.131 N  
HETATM   25  H   UNL     1      -8.397   8.952  68.125  1.00  0.00     0.000 HD 
HETATM   26  O   UNL     1     -10.169   6.901  69.794  1.00  0.00    -0.188 OA 
HETATM   27  C   UNL     1      -9.968   7.936  69.144  1.00  0.00    -0.184 C  
BRANCH  27  28
HETATM   28  C   UNL     1     -11.009   9.049  69.117  1.00  0.00    -0.025 C  
HETATM   29  C   UNL     1     -10.906  10.216  70.126  1.00  0.00    -0.311 C  
HETATM   30  N   UNL     1     -11.462  11.446  69.453  1.00  0.00    -0.282 NA 
HETATM   31  C   UNL     1     -10.444  11.987  68.465  1.00  0.00    -0.229 C  
HETATM   32  C   UNL     1     -12.093  12.336  70.392  1.00  0.00    -0.300 C  
HETATM   33  C   UNL     1     -10.916  13.015  67.313  1.00  0.00    -0.288 C  
HETATM   34  C   UNL     1     -10.501  12.590  65.899  1.00  0.00    -0.289 A  
HETATM   35  C   UNL     1     -10.917  12.849  64.613  1.00  0.00    -0.332 A  
HETATM   36 BR   UNL     1     -12.248  14.051  64.105  1.00  0.00    -0.354 Br 
HETATM   37  N   UNL     1     -10.269  12.002  63.741  1.00  0.00    -0.390 NA 
HETATM   38  C   UNL     1      -9.415  11.163  64.423  1.00  0.00    -0.220 A  
HETATM   39  H   UNL     1     -10.402  11.997  62.730  1.00  0.00     0.000 HD 
HETATM   40  C   UNL     1      -8.693  10.011  64.069  1.00  0.00    -0.222 A  
HETATM   41  C   UNL     1      -7.977   9.348  65.088  1.00  0.00    -0.116 A  
HETATM   42  C   UNL     1      -8.055   9.763  66.409  1.00  0.00    -0.116 A  
HETATM   43  C   UNL     1      -8.945  10.788  66.716  1.00  0.00    -0.157 A  
HETATM   44  C   UNL     1      -9.510  11.586  65.731  1.00  0.00    -0.255 A  
HETATM   45  C   UNL     1      -9.856  10.723  67.843  1.00  0.00    -0.185 C  
HETATM   46  C   UNL     1     -10.697   9.657  67.768  1.00  0.00    -0.316 C  
ENDBRANCH  27  28
ENDBRANCH  14  24
TORSDOF 3
ENDMDL
MODEL       87
REMARK 921   NORMALIZED FREE ENERGY PREDICTED BY IDOCK:   -3.61 KCAL/MOL
REMARK 922        TOTAL FREE ENERGY PREDICTED BY IDOCK:   -3.77 KCAL/MOL
REMARK 923 INTER-LIGAND FREE ENERGY PREDICTED BY IDOCK:   -3.67 KCAL/MOL
REMARK 924 INTRA-LIGAND FREE ENERGY PREDICTED BY IDOCK:   -0.10 KCAL/MOL
REMARK 927      BINDING AFFINITY PREDICTED BY RF-SCORE:    0.00 PKD
ROOT
HETATM    1  C   UNL     1     -11.478   8.064  71.036  1.00  0.00    -0.279 C  
HETATM    2  C   UNL     1     -12.756   8.642  71.637  1.00  0.00    -0.379 C  
HETATM    3  C   UNL     1     -13.789   7.493  71.439  1.00  0.00    -0.439 C  
HETATM    4  C   UNL     1     -13.121   6.471  70.520  1.00  0.00     1.365 C  
HETATM    5  N   UNL     1     -11.942   7.136  70.029  1.00  0.00    -0.003 N  
HETATM    6  C   UNL     1     -11.011   6.380  69.361  1.00  0.00    -0.359 C  
HETATM    7  O   UNL     1     -11.339   5.538  68.530  1.00  0.00     0.338 OA 
HETATM    8  C   UNL     1      -9.549   6.775  69.646  1.00  0.00    -0.148 C  
HETATM    9  N   UNL     1      -9.256   7.535  70.974  1.00  0.00    -0.152 N  
HETATM   10  C   UNL     1      -5.138   8.930  70.376  1.00  0.00    -0.021 C  
HETATM   11  C   UNL     1      -8.011   8.078  71.243  1.00  0.00    -0.093 C  
HETATM   12  C   UNL     1      -6.040   7.191  68.997  1.00  0.00    -0.023 C  
HETATM   13  O   UNL     1      -7.334   7.813  72.231  1.00  0.00    -0.072 OA 
HETATM   14  C   UNL     1      -7.770   9.178  70.212  1.00  0.00    -0.113 C  
HETATM   15  C   UNL     1     -10.028   8.708  70.870  1.00  0.00    -0.206 C  
HETATM   16  O   UNL     1      -9.917   9.622  71.963  1.00  0.00     0.273 OA 
HETATM   17  H   UNL     1      -9.054  10.005  71.864  1.00  0.00     0.000 HD 
HETATM   18  C   UNL     1      -6.371   8.626  69.446  1.00  0.00    -0.041 C  
HETATM   19  O   UNL     1      -9.256   9.233  69.779  1.00  0.00    -0.158 OA 
ENDROOT
BRANCH   8  20
HETATM   20  C   UNL     1      -8.664   5.604  69.394  1.00  0.00    -0.109 C  
HETATM   21  C   UNL     1      -8.950   4.466  71.606  1.00  0.00    -0.160 C  
HETATM   22  C   UNL     1      -8.921   4.295  70.090  1.00  0.00    -0.144 C  
HETATM   23  C   UNL     1      -7.744   3.409  69.670  1.00  0.00    -0.050 C  
ENDBRANCH   8  20
BRANCH  14  24
HETATM   24  N   UNL     1      -7.500  10.594  70.411  1.00  0.00    -0.031 N  
HETATM   25  H   UNL     1      -7.371  11.031  71.324  1.00  0.00     0.000 HD 
HETATM   26  O   UNL     1      -7.937  10.746  68.205  1.00  0.00    -0.107 OA 
HETATM   27  C   UNL     1      -7.442  11.275  69.208  1.00  0.00    -0.040 C  
BRANCH  27  28
HETATM   28  C   UNL     1      -6.800  12.655  69.121  1.00  0.00    -0.057 C  
HETATM   29  C   UNL     1      -6.088  13.086  67.818  1.00  0.00    -0.151 C  
HETATM   30  N   UNL     1      -6.254  14.579  67.684  1.00  0.00    -0.305 NA 
HETATM   31  C   UNL     1      -7.664  14.893  67.218  1.00  0.00    -0.197 C  
HETATM   32  C   UNL     1      -5.129  15.190  67.027  1.00  0.00     0.967 C  
HETATM   33  C   UNL     1      -8.253  16.386  67.398  1.00  0.00    -0.178 C  
HETATM   34  C   UNL     1      -9.607  16.433  68.116  1.00  0.00    -0.227 A  
HETATM   35  C   UNL     1     -10.334  17.363  68.823  1.00  0.00    -0.357 A  
HETATM   36 BR   UNL     1      -9.878  19.151  69.085  1.00  0.00    -0.255 Br 
HETATM   37  N   UNL     1     -11.419  16.749  69.410  1.00  0.00    -0.160 NA 
HETATM   38  C   UNL     1     -11.436  15.404  69.112  1.00  0.00    -0.333 A  
HETATM   39  H   UNL     1     -12.114  17.225  69.985  1.00  0.00     0.000 HD 
HETATM   40  C   UNL     1     -12.168  14.308  69.599  1.00  0.00    -0.371 A  
HETATM   41  C   UNL     1     -11.838  13.028  69.104  1.00  0.00    -0.360 A  
HETATM   42  C   UNL     1     -10.770  12.845  68.239  1.00  0.00    -0.261 A  
HETATM   43  C   UNL     1      -9.967  13.946  67.956  1.00  0.00    -0.241 A  
HETATM   44  C   UNL     1     -10.367  15.241  68.258  1.00  0.00    -0.234 A  
HETATM   45  C   UNL     1      -8.518  13.887  67.986  1.00  0.00    -0.173 C  
HETATM   46  C   UNL     1      -8.040  13.518  69.204  1.00  0.00     0.374 C  
ENDBRANCH  27  28
ENDBRANCH  14  24
TORSDOF 3
ENDMDL
MODEL       88
REMARK 921   NORMALIZED FREE ENERGY PREDICTED BY IDOCK:   -3.56 KCAL/MOL
REMARK 922        TOTAL FREE ENERGY PREDICTED BY IDOCK:   -3.72 KCAL/MOL
REMARK 923 INTER-LIGAND FREE ENERGY PREDICTED BY IDOCK:   -4.50 KCAL/MOL
REMARK 924 INTRA-LIGAND FREE ENERGY PREDICTED BY IDOCK:    0.78 KCAL/MOL
REMARK 927      BINDING AFFINITY PREDICTED BY RF-SCORE:    0.00 PKD
ROOT
HETATM    1  C   UNL     1      -8.080   6.933  65.790  1.00  0.00    -0.123 C  
HETATM    2  C   UNL     1      -8.032   7.290  64.307  1.00  0.00    -0.093 C  
HETATM    3  C   UNL     1      -7.676   5.933  63.630  1.00  0.00    -0.099 C  
HETATM    4  C   UNL     1      -7.288   4.980  64.759  1.00  0.00    -0.064 C  
HETATM    5  N   UNL     1      -7.165   5.820  65.922  1.00  0.00    -0.074 N  
HETATM    6  C   UNL     1      -7.055   5.209  67.146  1.00  0.00    -0.069 C  
HETATM    7  O   UNL     1      -6.336   4.229  67.315  1.00  0.00    -0.038 OA 
HETATM    8  C   UNL     1      -7.793   5.935  68.287  1.00  0.00    -0.105 C  
HETATM    9  N   UNL     1      -8.964   6.884  67.896  1.00  0.00    -0.122 N  
HETATM   10  C   UNL     1      -9.720   9.046  71.640  1.00  0.00    -0.347 C  
HETATM   11  C   UNL     1      -9.577   7.706  68.826  1.00  0.00    -0.153 C  
HETATM   12  C   UNL     1      -8.456   7.011  71.650  1.00  0.00    -0.115 C  
HETATM   13  O   UNL     1     -10.780   7.704  69.073  1.00  0.00    -0.202 OA 
HETATM   14  C   UNL     1      -8.528   8.709  69.299  1.00  0.00    -0.123 C  
HETATM   15  C   UNL     1      -8.357   7.847  67.067  1.00  0.00    -0.117 C  
HETATM   16  O   UNL     1      -9.218   8.881  66.584  1.00  0.00    -0.151 OA 
HETATM   17  H   UNL     1      -9.384   9.425  67.345  1.00  0.00     0.000 HD 
HETATM   18  C   UNL     1      -8.468   8.384  70.954  1.00  0.00    -0.158 C  
HETATM   19  O   UNL     1      -7.563   8.398  68.128  1.00  0.00    -0.095 OA 
ENDROOT
BRANCH   8  20
HETATM   20  C   UNL     1      -8.120   4.958  69.363  1.00  0.00    -0.078 C  
HETATM   21  C   UNL     1     -10.208   4.013  68.355  1.00  0.00     0.448 C  
HETATM   22  C   UNL     1      -8.881   3.701  69.040  1.00  0.00    -0.156 C  
HETATM   23  C   UNL     1      -9.120   3.046  70.404  1.00  0.00    -0.192 C  
ENDBRANCH   8  20
BRANCH  14  24
HETATM   24  N   UNL     1      -8.545  10.164  69.248  1.00  0.00    -0.163 N  
HETATM   25  H   UNL     1      -9.379  10.733  69.390  1.00  0.00     0.000 HD 
HETATM   26  O   UNL     1      -6.433   9.926  68.498  1.00  0.00    -0.050 OA 
HETATM   27  C   UNL     1      -7.288  10.678  68.982  1.00  0.00    -0.108 C  
BRANCH  27  28
HETATM   28  C   UNL     1      -6.967  12.142  69.260  1.00  0.00    -0.010 C  
HETATM   29  C   UNL     1      -5.957  12.887  68.357  1.00  0.00    -0.074 C  
HETATM   30  N   UNL     1      -6.381  14.333  68.301  1.00  0.00    -0.106 NA 
HETATM   31  C   UNL     1      -7.573  14.476  67.373  1.00  0.00    -0.184 C  
HETATM   32  C   UNL     1      -5.256  15.220  68.165  1.00  0.00    -0.122 C  
HETATM   33  C   UNL     1      -8.493  15.802  67.450  1.00  0.00    -0.191 C  
HETATM   34  C   UNL     1      -9.989  15.507  67.614  1.00  0.00    -0.233 A  
HETATM   35  C   UNL     1     -11.097  16.178  68.078  1.00  0.00    -0.317 A  
HETATM   36 BR   UNL     1     -11.153  17.953  68.644  1.00  0.00     0.829 Br 
HETATM   37  N   UNL     1     -12.160  15.306  68.164  1.00  0.00    -0.470 NA 
HETATM   38  C   UNL     1     -11.784  14.042  67.766  1.00  0.00    -0.368 A  
HETATM   39  H   UNL     1     -13.096  15.562  68.479  1.00  0.00     0.000 HD 
HETATM   40  C   UNL     1     -12.388  12.775  67.849  1.00  0.00     0.276 A  
HETATM   41  C   UNL     1     -11.641  11.664  67.404  1.00  0.00    -0.330 A  
HETATM   42  C   UNL     1     -10.326  11.802  66.985  1.00  0.00    -0.243 A  
HETATM   43  C   UNL     1      -9.730  13.052  67.118  1.00  0.00    -0.230 A  
HETATM   44  C   UNL     1     -10.477  14.197  67.360  1.00  0.00    -0.271 A  
HETATM   45  C   UNL     1      -8.405  13.232  67.679  1.00  0.00    -0.181 C  
HETATM   46  C   UNL     1      -8.313  12.761  68.951  1.00  0.00     0.276 C  
ENDBRANCH  27  28
ENDBRANCH  14  24
TORSDOF 3
ENDMDL
MODEL       89
REMARK 921   NORMALIZED FREE ENERGY PREDICTED BY IDOCK:   -3.20 KCAL/MOL
REMARK 922        TOTAL FREE ENERGY PREDICTED BY IDOCK:   -3.30 KCAL/MOL
REMARK 923 INTER-LIGAND FREE ENERGY PREDICTED BY IDOCK:   -5.87 KCAL/MOL
REMARK 924 INTRA-LIGAND FREE ENERGY PREDICTED BY IDOCK:    2.58 KCAL/MOL
REMARK 927      BINDING AFFINITY PREDICTED BY RF-SCORE:    0.00 PKD
ROOT
HETATM    1  C   UNL     1      -6.544   7.451  64.366  1.00  0.00    -0.040 C  
HETATM    2  C   UNL     1      -5.631   8.501  63.738  1.00  0.00    -0.066 C  
HETATM    3  C   UNL     1      -5.312   7.897  62.338  1.00  0.00    -0.060 C  
HETATM    4  C   UNL     1      -5.828   6.459  62.364  1.00  0.00    -0.027 C  
HETATM    5  N   UNL     1      -6.142   6.207  63.747  1.00  0.00    -0.022 N  
HETATM    6  C   UNL     1      -6.850   5.071  64.048  1.00  0.00    -0.047 C  
HETATM    7  O   UNL     1      -6.594   3.993  63.520  1.00  0.00    -0.032 OA 
HETATM    8  C   UNL     1      -7.879   5.245  65.181  1.00  0.00    -0.093 C  
HETATM    9  N   UNL     1      -8.392   6.687  65.470  1.00  0.00    -0.145 N  
HETATM   10  C   UNL     1     -10.470   6.199  69.305  1.00  0.00    -0.314 C  
HETATM   11  C   UNL     1      -9.185   6.971  66.569  1.00  0.00    -0.164 C  
HETATM   12  C   UNL     1      -9.942   4.287  67.962  1.00  0.00    -0.040 C  
HETATM   13  O   UNL     1     -10.293   7.497  66.513  1.00  0.00    -0.204 OA 
HETATM   14  C   UNL     1      -8.341   6.701  67.813  1.00  0.00    -0.122 C  
HETATM   15  C   UNL     1      -7.226   7.400  65.807  1.00  0.00    -0.066 C  
HETATM   16  O   UNL     1      -7.418   8.772  66.158  1.00  0.00    -0.088 OA 
HETATM   17  H   UNL     1      -7.824   8.742  67.017  1.00  0.00     0.000 HD 
HETATM   18  C   UNL     1      -9.249   5.510  68.590  1.00  0.00    -0.140 C  
HETATM   19  O   UNL     1      -7.011   6.663  67.020  1.00  0.00    -0.066 OA 
ENDROOT
BRANCH   8  20
HETATM   20  C   UNL     1      -8.953   4.223  65.033  1.00  0.00    -0.141 C  
HETATM   21  C   UNL     1      -9.749   4.879  62.751  1.00  0.00     0.282 C  
HETATM   22  C   UNL     1      -9.346   3.728  63.668  1.00  0.00    -0.130 C  
HETATM   23  C   UNL     1     -10.540   2.806  63.933  1.00  0.00    -0.077 C  
ENDBRANCH   8  20
BRANCH  14  24
HETATM   24  N   UNL     1      -7.974   7.599  68.899  1.00  0.00    -0.123 N  
HETATM   25  H   UNL     1      -7.292   7.374  69.623  1.00  0.00     0.000 HD 
HETATM   26  O   UNL     1      -9.693   8.842  68.135  1.00  0.00    -0.150 OA 
HETATM   27  C   UNL     1      -8.667   8.794  68.826  1.00  0.00    -0.137 C  
BRANCH  27  28
HETATM   28  C   UNL     1      -8.191  10.022  69.595  1.00  0.00    -0.185 C  
HETATM   29  C   UNL     1      -6.694  10.409  69.565  1.00  0.00    -0.081 C  
HETATM   30  N   UNL     1      -6.613  11.910  69.674  1.00  0.00    -0.099 NA 
HETATM   31  C   UNL     1      -6.975  12.536  68.339  1.00  0.00    -0.096 C  
HETATM   32  C   UNL     1      -5.426  12.338  70.368  1.00  0.00    -0.150 C  
HETATM   33  C   UNL     1      -7.387  14.096  68.272  1.00  0.00    -0.120 C  
HETATM   34  C   UNL     1      -8.723  14.352  67.563  1.00  0.00    -0.203 A  
HETATM   35  C   UNL     1      -9.674  15.346  67.548  1.00  0.00    -0.208 A  
HETATM   36 BR   UNL     1      -9.575  16.980  68.440  1.00  0.00    -0.287 Br 
HETATM   37  N   UNL     1     -10.780  14.914  66.849  1.00  0.00    -0.302 NA 
HETATM   38  C   UNL     1     -10.592  13.628  66.390  1.00  0.00    -0.284 A  
HETATM   39  H   UNL     1     -11.621  15.469  66.693  1.00  0.00     0.000 HD 
HETATM   40  C   UNL     1     -11.442  12.663  65.823  1.00  0.00    -0.399 A  
HETATM   41  C   UNL     1     -10.898  11.389  65.555  1.00  0.00    -0.282 A  
HETATM   42  C   UNL     1      -9.599  11.069  65.922  1.00  0.00    -0.255 A  
HETATM   43  C   UNL     1      -8.883  12.008  66.658  1.00  0.00    -0.191 A  
HETATM   44  C   UNL     1      -9.302  13.327  66.768  1.00  0.00    -0.254 A  
HETATM   45  C   UNL     1      -8.123  11.660  67.843  1.00  0.00    -0.138 C  
HETATM   46  C   UNL     1      -8.900  11.104  68.811  1.00  0.00    -0.128 C  
ENDBRANCH  27  28
ENDBRANCH  14  24
TORSDOF 3
ENDMDL
MODEL       90
REMARK 921   NORMALIZED FREE ENERGY PREDICTED BY IDOCK:   -3.12 KCAL/MOL
REMARK 922        TOTAL FREE ENERGY PREDICTED BY IDOCK:   -3.20 KCAL/MOL
REMARK 923 INTER-LIGAND FREE ENERGY PREDICTED BY IDOCK:   -6.59 KCAL/MOL
REMARK 924 INTRA-LIGAND FREE ENERGY PREDICTED BY IDOCK:    3.39 KCAL/MOL
REMARK 927      BINDING AFFINITY PREDICTED BY RF-SCORE:    0.00 PKD
ROOT
HETATM    1  C   UNL     1      -6.436   7.756  71.838  1.00  0.00    -0.043 C  
HETATM    2  C   UNL     1      -5.859   9.082  72.326  1.00  0.00    -0.063 C  
HETATM    3  C   UNL     1      -5.427   8.761  73.788  1.00  0.00    -0.107 C  
HETATM    4  C   UNL     1      -6.017   7.390  74.117  1.00  0.00    -0.072 C  
HETATM    5  N   UNL     1      -6.928   7.114  73.037  1.00  0.00    -0.069 N  
HETATM    6  C   UNL     1      -7.436   5.843  72.935  1.00  0.00    -0.095 C  
HETATM    7  O   UNL     1      -7.824   5.222  73.920  1.00  0.00    -0.100 OA 
HETATM    8  C   UNL     1      -7.594   5.336  71.489  1.00  0.00    -0.102 C  
HETATM    9  N   UNL     1      -6.716   6.009  70.392  1.00  0.00    -0.051 N  
HETATM   10  C   UNL     1      -8.544   4.537  66.683  1.00  0.00    -0.111 C  
HETATM   11  C   UNL     1      -6.903   5.745  69.046  1.00  0.00    -0.062 C  
HETATM   12  C   UNL     1      -8.996   3.451  68.771  1.00  0.00    -0.183 C  
HETATM   13  O   UNL     1      -6.032   5.324  68.291  1.00  0.00    -0.020 OA 
HETATM   14  C   UNL     1      -8.291   6.263  68.675  1.00  0.00    -0.112 C  
HETATM   15  C   UNL     1      -7.095   7.365  70.439  1.00  0.00    -0.064 C  
HETATM   16  O   UNL     1      -6.453   8.221  69.492  1.00  0.00    -0.037 OA 
HETATM   17  H   UNL     1      -6.846   7.988  68.659  1.00  0.00     0.000 HD 
HETATM   18  C   UNL     1      -9.050   4.855  68.139  1.00  0.00    -0.134 C  
HETATM   19  O   UNL     1      -8.426   7.108  69.966  1.00  0.00    -0.136 OA 
ENDROOT
BRANCH   8  20
HETATM   20  C   UNL     1      -7.562   3.848  71.482  1.00  0.00    -0.060 C  
HETATM   21  C   UNL     1      -5.151   3.546  72.087  1.00  0.00     0.000 C  
HETATM   22  C   UNL     1      -6.587   3.106  72.354  1.00  0.00    -0.015 C  
HETATM   23  C   UNL     1      -6.781   1.636  71.968  1.00  0.00    -0.018 C  
ENDBRANCH   8  20
BRANCH  14  24
HETATM   24  N   UNL     1      -8.677   7.248  67.675  1.00  0.00    -0.125 N  
HETATM   25  H   UNL     1      -9.640   7.525  67.484  1.00  0.00     0.000 HD 
HETATM   26  O   UNL     1      -6.509   7.135  67.069  1.00  0.00    -0.053 OA 
HETATM   27  C   UNL     1      -7.575   7.761  67.014  1.00  0.00    -0.100 C  
BRANCH  27  28
HETATM   28  C   UNL     1      -7.674   9.057  66.218  1.00  0.00    -0.095 C  
HETATM   29  C   UNL     1      -8.334   9.047  64.820  1.00  0.00    -0.173 C  
HETATM   30  N   UNL     1      -8.989  10.390  64.619  1.00  0.00    -0.195 NA 
HETATM   31  C   UNL     1     -10.280  10.448  65.414  1.00  0.00    -0.259 C  
HETATM   32  C   UNL     1      -8.979  10.795  63.238  1.00  0.00    -0.220 C  
HETATM   33  C   UNL     1     -10.961  11.878  65.733  1.00  0.00    -0.359 C  
HETATM   34  C   UNL     1     -11.266  12.099  67.219  1.00  0.00    -0.366 A  
HETATM   35  C   UNL     1     -11.470  13.177  68.050  1.00  0.00    -0.311 A  
HETATM   36 BR   UNL     1     -11.549  14.966  67.535  1.00  0.00    -0.316 Br 
HETATM   37  N   UNL     1     -11.507  12.748  69.359  1.00  0.00    -0.373 NA 
HETATM   38  C   UNL     1     -11.324  11.384  69.428  1.00  0.00    -0.297 A  
HETATM   39  H   UNL     1     -11.649  13.356  70.165  1.00  0.00     0.000 HD 
HETATM   40  C   UNL     1     -11.074  10.487  70.481  1.00  0.00    -0.267 A  
HETATM   41  C   UNL     1     -10.846   9.135  70.149  1.00  0.00    -0.269 A  
HETATM   42  C   UNL     1     -10.780   8.720  68.826  1.00  0.00    -0.111 A  
HETATM   43  C   UNL     1     -10.840   9.696  67.836  1.00  0.00    -0.272 A  
HETATM   44  C   UNL     1     -11.256  10.991  68.109  1.00  0.00    -0.364 A  
HETATM   45  C   UNL     1      -9.924   9.727  66.713  1.00  0.00    -0.278 C  
HETATM   46  C   UNL     1      -8.626   9.829  67.105  1.00  0.00    -0.129 C  
ENDBRANCH  27  28
ENDBRANCH  14  24
TORSDOF 3
ENDMDL
MODEL       91
REMARK 921   NORMALIZED FREE ENERGY PREDICTED BY IDOCK:   -3.06 KCAL/MOL
REMARK 922        TOTAL FREE ENERGY PREDICTED BY IDOCK:   -3.13 KCAL/MOL
REMARK 923 INTER-LIGAND FREE ENERGY PREDICTED BY IDOCK:   -3.94 KCAL/MOL
REMARK 924 INTRA-LIGAND FREE ENERGY PREDICTED BY IDOCK:    0.81 KCAL/MOL
REMARK 927      BINDING AFFINITY PREDICTED BY RF-SCORE:    0.00 PKD
ROOT
HETATM    1  C   UNL     1     -11.666  13.224  69.537  1.00  0.00    -0.322 C  
HETATM    2  C   UNL     1     -13.032  12.914  70.145  1.00  0.00     0.515 C  
HETATM    3  C   UNL     1     -13.570  14.323  70.536  1.00  0.00     0.336 C  
HETATM    4  C   UNL     1     -12.397  15.288  70.380  1.00  0.00    -0.380 C  
HETATM    5  N   UNL     1     -11.247  14.441  70.196  1.00  0.00    -0.160 N  
HETATM    6  C   UNL     1     -10.074  15.029  69.793  1.00  0.00    -0.087 C  
HETATM    7  O   UNL     1      -9.685  16.090  70.275  1.00  0.00     0.206 OA 
HETATM    8  C   UNL     1      -9.247  14.187  68.803  1.00  0.00    -0.080 C  
HETATM    9  N   UNL     1     -10.004  13.105  67.975  1.00  0.00    -0.227 N  
HETATM   10  C   UNL     1      -6.715  10.769  66.246  1.00  0.00    -0.134 C  
HETATM   11  C   UNL     1      -9.329  12.187  67.188  1.00  0.00    -0.193 C  
HETATM   12  C   UNL     1      -6.306  12.948  67.153  1.00  0.00     0.149 C  
HETATM   13  O   UNL     1      -9.518  12.029  65.985  1.00  0.00    -0.234 OA 
HETATM   14  C   UNL     1      -8.498  11.316  68.126  1.00  0.00    -0.145 C  
HETATM   15  C   UNL     1     -10.547  12.249  68.952  1.00  0.00    -0.137 C  
HETATM   16  O   UNL     1     -11.279  11.126  68.455  1.00  0.00    -0.218 OA 
HETATM   17  H   UNL     1     -10.613  10.546  68.106  1.00  0.00     0.000 HD 
HETATM   18  C   UNL     1      -6.933  11.603  67.563  1.00  0.00    -0.104 C  
HETATM   19  O   UNL     1      -9.265  11.777  69.390  1.00  0.00     0.447 OA 
ENDROOT
BRANCH   8  20
HETATM   20  C   UNL     1      -8.375  15.085  67.998  1.00  0.00    -0.148 C  
HETATM   21  C   UNL     1     -10.070  15.785  66.293  1.00  0.00    -0.320 C  
HETATM   22  C   UNL     1      -8.968  16.244  67.245  1.00  0.00    -0.209 C  
HETATM   23  C   UNL     1      -7.788  16.827  66.462  1.00  0.00    -0.338 C  
ENDBRANCH   8  20
BRANCH  14  24
HETATM   24  N   UNL     1      -8.522   9.873  68.316  1.00  0.00    -0.110 N  
HETATM   25  H   UNL     1      -9.019   9.222  67.708  1.00  0.00     0.000 HD 
HETATM   26  O   UNL     1      -7.512  10.352  70.273  1.00  0.00    -0.206 OA 
HETATM   27  C   UNL     1      -7.785   9.493  69.424  1.00  0.00    -0.094 C  
BRANCH  27  28
HETATM   28  C   UNL     1      -7.338   8.048  69.609  1.00  0.00    -0.085 C  
HETATM   29  C   UNL     1      -8.185   7.091  70.480  1.00  0.00    -0.123 C  
HETATM   30  N   UNL     1      -8.033   5.705  69.906  1.00  0.00    -0.093 NA 
HETATM   31  C   UNL     1      -8.876   5.581  68.650  1.00  0.00    -0.107 C  
HETATM   32  C   UNL     1      -8.108   4.689  70.923  1.00  0.00    -0.082 C  
HETATM   33  C   UNL     1      -8.584   4.384  67.605  1.00  0.00    -0.108 C  
HETATM   34  C   UNL     1      -8.387   4.860  66.161  1.00  0.00    -0.112 A  
HETATM   35  C   UNL     1      -7.786   4.377  65.021  1.00  0.00    -0.089 A  
HETATM   36 BR   UNL     1      -6.994   2.702  64.817  1.00  0.00    -0.050 Br 
HETATM   37  N   UNL     1      -7.762   5.364  64.060  1.00  0.00    -0.080 NA 
HETATM   38  C   UNL     1      -8.337   6.521  64.539  1.00  0.00     0.039 A  
HETATM   39  H   UNL     1      -7.372   5.254  63.124  1.00  0.00     0.000 HD 
HETATM   40  C   UNL     1      -8.390   7.847  64.075  1.00  0.00     0.063 A  
HETATM   41  C   UNL     1      -9.010   8.806  64.903  1.00  0.00    -0.065 A  
HETATM   42  C   UNL     1      -9.471   8.474  66.169  1.00  0.00    -0.286 A  
HETATM   43  C   UNL     1      -9.207   7.191  66.640  1.00  0.00    -0.193 A  
HETATM   44  C   UNL     1      -8.784   6.174  65.795  1.00  0.00    -0.151 A  
HETATM   45  C   UNL     1      -8.693   6.937  67.971  1.00  0.00    -0.125 C  
HETATM   46  C   UNL     1      -7.498   7.548  68.191  1.00  0.00    -0.105 C  
ENDBRANCH  27  28
ENDBRANCH  14  24
TORSDOF 3
ENDMDL
MODEL       92
REMARK 921   NORMALIZED FREE ENERGY PREDICTED BY IDOCK:   -2.99 KCAL/MOL
REMARK 922        TOTAL FREE ENERGY PREDICTED BY IDOCK:   -3.05 KCAL/MOL
REMARK 923 INTER-LIGAND FREE ENERGY PREDICTED BY IDOCK:   -4.15 KCAL/MOL
REMARK 924 INTRA-LIGAND FREE ENERGY PREDICTED BY IDOCK:    1.10 KCAL/MOL
REMARK 927      BINDING AFFINITY PREDICTED BY RF-SCORE:    0.00 PKD
ROOT
HETATM    1  C   UNL     1      -6.934  15.028  68.381  1.00  0.00    -0.109 C  
HETATM    2  C   UNL     1      -5.463  15.425  68.474  1.00  0.00    -0.096 C  
HETATM    3  C   UNL     1      -5.528  16.905  68.956  1.00  0.00    -0.136 C  
HETATM    4  C   UNL     1      -6.993  17.326  68.847  1.00  0.00    -0.233 C  
HETATM    5  N   UNL     1      -7.625  16.268  68.103  1.00  0.00    -0.145 N  
HETATM    6  C   UNL     1      -8.996  16.252  68.048  1.00  0.00    -0.187 C  
HETATM    7  O   UNL     1      -9.646  17.277  67.866  1.00  0.00    -0.258 OA 
HETATM    8  C   UNL     1      -9.618  14.843  68.099  1.00  0.00    -0.210 C  
HETATM    9  N   UNL     1      -8.763  13.703  68.728  1.00  0.00    -0.010 N  
HETATM   10  C   UNL     1     -10.993  10.103  67.576  1.00  0.00    -0.319 C  
HETATM   11  C   UNL     1      -9.159  12.378  68.670  1.00  0.00     0.027 C  
HETATM   12  C   UNL     1     -12.031  12.259  67.462  1.00  0.00    -0.210 C  
HETATM   13  O   UNL     1      -9.315  11.653  69.648  1.00  0.00     0.767 OA 
HETATM   14  C   UNL     1      -9.156  11.973  67.198  1.00  0.00    -0.186 C  
HETATM   15  C   UNL     1      -7.610  13.658  67.920  1.00  0.00    -0.156 C  
HETATM   16  O   UNL     1      -6.651  12.655  68.263  1.00  0.00    -0.066 OA 
HETATM   17  H   UNL     1      -7.054  11.840  67.989  1.00  0.00     0.000 HD 
HETATM   18  C   UNL     1     -10.769  11.534  66.961  1.00  0.00    -0.300 C  
HETATM   19  O   UNL     1      -8.324  13.204  66.761  1.00  0.00    -0.078 OA 
ENDROOT
BRANCH   8  20
HETATM   20  C   UNL     1     -11.008  14.936  68.623  1.00  0.00    -0.263 C  
HETATM   21  C   UNL     1     -10.458  15.705  70.942  1.00  0.00     0.206 C  
HETATM   22  C   UNL     1     -11.343  15.914  69.717  1.00  0.00    -0.347 C  
HETATM   23  C   UNL     1     -12.807  15.615  70.052  1.00  0.00     0.043 C  
ENDBRANCH   8  20
BRANCH  14  24
HETATM   24  N   UNL     1      -8.422  10.909  66.529  1.00  0.00    -0.153 N  
HETATM   25  H   UNL     1      -7.743  10.303  66.990  1.00  0.00     0.000 HD 
HETATM   26  O   UNL     1      -9.319  11.789  64.657  1.00  0.00    -0.061 OA 
HETATM   27  C   UNL     1      -8.760  10.820  65.190  1.00  0.00    -0.164 C  
BRANCH  27  28
HETATM   28  C   UNL     1      -8.436   9.570  64.382  1.00  0.00    -0.191 C  
HETATM   29  C   UNL     1      -7.117   9.501  63.577  1.00  0.00    -0.102 C  
HETATM   30  N   UNL     1      -6.677   8.059  63.554  1.00  0.00    -0.074 NA 
HETATM   31  C   UNL     1      -6.073   7.691  64.897  1.00  0.00    -0.038 C  
HETATM   32  C   UNL     1      -5.979   7.727  62.340  1.00  0.00    -0.068 C  
HETATM   33  C   UNL     1      -5.914   6.137  65.305  1.00  0.00    -0.026 C  
HETATM   34  C   UNL     1      -6.526   5.790  66.668  1.00  0.00    -0.050 A  
HETATM   35  C   UNL     1      -6.987   4.658  67.299  1.00  0.00    -0.060 A  
HETATM   36 BR   UNL     1      -6.911   2.917  66.637  1.00  0.00    -0.049 Br 
HETATM   37  N   UNL     1      -7.620   5.010  68.472  1.00  0.00    -0.077 NA 
HETATM   38  C   UNL     1      -7.598   6.378  68.643  1.00  0.00    -0.093 A  
HETATM   39  H   UNL     1      -8.046   4.351  69.123  1.00  0.00     0.000 HD 
HETATM   40  C   UNL     1      -8.251   7.260  69.520  1.00  0.00    -0.131 A  
HETATM   41  C   UNL     1      -8.044   8.643  69.333  1.00  0.00    -0.111 A  
HETATM   42  C   UNL     1      -7.299   9.120  68.265  1.00  0.00    -0.079 A  
HETATM   43  C   UNL     1      -6.849   8.199  67.323  1.00  0.00    -0.074 A  
HETATM   44  C   UNL     1      -6.859   6.833  67.572  1.00  0.00    -0.077 A  
HETATM   45  C   UNL     1      -6.976   8.414  65.895  1.00  0.00    -0.068 C  
HETATM   46  C   UNL     1      -8.270   8.574  65.509  1.00  0.00    -0.138 C  
ENDBRANCH  27  28
ENDBRANCH  14  24
TORSDOF 3
ENDMDL
MODEL       93
REMARK 921   NORMALIZED FREE ENERGY PREDICTED BY IDOCK:   -2.94 KCAL/MOL
REMARK 922        TOTAL FREE ENERGY PREDICTED BY IDOCK:   -2.99 KCAL/MOL
REMARK 923 INTER-LIGAND FREE ENERGY PREDICTED BY IDOCK:   -4.65 KCAL/MOL
REMARK 924 INTRA-LIGAND FREE ENERGY PREDICTED BY IDOCK:    1.66 KCAL/MOL
REMARK 927      BINDING AFFINITY PREDICTED BY RF-SCORE:    0.00 PKD
ROOT
HETATM    1  C   UNL     1      -6.461  18.752  65.590  1.00  0.00    -0.272 C  
HETATM    2  C   UNL     1      -5.484  19.205  64.508  1.00  0.00    -0.279 C  
HETATM    3  C   UNL     1      -6.055  20.589  64.076  1.00  0.00    -0.328 C  
HETATM    4  C   UNL     1      -7.432  20.706  64.727  1.00  0.00     0.611 C  
HETATM    5  N   UNL     1      -7.711  19.387  65.234  1.00  0.00     0.368 N  
HETATM    6  C   UNL     1      -8.781  19.238  66.080  1.00  0.00    -0.247 C  
HETATM    7  O   UNL     1      -9.856  19.791  65.865  1.00  0.00    -0.401 OA 
HETATM    8  C   UNL     1      -8.554  18.229  67.222  1.00  0.00    -0.254 C  
HETATM    9  N   UNL     1      -7.081  17.923  67.626  1.00  0.00    -0.193 N  
HETATM   10  C   UNL     1      -7.522  14.398  70.205  1.00  0.00     0.490 C  
HETATM   11  C   UNL     1      -6.766  16.912  68.519  1.00  0.00    -0.168 C  
HETATM   12  C   UNL     1      -9.417  15.774  69.699  1.00  0.00    -0.204 C  
HETATM   13  O   UNL     1      -6.128  17.072  69.556  1.00  0.00    -0.209 OA 
HETATM   14  C   UNL     1      -7.175  15.594  67.867  1.00  0.00    -0.137 C  
HETATM   15  C   UNL     1      -6.506  17.408  66.448  1.00  0.00    -0.248 C  
HETATM   16  O   UNL     1      -5.138  17.006  66.550  1.00  0.00    -0.276 OA 
HETATM   17  H   UNL     1      -5.165  16.205  67.061  1.00  0.00     0.000 HD 
HETATM   18  C   UNL     1      -8.300  15.000  68.976  1.00  0.00    -0.194 C  
HETATM   19  O   UNL     1      -7.314  16.222  66.458  1.00  0.00    -0.214 OA 
ENDROOT
BRANCH   8  20
HETATM   20  C   UNL     1      -9.452  18.562  68.362  1.00  0.00    -0.368 C  
HETATM   21  C   UNL     1      -7.825  19.904  69.711  1.00  0.00     0.448 C  
HETATM   22  C   UNL     1      -9.242  19.826  69.150  1.00  0.00    -0.090 C  
HETATM   23  C   UNL     1     -10.267  19.736  70.284  1.00  0.00     0.794 C  
ENDBRANCH   8  20
BRANCH  14  24
HETATM   24  N   UNL     1      -6.368  14.423  67.555  1.00  0.00    -0.094 N  
HETATM   25  H   UNL     1      -5.352  14.433  67.465  1.00  0.00     0.000 HD 
HETATM   26  O   UNL     1      -8.363  13.439  67.189  1.00  0.00    -0.187 OA 
HETATM   27  C   UNL     1      -7.151  13.293  67.396  1.00  0.00    -0.099 C  
BRANCH  27  28
HETATM   28  C   UNL     1      -6.536  11.900  67.452  1.00  0.00    -0.126 C  
HETATM   29  C   UNL     1      -6.894  10.953  68.621  1.00  0.00    -0.062 C  
HETATM   30  N   UNL     1      -6.846   9.543  68.091  1.00  0.00    -0.069 NA 
HETATM   31  C   UNL     1      -8.089   9.268  67.265  1.00  0.00    -0.113 C  
HETATM   32  C   UNL     1      -6.433   8.601  69.099  1.00  0.00    -0.043 C  
HETATM   33  C   UNL     1      -8.110   8.021  66.239  1.00  0.00    -0.112 C  
HETATM   34  C   UNL     1      -8.523   8.402  64.813  1.00  0.00    -0.120 A  
HETATM   35  C   UNL     1      -8.362   7.879  63.550  1.00  0.00     0.082 A  
HETATM   36 BR   UNL     1      -7.557   6.253  63.124  1.00  0.00    -0.090 Br 
HETATM   37  N   UNL     1      -8.798   8.793  62.615  1.00  0.00    -0.435 NA 
HETATM   38  C   UNL     1      -9.251   9.939  63.231  1.00  0.00    -0.238 A  
HETATM   39  H   UNL     1      -8.786   8.641  61.606  1.00  0.00     0.000 HD 
HETATM   40  C   UNL     1      -9.598  11.220  62.769  1.00  0.00    -0.327 A  
HETATM   41  C   UNL     1      -9.941  12.192  63.732  1.00  0.00    -0.343 A  
HETATM   42  C   UNL     1      -9.851  11.923  65.090  1.00  0.00    -0.243 A  
HETATM   43  C   UNL     1      -9.310  10.700  65.475  1.00  0.00    -0.245 A  
HETATM   44  C   UNL     1      -9.149   9.655  64.575  1.00  0.00    -0.287 A  
HETATM   45  C   UNL     1      -8.305  10.580  66.513  1.00  0.00    -0.141 C  
HETATM   46  C   UNL     1      -7.179  11.287  66.228  1.00  0.00     0.007 C  
ENDBRANCH  27  28
ENDBRANCH  14  24
TORSDOF 3
ENDMDL
MODEL       94
REMARK 921   NORMALIZED FREE ENERGY PREDICTED BY IDOCK:   -2.93 KCAL/MOL
REMARK 922        TOTAL FREE ENERGY PREDICTED BY IDOCK:   -2.98 KCAL/MOL
REMARK 923 INTER-LIGAND FREE ENERGY PREDICTED BY IDOCK:   -5.27 KCAL/MOL
REMARK 924 INTRA-LIGAND FREE ENERGY PREDICTED BY IDOCK:    2.29 KCAL/MOL
REMARK 927      BINDING AFFINITY PREDICTED BY RF-SCORE:    0.00 PKD
ROOT
HETATM    1  C   UNL     1      -6.914  17.587  66.053  1.00  0.00    -0.261 C  
HETATM    2  C   UNL     1      -5.610  17.611  65.260  1.00  0.00     0.308 C  
HETATM    3  C   UNL     1      -5.242  19.125  65.234  1.00  0.00    -0.196 C  
HETATM    4  C   UNL     1      -6.466  19.872  65.763  1.00  0.00    -0.230 C  
HETATM    5  N   UNL     1      -7.510  18.881  65.805  1.00  0.00    -0.202 N  
HETATM    6  C   UNL     1      -8.672  19.200  66.463  1.00  0.00    -0.337 C  
HETATM    7  O   UNL     1      -9.203  20.299  66.337  1.00  0.00    -0.313 OA 
HETATM    8  C   UNL     1      -9.300  18.031  67.246  1.00  0.00    -0.256 C  
HETATM    9  N   UNL     1      -8.361  16.860  67.664  1.00  0.00    -0.183 N  
HETATM   10  C   UNL     1     -11.210  13.782  68.958  1.00  0.00    -0.313 C  
HETATM   11  C   UNL     1      -8.857  15.692  68.219  1.00  0.00    -0.180 C  
HETATM   12  C   UNL     1     -11.907  16.064  68.743  1.00  0.00    -0.210 C  
HETATM   13  O   UNL     1      -8.513  15.237  69.306  1.00  0.00    -0.217 OA 
HETATM   14  C   UNL     1      -9.717  15.018  67.154  1.00  0.00    -0.226 C  
HETATM   15  C   UNL     1      -7.868  16.369  66.440  1.00  0.00    -0.262 C  
HETATM   16  O   UNL     1      -6.990  15.244  66.531  1.00  0.00    -0.064 OA 
HETATM   17  H   UNL     1      -7.558  14.519  66.762  1.00  0.00     0.000 HD 
HETATM   18  C   UNL     1     -11.222  14.961  67.916  1.00  0.00    -0.324 C  
HETATM   19  O   UNL     1      -9.149  15.890  66.006  1.00  0.00    -0.335 OA 
ENDROOT
BRANCH   8  20
HETATM   20  C   UNL     1     -10.142  18.573  68.348  1.00  0.00    -0.423 C  
HETATM   21  C   UNL     1      -8.329  19.702  69.655  1.00  0.00     0.443 C  
HETATM   22  C   UNL     1      -9.733  19.827  69.071  1.00  0.00    -0.371 C  
HETATM   23  C   UNL     1     -10.771  19.972  70.188  1.00  0.00     1.315 C  
ENDBRANCH   8  20
BRANCH  14  24
HETATM   24  N   UNL     1      -9.595  13.693  66.563  1.00  0.00    -0.284 N  
HETATM   25  H   UNL     1     -10.188  13.344  65.810  1.00  0.00     0.000 HD 
HETATM   26  O   UNL     1      -8.150  13.332  68.255  1.00  0.00    -0.145 OA 
HETATM   27  C   UNL     1      -8.575  12.966  67.151  1.00  0.00    -0.198 C  
BRANCH  27  28
HETATM   28  C   UNL     1      -8.000  11.731  66.467  1.00  0.00    -0.009 C  
HETATM   29  C   UNL     1      -6.524  11.341  66.710  1.00  0.00    -0.136 C  
HETATM   30  N   UNL     1      -6.434   9.838  66.626  1.00  0.00    -0.069 NA 
HETATM   31  C   UNL     1      -6.982   9.225  67.902  1.00  0.00    -0.077 C  
HETATM   32  C   UNL     1      -5.163   9.402  66.110  1.00  0.00    -0.036 C  
HETATM   33  C   UNL     1      -7.405   7.667  67.924  1.00  0.00    -0.102 C  
HETATM   34  C   UNL     1      -8.828   7.420  68.440  1.00  0.00    -0.121 A  
HETATM   35  C   UNL     1      -9.776   6.428  68.329  1.00  0.00    -0.127 A  
HETATM   36 BR   UNL     1      -9.559   4.786  67.474  1.00  0.00    -0.204 Br 
HETATM   37  N   UNL     1     -10.967   6.869  68.862  1.00  0.00    -0.422 NA 
HETATM   38  C   UNL     1     -10.841   8.158  69.332  1.00  0.00    -0.086 A  
HETATM   39  H   UNL     1     -11.824   6.317  68.903  1.00  0.00     0.000 HD 
HETATM   40  C   UNL     1     -11.758   9.130  69.767  1.00  0.00     0.322 A  
HETATM   41  C   UNL     1     -11.254  10.405  70.098  1.00  0.00    -0.393 A  
HETATM   42  C   UNL     1      -9.915  10.719  69.914  1.00  0.00     0.250 A  
HETATM   43  C   UNL     1      -9.105   9.772  69.294  1.00  0.00    -0.189 A  
HETATM   44  C   UNL     1      -9.509   8.453  69.137  1.00  0.00    -0.155 A  
HETATM   45  C   UNL     1      -8.186  10.108  68.225  1.00  0.00    -0.110 C  
HETATM   46  C   UNL     1      -8.817  10.657  67.153  1.00  0.00    -0.139 C  
ENDBRANCH  27  28
ENDBRANCH  14  24
TORSDOF 3
ENDMDL
MODEL       95
REMARK 921   NORMALIZED FREE ENERGY PREDICTED BY IDOCK:   -2.84 KCAL/MOL
REMARK 922        TOTAL FREE ENERGY PREDICTED BY IDOCK:   -2.87 KCAL/MOL
REMARK 923 INTER-LIGAND FREE ENERGY PREDICTED BY IDOCK:   -5.32 KCAL/MOL
REMARK 924 INTRA-LIGAND FREE ENERGY PREDICTED BY IDOCK:    2.46 KCAL/MOL
REMARK 927      BINDING AFFINITY PREDICTED BY RF-SCORE:    0.00 PKD
ROOT
HETATM    1  C   UNL     1     -12.082  12.261  69.881  1.00  0.00    -0.249 C  
HETATM    2  C   UNL     1     -12.863  11.853  71.127  1.00  0.00    -0.346 C  
HETATM    3  C   UNL     1     -13.148  13.217  71.825  1.00  0.00    -0.478 C  
HETATM    4  C   UNL     1     -12.300  14.257  71.095  1.00  0.00    -0.368 C  
HETATM    5  N   UNL     1     -11.415  13.488  70.260  1.00  0.00    -0.044 N  
HETATM    6  C   UNL     1     -10.690  14.156  69.305  1.00  0.00    -0.144 C  
HETATM    7  O   UNL     1     -10.141  15.228  69.545  1.00  0.00    -0.242 OA 
HETATM    8  C   UNL     1     -10.522  13.389  67.981  1.00  0.00    -0.239 C  
HETATM    9  N   UNL     1     -11.568  12.280  67.655  1.00  0.00    -0.341 N  
HETATM   10  C   UNL     1      -9.709  10.192  64.272  1.00  0.00    -0.326 C  
HETATM   11  C   UNL     1     -11.410  11.424  66.579  1.00  0.00    -0.122 C  
HETATM   12  C   UNL     1      -8.951  12.372  64.913  1.00  0.00     0.962 C  
HETATM   13  O   UNL     1     -12.230  11.280  65.677  1.00  0.00     0.486 OA 
HETATM   14  C   UNL     1     -10.164  10.585  66.851  1.00  0.00    -0.229 C  
HETATM   15  C   UNL     1     -11.440  11.371  68.723  1.00  0.00    -0.290 C  
HETATM   16  O   UNL     1     -12.280  10.216  68.657  1.00  0.00    -0.434 OA 
HETATM   17  H   UNL     1     -11.898   9.686  67.967  1.00  0.00     0.000 HD 
HETATM   18  C   UNL     1      -9.191  10.982  65.530  1.00  0.00    -0.235 C  
HETATM   19  O   UNL     1     -10.114  10.971  68.350  1.00  0.00    -0.170 OA 
ENDROOT
BRANCH   8  20
HETATM   20  C   UNL     1     -10.282  14.357  66.875  1.00  0.00    -0.265 C  
HETATM   21  C   UNL     1      -8.430  15.660  67.946  1.00  0.00    -0.153 C  
HETATM   22  C   UNL     1      -8.919  14.963  66.680  1.00  0.00    -0.301 C  
HETATM   23  C   UNL     1      -9.118  15.977  65.549  1.00  0.00     0.260 C  
ENDBRANCH   8  20
BRANCH  14  24
HETATM   24  N   UNL     1     -10.020   9.140  66.945  1.00  0.00    -0.216 N  
HETATM   25  H   UNL     1     -10.792   8.496  67.120  1.00  0.00     0.000 HD 
HETATM   26  O   UNL     1      -7.812   9.594  66.903  1.00  0.00    -0.101 OA 
HETATM   27  C   UNL     1      -8.705   8.747  66.769  1.00  0.00    -0.124 C  
BRANCH  27  28
HETATM   28  C   UNL     1      -8.358   7.300  66.439  1.00  0.00    -0.124 C  
HETATM   29  C   UNL     1      -6.912   6.934  66.034  1.00  0.00    -0.065 C  
HETATM   30  N   UNL     1      -6.650   5.529  66.514  1.00  0.00    -0.054 NA 
HETATM   31  C   UNL     1      -6.407   5.541  68.012  1.00  0.00    -0.042 C  
HETATM   32  C   UNL     1      -5.743   4.822  65.647  1.00  0.00    -0.018 C  
HETATM   33  C   UNL     1      -6.527   4.168  68.854  1.00  0.00    -0.040 C  
HETATM   34  C   UNL     1      -7.463   4.266  70.065  1.00  0.00    -0.049 A  
HETATM   35  C   UNL     1      -8.183   3.393  70.848  1.00  0.00    -0.064 A  
HETATM   36 BR   UNL     1      -8.167   1.533  70.725  1.00  0.00    -0.062 Br 
HETATM   37  N   UNL     1      -9.014   4.104  71.686  1.00  0.00    -0.115 NA 
HETATM   38  C   UNL     1      -8.870   5.458  71.477  1.00  0.00    -0.135 A  
HETATM   39  H   UNL     1      -9.648   3.685  72.366  1.00  0.00     0.000 HD 
HETATM   40  C   UNL     1      -9.593   6.590  71.892  1.00  0.00    -0.156 A  
HETATM   41  C   UNL     1      -9.188   7.845  71.392  1.00  0.00    -0.165 A  
HETATM   42  C   UNL     1      -8.173   7.952  70.452  1.00  0.00    -0.119 A  
HETATM   43  C   UNL     1      -7.637   6.775  69.939  1.00  0.00    -0.100 A  
HETATM   44  C   UNL     1      -7.863   5.544  70.540  1.00  0.00    -0.098 A  
HETATM   45  C   UNL     1      -7.418   6.568  68.521  1.00  0.00    -0.088 C  
HETATM   46  C   UNL     1      -8.565   6.671  67.799  1.00  0.00    -0.121 C  
ENDBRANCH  27  28
ENDBRANCH  14  24
TORSDOF 3
ENDMDL
MODEL       96
REMARK 921   NORMALIZED FREE ENERGY PREDICTED BY IDOCK:   -2.79 KCAL/MOL
REMARK 922        TOTAL FREE ENERGY PREDICTED BY IDOCK:   -2.81 KCAL/MOL
REMARK 923 INTER-LIGAND FREE ENERGY PREDICTED BY IDOCK:   -6.32 KCAL/MOL
REMARK 924 INTRA-LIGAND FREE ENERGY PREDICTED BY IDOCK:    3.51 KCAL/MOL
REMARK 927      BINDING AFFINITY PREDICTED BY RF-SCORE:    0.00 PKD
ROOT
HETATM    1  C   UNL     1      -6.794   8.175  64.979  1.00  0.00    -0.062 C  
HETATM    2  C   UNL     1      -6.021   9.179  64.127  1.00  0.00    -0.071 C  
HETATM    3  C   UNL     1      -5.412   8.290  63.002  1.00  0.00    -0.064 C  
HETATM    4  C   UNL     1      -5.645   6.841  63.428  1.00  0.00    -0.035 C  
HETATM    5  N   UNL     1      -6.085   6.927  64.797  1.00  0.00    -0.036 N  
HETATM    6  C   UNL     1      -6.599   5.795  65.378  1.00  0.00    -0.043 C  
HETATM    7  O   UNL     1      -6.076   4.696  65.222  1.00  0.00    -0.025 OA 
HETATM    8  C   UNL     1      -7.783   6.051  66.330  1.00  0.00    -0.102 C  
HETATM    9  N   UNL     1      -8.593   7.366  66.131  1.00  0.00    -0.140 N  
HETATM   10  C   UNL     1     -11.029   7.537  69.778  1.00  0.00    -0.195 C  
HETATM   11  C   UNL     1      -9.563   7.768  67.034  1.00  0.00    -0.184 C  
HETATM   12  C   UNL     1      -9.976   5.488  69.119  1.00  0.00    -0.256 C  
HETATM   13  O   UNL     1     -10.734   7.999  66.743  1.00  0.00    -0.289 OA 
HETATM   14  C   UNL     1      -8.856   8.053  68.356  1.00  0.00    -0.134 C  
HETATM   15  C   UNL     1      -7.638   8.384  66.316  1.00  0.00    -0.086 C  
HETATM   16  O   UNL     1      -8.131   9.722  66.220  1.00  0.00    -0.111 OA 
HETATM   17  H   UNL     1      -8.634   9.847  67.016  1.00  0.00     0.000 HD 
HETATM   18  C   UNL     1      -9.616   6.960  69.393  1.00  0.00    -0.147 C  
HETATM   19  O   UNL     1      -7.449   8.086  67.707  1.00  0.00    -0.090 OA 
ENDROOT
BRANCH   8  20
HETATM   20  C   UNL     1      -8.614   4.819  66.425  1.00  0.00    -0.113 C  
HETATM   21  C   UNL     1      -7.041   3.438  67.798  1.00  0.00    -0.051 C  
HETATM   22  C   UNL     1      -8.482   3.903  67.610  1.00  0.00    -0.102 C  
HETATM   23  C   UNL     1      -9.392   2.718  67.273  1.00  0.00    -0.157 C  
ENDBRANCH   8  20
BRANCH  14  24
HETATM   24  N   UNL     1      -8.812   9.278  69.141  1.00  0.00    -0.137 N  
HETATM   25  H   UNL     1      -8.303   9.379  70.019  1.00  0.00     0.000 HD 
HETATM   26  O   UNL     1     -10.388   9.982  67.691  1.00  0.00    -0.193 OA 
HETATM   27  C   UNL     1      -9.549  10.288  68.548  1.00  0.00    -0.161 C  
BRANCH  27  28
HETATM   28  C   UNL     1      -9.348  11.744  68.954  1.00  0.00     0.076 C  
HETATM   29  C   UNL     1      -7.916  12.316  69.064  1.00  0.00     0.242 C  
HETATM   30  N   UNL     1      -7.983  13.777  68.699  1.00  0.00    -0.126 NA 
HETATM   31  C   UNL     1      -8.105  13.918  67.192  1.00  0.00    -0.083 C  
HETATM   32  C   UNL     1      -7.009  14.558  69.416  1.00  0.00    -0.151 C  
HETATM   33  C   UNL     1      -8.620  15.311  66.558  1.00  0.00    -0.264 C  
HETATM   34  C   UNL     1      -9.792  15.149  65.582  1.00  0.00    -0.378 A  
HETATM   35  C   UNL     1     -10.797  15.946  65.083  1.00  0.00    -0.421 A  
HETATM   36 BR   UNL     1     -11.023  17.767  65.407  1.00  0.00     0.661 Br 
HETATM   37  N   UNL     1     -11.691  15.170  64.377  1.00  0.00    -0.646 NA 
HETATM   38  C   UNL     1     -11.306  13.847  64.395  1.00  0.00    -0.341 A  
HETATM   39  H   UNL     1     -12.523  15.527  63.906  1.00  0.00     0.000 HD 
HETATM   40  C   UNL     1     -11.934  12.645  64.027  1.00  0.00    -0.530 A  
HETATM   41  C   UNL     1     -11.243  11.441  64.281  1.00  0.00    -0.306 A  
HETATM   42  C   UNL     1     -10.030  11.436  64.952  1.00  0.00    -0.311 A  
HETATM   43  C   UNL     1      -9.564  12.645  65.462  1.00  0.00    -0.026 A  
HETATM   44  C   UNL     1     -10.104  13.861  65.069  1.00  0.00    -0.319 A  
HETATM   45  C   UNL     1      -9.047  12.778  66.810  1.00  0.00    -0.209 C  
HETATM   46  C   UNL     1      -9.962  12.430  67.753  1.00  0.00    -0.205 C  
ENDBRANCH  27  28
ENDBRANCH  14  24
TORSDOF 3
ENDMDL
MODEL       97
REMARK 921   NORMALIZED FREE ENERGY PREDICTED BY IDOCK:   -2.76 KCAL/MOL
REMARK 922        TOTAL FREE ENERGY PREDICTED BY IDOCK:   -2.78 KCAL/MOL
REMARK 923 INTER-LIGAND FREE ENERGY PREDICTED BY IDOCK:   -6.97 KCAL/MOL
REMARK 924 INTRA-LIGAND FREE ENERGY PREDICTED BY IDOCK:    4.19 KCAL/MOL
REMARK 927      BINDING AFFINITY PREDICTED BY RF-SCORE:    0.00 PKD
ROOT
HETATM    1  C   UNL     1      -9.245  10.132  67.378  1.00  0.00    -0.141 C  
HETATM    2  C   UNL     1      -8.188   9.978  66.288  1.00  0.00    -0.124 C  
HETATM    3  C   UNL     1      -8.338  11.292  65.465  1.00  0.00     0.140 C  
HETATM    4  C   UNL     1      -9.617  11.964  65.961  1.00  0.00    -0.235 C  
HETATM    5  N   UNL     1     -10.261  10.969  66.779  1.00  0.00    -0.220 N  
HETATM    6  C   UNL     1     -11.321  11.364  67.555  1.00  0.00    -0.292 C  
HETATM    7  O   UNL     1     -12.191  12.115  67.125  1.00  0.00    -0.507 OA 
HETATM    8  C   UNL     1     -11.385  10.686  68.937  1.00  0.00    -0.274 C  
HETATM    9  N   UNL     1     -10.060  10.102  69.512  1.00  0.00    -0.224 N  
HETATM   10  C   UNL     1     -11.479   7.692  72.895  1.00  0.00    -0.342 C  
HETATM   11  C   UNL     1     -10.043   9.329  70.661  1.00  0.00    -0.276 C  
HETATM   12  C   UNL     1     -12.899   9.350  71.909  1.00  0.00    -0.497 C  
HETATM   13  O   UNL     1      -9.377   9.582  71.661  1.00  0.00    -0.158 OA 
HETATM   14  C   UNL     1     -10.821   8.053  70.355  1.00  0.00    -0.247 C  
HETATM   15  C   UNL     1      -9.669   9.144  68.557  1.00  0.00    -0.155 C  
HETATM   16  O   UNL     1      -8.475   8.418  68.859  1.00  0.00    -0.122 OA 
HETATM   17  H   UNL     1      -8.728   7.830  69.561  1.00  0.00     0.000 HD 
HETATM   18  C   UNL     1     -12.061   8.126  71.498  1.00  0.00    -0.332 C  
HETATM   19  O   UNL     1     -10.785   8.282  68.824  1.00  0.00    -0.161 OA 
ENDROOT
BRANCH   8  20
HETATM   20  C   UNL     1     -12.139  11.557  69.880  1.00  0.00    -0.389 C  
HETATM   21  C   UNL     1     -10.716  13.608  69.677  1.00  0.00     0.218 C  
HETATM   22  C   UNL     1     -12.137  13.050  69.701  1.00  0.00    -0.304 C  
HETATM   23  C   UNL     1     -12.902  13.576  70.919  1.00  0.00    -0.298 C  
ENDBRANCH   8  20
BRANCH  14  24
HETATM   24  N   UNL     1     -10.391   6.664  70.423  1.00  0.00    -0.195 N  
HETATM   25  H   UNL     1     -10.955   5.872  70.114  1.00  0.00     0.000 HD 
HETATM   26  O   UNL     1      -8.665   7.504  71.605  1.00  0.00    -0.115 OA 
HETATM   27  C   UNL     1      -9.120   6.551  70.960  1.00  0.00    -0.150 C  
BRANCH  27  28
HETATM   28  C   UNL     1      -8.306   5.275  70.780  1.00  0.00    -0.115 C  
HETATM   29  C   UNL     1      -8.823   3.947  71.381  1.00  0.00    -0.100 C  
HETATM   30  N   UNL     1      -8.356   2.832  70.480  1.00  0.00    -0.048 NA 
HETATM   31  C   UNL     1      -9.216   2.796  69.229  1.00  0.00    -0.141 C  
HETATM   32  C   UNL     1      -8.104   1.617  71.211  1.00  0.00    -0.043 C  
HETATM   33  C   UNL     1      -8.692   2.009  67.920  1.00  0.00    -0.126 C  
HETATM   34  C   UNL     1      -8.714   2.854  66.641  1.00  0.00    -0.130 A  
HETATM   35  C   UNL     1      -8.083   2.837  65.418  1.00  0.00    -0.087 A  
HETATM   36 BR   UNL     1      -6.901   1.532  64.805  1.00  0.00    -0.035 Br 
HETATM   37  N   UNL     1      -8.373   3.998  64.735  1.00  0.00    -0.101 NA 
HETATM   38  C   UNL     1      -9.195   4.811  65.485  1.00  0.00    -0.154 A  
HETATM   39  H   UNL     1      -8.027   4.225  63.803  1.00  0.00     0.000 HD 
HETATM   40  C   UNL     1      -9.615   6.146  65.367  1.00  0.00     0.522 A  
HETATM   41  C   UNL     1     -10.408   6.678  66.406  1.00  0.00    -0.002 A  
HETATM   42  C   UNL     1     -10.688   5.940  67.547  1.00  0.00    -0.359 A  
HETATM   43  C   UNL     1     -10.075   4.698  67.683  1.00  0.00    -0.111 A  
HETATM   44  C   UNL     1      -9.458   4.065  66.613  1.00  0.00    -0.214 A  
HETATM   45  C   UNL     1      -9.430   4.275  68.911  1.00  0.00    -0.236 C  
HETATM   46  C   UNL     1      -8.421   5.108  69.281  1.00  0.00    -0.093 C  
ENDBRANCH  27  28
ENDBRANCH  14  24
TORSDOF 3
ENDMDL
MODEL       98
REMARK 921   NORMALIZED FREE ENERGY PREDICTED BY IDOCK:   -2.66 KCAL/MOL
REMARK 922        TOTAL FREE ENERGY PREDICTED BY IDOCK:   -2.66 KCAL/MOL
REMARK 923 INTER-LIGAND FREE ENERGY PREDICTED BY IDOCK:   -5.96 KCAL/MOL
REMARK 924 INTRA-LIGAND FREE ENERGY PREDICTED BY IDOCK:    3.30 KCAL/MOL
REMARK 927      BINDING AFFINITY PREDICTED BY RF-SCORE:    0.00 PKD
ROOT
HETATM    1  C   UNL     1     -10.310  13.714  66.339  1.00  0.00    -0.286 C  
HETATM    2  C   UNL     1     -11.274  12.680  65.761  1.00  0.00    -0.347 C  
HETATM    3  C   UNL     1     -12.087  13.502  64.717  1.00  0.00    -0.442 C  
HETATM    4  C   UNL     1     -11.730  14.969  64.955  1.00  0.00    -0.291 C  
HETATM    5  N   UNL     1     -11.009  14.973  66.201  1.00  0.00    -0.332 N  
HETATM    6  C   UNL     1     -10.353  16.124  66.560  1.00  0.00    -0.308 C  
HETATM    7  O   UNL     1     -10.868  17.230  66.421  1.00  0.00    -0.126 OA 
HETATM    8  C   UNL     1      -8.999  15.893  67.258  1.00  0.00    -0.195 C  
HETATM    9  N   UNL     1      -8.285  14.531  67.008  1.00  0.00    -0.181 N  
HETATM   10  C   UNL     1      -5.129  14.546  70.059  1.00  0.00    -0.093 C  
HETATM   11  C   UNL     1      -7.155  14.161  67.718  1.00  0.00    -0.174 C  
HETATM   12  C   UNL     1      -6.245  16.580  69.460  1.00  0.00    -0.206 C  
HETATM   13  O   UNL     1      -6.081  13.856  67.207  1.00  0.00    -0.314 OA 
HETATM   14  C   UNL     1      -7.570  14.015  69.179  1.00  0.00     0.030 C  
HETATM   15  C   UNL     1      -9.205  13.575  67.480  1.00  0.00    -0.219 C  
HETATM   16  O   UNL     1      -8.780  12.213  67.400  1.00  0.00    -0.161 OA 
HETATM   17  H   UNL     1      -8.121  12.131  68.079  1.00  0.00     0.000 HD 
HETATM   18  C   UNL     1      -6.576  15.152  69.932  1.00  0.00    -0.172 C  
HETATM   19  O   UNL     1      -9.083  13.992  68.848  1.00  0.00    -0.095 OA 
ENDROOT
BRANCH   8  20
HETATM   20  C   UNL     1      -8.135  17.091  67.066  1.00  0.00    -0.234 C  
HETATM   21  C   UNL     1      -9.417  18.685  68.510  1.00  0.00    -0.386 C  
HETATM   22  C   UNL     1      -8.041  18.139  68.141  1.00  0.00    -0.289 C  
HETATM   23  C   UNL     1      -7.174  19.238  67.519  1.00  0.00    -0.246 C  
ENDBRANCH   8  20
BRANCH  14  24
HETATM   24  N   UNL     1      -7.476  12.860  70.060  1.00  0.00     0.694 N  
HETATM   25  H   UNL     1      -7.884  12.816  70.994  1.00  0.00     0.000 HD 
HETATM   26  O   UNL     1      -6.037  12.089  68.506  1.00  0.00    -0.049 OA 
HETATM   27  C   UNL     1      -6.765  11.828  69.473  1.00  0.00    -0.067 C  
BRANCH  27  28
HETATM   28  C   UNL     1      -6.859  10.406  70.013  1.00  0.00    -0.151 C  
HETATM   29  C   UNL     1      -8.236   9.830  70.415  1.00  0.00    -0.082 C  
HETATM   30  N   UNL     1      -8.200   8.346  70.152  1.00  0.00    -0.114 NA 
HETATM   31  C   UNL     1      -8.339   8.091  68.663  1.00  0.00    -0.127 C  
HETATM   32  C   UNL     1      -9.016   7.613  71.084  1.00  0.00    -0.138 C  
HETATM   33  C   UNL     1      -7.910   6.659  68.052  1.00  0.00    -0.113 C  
HETATM   34  C   UNL     1      -6.929   6.757  66.878  1.00  0.00    -0.070 A  
HETATM   35  C   UNL     1      -6.008   5.933  66.271  1.00  0.00    -0.025 A  
HETATM   36 BR   UNL     1      -5.687   4.144  66.683  1.00  0.00    -0.023 Br 
HETATM   37  N   UNL     1      -5.269   6.661  65.363  1.00  0.00    -0.021 NA 
HETATM   38  C   UNL     1      -5.675   7.978  65.350  1.00  0.00    -0.037 A  
HETATM   39  H   UNL     1      -4.524   6.278  64.782  1.00  0.00     0.000 HD 
HETATM   40  C   UNL     1      -5.149   9.154  64.790  1.00  0.00    -0.044 A  
HETATM   41  C   UNL     1      -5.812  10.367  65.071  1.00  0.00    -0.134 A  
HETATM   42  C   UNL     1      -6.890  10.412  65.943  1.00  0.00    -0.131 A  
HETATM   43  C   UNL     1      -7.232   9.242  66.614  1.00  0.00    -0.082 A  
HETATM   44  C   UNL     1      -6.741   8.004  66.223  1.00  0.00    -0.054 A  
HETATM   45  C   UNL     1      -7.504   9.208  68.038  1.00  0.00    -0.084 C  
HETATM   46  C   UNL     1      -6.447   9.636  68.778  1.00  0.00    -0.047 C  
ENDBRANCH  27  28
ENDBRANCH  14  24
TORSDOF 3
ENDMDL
MODEL       99
REMARK 921   NORMALIZED FREE ENERGY PREDICTED BY IDOCK:   -2.50 KCAL/MOL
REMARK 922        TOTAL FREE ENERGY PREDICTED BY IDOCK:   -2.47 KCAL/MOL
REMARK 923 INTER-LIGAND FREE ENERGY PREDICTED BY IDOCK:   -3.89 KCAL/MOL
REMARK 924 INTRA-LIGAND FREE ENERGY PREDICTED BY IDOCK:    1.42 KCAL/MOL
REMARK 927      BINDING AFFINITY PREDICTED BY RF-SCORE:    0.00 PKD
ROOT
HETATM    1  C   UNL     1      -9.873  14.756  67.988  1.00  0.00    -0.218 C  
HETATM    2  C   UNL     1      -9.686  16.116  67.320  1.00  0.00    -0.233 C  
HETATM    3  C   UNL     1     -10.608  17.050  68.159  1.00  0.00    -0.369 C  
HETATM    4  C   UNL     1     -11.445  16.135  69.052  1.00  0.00    -0.323 C  
HETATM    5  N   UNL     1     -11.208  14.809  68.544  1.00  0.00    -0.263 N  
HETATM    6  C   UNL     1     -11.643  13.746  69.295  1.00  0.00    -0.312 C  
HETATM    7  O   UNL     1     -12.744  13.748  69.837  1.00  0.00    -0.177 OA 
HETATM    8  C   UNL     1     -10.700  12.529  69.280  1.00  0.00     0.072 C  
HETATM    9  N   UNL     1      -9.204  12.783  68.925  1.00  0.00     0.198 N  
HETATM   10  C   UNL     1      -7.679   8.717  68.287  1.00  0.00    -0.101 C  
HETATM   11  C   UNL     1      -8.317  11.740  68.720  1.00  0.00    -0.009 C  
HETATM   12  C   UNL     1      -9.750   9.067  69.440  1.00  0.00    -0.169 C  
HETATM   13  O   UNL     1      -7.267  11.587  69.339  1.00  0.00    -0.092 OA 
HETATM   14  C   UNL     1      -8.791  10.982  67.483  1.00  0.00    -0.131 C  
HETATM   15  C   UNL     1      -9.253  13.331  67.628  1.00  0.00    -0.209 C  
HETATM   16  O   UNL     1      -7.988  13.634  67.035  1.00  0.00    -0.363 OA 
HETATM   17  H   UNL     1      -7.619  12.785  66.821  1.00  0.00     0.000 HD 
HETATM   18  C   UNL     1      -9.066   9.440  68.112  1.00  0.00    -0.129 C  
HETATM   19  O   UNL     1      -9.739  12.120  67.031  1.00  0.00    -0.197 OA 
ENDROOT
BRANCH   8  20
HETATM   20  C   UNL     1     -10.914  11.723  70.514  1.00  0.00     1.333 C  
HETATM   21  C   UNL     1     -13.071  10.636  69.853  1.00  0.00     0.330 C  
HETATM   22  C   UNL     1     -11.683  10.432  70.454  1.00  0.00    -0.419 C  
HETATM   23  C   UNL     1     -11.788   9.988  71.916  1.00  0.00     0.017 C  
ENDBRANCH   8  20
BRANCH  14  24
HETATM   24  N   UNL     1      -8.092  10.710  66.236  1.00  0.00    -0.146 N  
HETATM   25  H   UNL     1      -7.161  11.063  66.011  1.00  0.00     0.000 HD 
HETATM   26  O   UNL     1     -10.064   9.823  65.599  1.00  0.00    -0.296 OA 
HETATM   27  C   UNL     1      -8.846   9.914  65.393  1.00  0.00    -0.168 C  
BRANCH  27  28
HETATM   28  C   UNL     1      -8.200   9.181  64.223  1.00  0.00    -0.161 C  
HETATM   29  C   UNL     1      -6.663   9.020  64.178  1.00  0.00    -0.083 C  
HETATM   30  N   UNL     1      -6.365   7.718  63.479  1.00  0.00    -0.062 NA 
HETATM   31  C   UNL     1      -6.627   6.561  64.426  1.00  0.00    -0.038 C  
HETATM   32  C   UNL     1      -5.131   7.772  62.739  1.00  0.00    -0.046 C  
HETATM   33  C   UNL     1      -6.809   5.068  63.837  1.00  0.00    -0.047 C  
HETATM   34  C   UNL     1      -8.091   4.370  64.306  1.00  0.00    -0.097 A  
HETATM   35  C   UNL     1      -8.887   3.338  63.867  1.00  0.00    -0.092 A  
HETATM   36 BR   UNL     1      -8.555   2.236  62.400  1.00  0.00    -0.074 Br 
HETATM   37  N   UNL     1     -10.042   3.296  64.618  1.00  0.00    -0.358 NA 
HETATM   38  C   UNL     1     -10.041   4.297  65.565  1.00  0.00    -0.223 A  
HETATM   39  H   UNL     1     -10.793   2.618  64.490  1.00  0.00     0.000 HD 
HETATM   40  C   UNL     1     -11.020   4.825  66.425  1.00  0.00     0.389 A  
HETATM   41  C   UNL     1     -10.666   5.940  67.213  1.00  0.00    -0.380 A  
HETATM   42  C   UNL     1      -9.429   6.553  67.079  1.00  0.00    -0.161 A  
HETATM   43  C   UNL     1      -8.586   6.099  66.068  1.00  0.00    -0.145 A  
HETATM   44  C   UNL     1      -8.809   4.896  65.414  1.00  0.00    -0.149 A  
HETATM   45  C   UNL     1      -7.889   6.997  65.168  1.00  0.00    -0.124 C  
HETATM   46  C   UNL     1      -8.742   7.789  64.464  1.00  0.00     0.339 C  
ENDBRANCH  27  28
ENDBRANCH  14  24
TORSDOF 3
ENDMDL
MODEL      100
REMARK 921   NORMALIZED FREE ENERGY PREDICTED BY IDOCK:   -2.08 KCAL/MOL
REMARK 922        TOTAL FREE ENERGY PREDICTED BY IDOCK:   -1.98 KCAL/MOL
REMARK 923 INTER-LIGAND FREE ENERGY PREDICTED BY IDOCK:   -7.26 KCAL/MOL
REMARK 924 INTRA-LIGAND FREE ENERGY PREDICTED BY IDOCK:    5.28 KCAL/MOL
REMARK 927      BINDING AFFINITY PREDICTED BY RF-SCORE:    0.00 PKD
ROOT
HETATM    1  C   UNL     1      -9.263  11.657  68.194  1.00  0.00    -0.184 C  
HETATM    2  C   UNL     1      -8.137  12.054  67.243  1.00  0.00    -0.174 C  
HETATM    3  C   UNL     1      -8.408  13.567  66.989  1.00  0.00    -0.096 C  
HETATM    4  C   UNL     1      -9.787  13.860  67.578  1.00  0.00    -0.236 C  
HETATM    5  N   UNL     1     -10.343  12.564  67.872  1.00  0.00    -0.211 N  
HETATM    6  C   UNL     1     -11.485  12.512  68.631  1.00  0.00    -0.306 C  
HETATM    7  O   UNL     1     -12.419  13.287  68.444  1.00  0.00     0.005 OA 
HETATM    8  C   UNL     1     -11.537  11.334  69.622  1.00  0.00    -0.330 C  
HETATM    9  N   UNL     1     -10.182  10.698  70.052  1.00  0.00     0.015 N  
HETATM   10  C   UNL     1     -11.464   7.011  72.060  1.00  0.00    -0.308 C  
HETATM   11  C   UNL     1     -10.129   9.535  70.802  1.00  0.00    -0.282 C  
HETATM   12  C   UNL     1     -13.028   8.783  71.665  1.00  0.00    -0.390 C  
HETATM   13  O   UNL     1      -9.556   9.428  71.883  1.00  0.00    -0.187 OA 
HETATM   14  C   UNL     1     -10.721   8.420  69.944  1.00  0.00    -0.227 C  
HETATM   15  C   UNL     1      -9.621  10.245  68.843  1.00  0.00    -0.190 C  
HETATM   16  O   UNL     1      -8.363   9.576  68.955  1.00  0.00    -0.115 OA 
HETATM   17  H   UNL     1      -8.576   8.734  69.341  1.00  0.00     0.000 HD 
HETATM   18  C   UNL     1     -12.020   7.911  70.894  1.00  0.00    -0.211 C  
HETATM   19  O   UNL     1     -10.632   9.247  68.637  1.00  0.00    -0.215 OA 
ENDROOT
BRANCH   8  20
HETATM   20  C   UNL     1     -12.445  11.679  70.751  1.00  0.00    -0.425 C  
HETATM   21  C   UNL     1     -11.664  14.028  71.126  1.00  0.00     0.030 C  
HETATM   22  C   UNL     1     -12.869  13.104  70.976  1.00  0.00    -0.295 C  
HETATM   23  C   UNL     1     -13.676  13.055  72.276  1.00  0.00    -0.608 C  
ENDBRANCH   8  20
BRANCH  14  24
HETATM   24  N   UNL     1     -10.122   7.168  69.506  1.00  0.00    -0.175 N  
HETATM   25  H   UNL     1     -10.591   6.484  68.911  1.00  0.00     0.000 HD 
HETATM   26  O   UNL     1      -8.488   7.715  70.959  1.00  0.00    -0.114 OA 
HETATM   27  C   UNL     1      -8.836   7.020  69.995  1.00  0.00    -0.142 C  
BRANCH  27  28
HETATM   28  C   UNL     1      -7.875   6.011  69.378  1.00  0.00    -0.099 C  
HETATM   29  C   UNL     1      -8.299   4.529  69.255  1.00  0.00    -0.078 C  
HETATM   30  N   UNL     1      -7.633   3.969  68.024  1.00  0.00    -0.067 NA 
HETATM   31  C   UNL     1      -8.364   4.456  66.786  1.00  0.00    -0.105 C  
HETATM   32  C   UNL     1      -7.320   2.571  68.168  1.00  0.00    -0.048 C  
HETATM   33  C   UNL     1      -7.639   4.376  65.345  1.00  0.00    -0.085 C  
HETATM   34  C   UNL     1      -7.634   5.706  64.582  1.00  0.00    -0.085 A  
HETATM   35  C   UNL     1      -6.893   6.279  63.573  1.00  0.00    -0.045 A  
HETATM   36 BR   UNL     1      -5.526   5.459  62.607  1.00  0.00    -0.014 Br 
HETATM   37  N   UNL     1      -7.243   7.605  63.442  1.00  0.00    -0.078 NA 
HETATM   38  C   UNL     1      -8.214   7.944  64.359  1.00  0.00    -0.051 A  
HETATM   39  H   UNL     1      -6.838   8.247  62.761  1.00  0.00     0.000 HD 
HETATM   40  C   UNL     1      -8.763   9.163  64.791  1.00  0.00    -0.208 A  
HETATM   41  C   UNL     1      -9.702   9.123  65.843  1.00  0.00    -0.336 A  
HETATM   42  C   UNL     1     -10.005   7.935  66.492  1.00  0.00    -0.267 A  
HETATM   43  C   UNL     1      -9.277   6.801  66.144  1.00  0.00    -0.120 A  
HETATM   44  C   UNL     1      -8.498   6.755  64.995  1.00  0.00     0.004 A  
HETATM   45  C   UNL     1      -8.706   5.904  67.130  1.00  0.00    -0.108 C  
HETATM   46  C   UNL     1      -7.832   6.534  67.960  1.00  0.00    -0.105 C  
ENDBRANCH  27  28
ENDBRANCH  14  24
TORSDOF 3
ENDMDL
MODEL      101
REMARK 921   NORMALIZED FREE ENERGY PREDICTED BY IDOCK:   -2.01 KCAL/MOL
REMARK 922        TOTAL FREE ENERGY PREDICTED BY IDOCK:   -1.90 KCAL/MOL
REMARK 923 INTER-LIGAND FREE ENERGY PREDICTED BY IDOCK:   -5.43 KCAL/MOL
REMARK 924 INTRA-LIGAND FREE ENERGY PREDICTED BY IDOCK:    3.53 KCAL/MOL
REMARK 927      BINDING AFFINITY PREDICTED BY RF-SCORE:    0.00 PKD
ROOT
HETATM    1  C   UNL     1     -10.599  14.574  67.297  1.00  0.00    -0.280 C  
HETATM    2  C   UNL     1      -9.927  15.214  66.084  1.00  0.00    -0.317 C  
HETATM    3  C   UNL     1      -9.999  16.737  66.404  1.00  0.00    -0.317 C  
HETATM    4  C   UNL     1     -10.923  16.877  67.613  1.00  0.00    -0.165 C  
HETATM    5  N   UNL     1     -11.529  15.579  67.764  1.00  0.00    -0.292 N  
HETATM    6  C   UNL     1     -12.233  15.329  68.915  1.00  0.00    -0.097 C  
HETATM    7  O   UNL     1     -13.001  16.159  69.394  1.00  0.00     0.439 OA 
HETATM    8  C   UNL     1     -12.076  13.897  69.458  1.00  0.00    -0.342 C  
HETATM    9  N   UNL     1     -10.807  13.101  69.030  1.00  0.00    -0.206 N  
HETATM   10  C   UNL     1     -11.772   9.017  70.316  1.00  0.00    -0.008 C  
HETATM   11  C   UNL     1     -10.656  11.757  69.325  1.00  0.00    -0.008 C  
HETATM   12  C   UNL     1     -13.005  10.882  71.177  1.00  0.00    -0.449 C  
HETATM   13  O   UNL     1      -9.711  11.282  69.949  1.00  0.00     0.651 OA 
HETATM   14  C   UNL     1     -11.746  11.005  68.567  1.00  0.00    -0.278 C  
HETATM   15  C   UNL     1     -10.901  13.043  67.626  1.00  0.00    -0.239 C  
HETATM   16  O   UNL     1      -9.858  12.325  66.964  1.00  0.00    -0.201 OA 
HETATM   17  H   UNL     1     -10.038  11.413  67.160  1.00  0.00     0.000 HD 
HETATM   18  C   UNL     1     -12.593  10.268  69.827  1.00  0.00     0.115 C  
HETATM   19  O   UNL     1     -12.067  12.207  67.643  1.00  0.00    -0.522 OA 
ENDROOT
BRANCH   8  20
HETATM   20  C   UNL     1     -12.345  13.892  70.923  1.00  0.00    -0.451 C  
HETATM   21  C   UNL     1     -10.743  15.701  71.580  1.00  0.00     0.319 C  
HETATM   22  C   UNL     1     -12.156  15.145  71.733  1.00  0.00    -0.437 C  
HETATM   23  C   UNL     1     -12.407  14.700  73.177  1.00  0.00    -0.351 C  
ENDBRANCH   8  20
BRANCH  14  24
HETATM   24  N   UNL     1     -11.627   9.941  67.581  1.00  0.00    -0.021 N  
HETATM   25  H   UNL     1     -12.415   9.532  67.079  1.00  0.00     0.000 HD 
HETATM   26  O   UNL     1      -9.487   9.852  68.285  1.00  0.00    -0.138 OA 
HETATM   27  C   UNL     1     -10.310   9.550  67.411  1.00  0.00    -0.258 C  
BRANCH  27  28
HETATM   28  C   UNL     1      -9.884   8.750  66.186  1.00  0.00    -0.297 C  
HETATM   29  C   UNL     1      -9.079   9.444  65.062  1.00  0.00    -0.215 C  
HETATM   30  N   UNL     1      -8.170   8.408  64.451  1.00  0.00    -0.159 NA 
HETATM   31  C   UNL     1      -6.991   8.161  65.374  1.00  0.00    -0.063 C  
HETATM   32  C   UNL     1      -7.945   8.646  63.049  1.00  0.00    -0.161 C  
HETATM   33  C   UNL     1      -6.101   6.824  65.196  1.00  0.00    -0.035 C  
HETATM   34  C   UNL     1      -5.935   6.016  66.489  1.00  0.00    -0.025 A  
HETATM   35  C   UNL     1      -5.635   4.716  66.825  1.00  0.00    -0.014 A  
HETATM   36 BR   UNL     1      -5.170   3.351  65.644  1.00  0.00    -0.009 Br 
HETATM   37  N   UNL     1      -5.830   4.534  68.177  1.00  0.00    -0.024 NA 
HETATM   38  C   UNL     1      -6.266   5.701  68.766  1.00  0.00    -0.029 A  
HETATM   39  H   UNL     1      -5.673   3.657  68.673  1.00  0.00     0.000 HD 
HETATM   40  C   UNL     1      -6.798   6.015  70.028  1.00  0.00    -0.057 A  
HETATM   41  C   UNL     1      -7.229   7.341  70.246  1.00  0.00    -0.067 A  
HETATM   42  C   UNL     1      -7.216   8.279  69.224  1.00  0.00    -0.064 A  
HETATM   43  C   UNL     1      -6.864   7.845  67.949  1.00  0.00    -0.072 A  
HETATM   44  C   UNL     1      -6.251   6.617  67.737  1.00  0.00    -0.035 A  
HETATM   45  C   UNL     1      -7.622   8.199  66.765  1.00  0.00    -0.094 C  
HETATM   46  C   UNL     1      -8.916   7.786  66.835  1.00  0.00    -0.153 C  
ENDBRANCH  27  28
ENDBRANCH  14  24
TORSDOF 3
ENDMDL
MODEL      102
REMARK 921   NORMALIZED FREE ENERGY PREDICTED BY IDOCK:   -1.92 KCAL/MOL
REMARK 922        TOTAL FREE ENERGY PREDICTED BY IDOCK:   -1.79 KCAL/MOL
REMARK 923 INTER-LIGAND FREE ENERGY PREDICTED BY IDOCK:   -4.05 KCAL/MOL
REMARK 924 INTRA-LIGAND FREE ENERGY PREDICTED BY IDOCK:    2.25 KCAL/MOL
REMARK 927      BINDING AFFINITY PREDICTED BY RF-SCORE:    0.00 PKD
ROOT
HETATM    1  C   UNL     1      -9.849  14.960  66.639  1.00  0.00    -0.260 C  
HETATM    2  C   UNL     1     -10.623  15.540  65.458  1.00  0.00    -0.413 C  
HETATM    3  C   UNL     1     -10.702  17.058  65.800  1.00  0.00    -0.146 C  
HETATM    4  C   UNL     1     -10.220  17.197  67.243  1.00  0.00    -0.316 C  
HETATM    5  N   UNL     1     -10.155  15.847  67.740  1.00  0.00    -0.241 N  
HETATM    6  C   UNL     1      -9.527  15.635  68.942  1.00  0.00    -0.228 C  
HETATM    7  O   UNL     1      -9.703  16.380  69.902  1.00  0.00     0.019 OA 
HETATM    8  C   UNL     1      -8.709  14.332  69.010  1.00  0.00     0.060 C  
HETATM    9  N   UNL     1      -8.233  13.711  67.662  1.00  0.00    -0.164 N  
HETATM   10  C   UNL     1      -6.863   9.726  68.888  1.00  0.00    -0.054 C  
HETATM   11  C   UNL     1      -7.640  12.461  67.605  1.00  0.00    -0.141 C  
HETATM   12  C   UNL     1      -7.176  11.453  70.518  1.00  0.00     1.776 C  
HETATM   13  O   UNL     1      -6.532  12.236  67.128  1.00  0.00    -0.155 OA 
HETATM   14  C   UNL     1      -8.692  11.445  68.044  1.00  0.00    -0.148 C  
HETATM   15  C   UNL     1      -9.430  13.456  66.965  1.00  0.00    -0.247 C  
HETATM   16  O   UNL     1      -9.282  12.842  65.683  1.00  0.00    -0.446 OA 
HETATM   17  H   UNL     1      -9.032  11.947  65.877  1.00  0.00     0.000 HD 
HETATM   18  C   UNL     1      -7.950  10.747  69.390  1.00  0.00    -0.075 C  
HETATM   19  O   UNL     1      -9.864  12.446  67.888  1.00  0.00    -0.191 OA 
ENDROOT
BRANCH   8  20
HETATM   20  C   UNL     1      -7.641  14.473  70.038  1.00  0.00     0.369 C  
HETATM   21  C   UNL     1      -5.754  15.071  68.504  1.00  0.00    -0.098 C  
HETATM   22  C   UNL     1      -6.481  15.401  69.805  1.00  0.00    -0.171 C  
HETATM   23  C   UNL     1      -5.564  15.167  71.009  1.00  0.00    -0.029 C  
ENDBRANCH   8  20
BRANCH  14  24
HETATM   24  N   UNL     1      -9.229  10.297  67.330  1.00  0.00    -0.141 N  
HETATM   25  H   UNL     1      -9.348  10.255  66.317  1.00  0.00     0.000 HD 
HETATM   26  O   UNL     1      -9.697   9.528  69.396  1.00  0.00    -0.166 OA 
HETATM   27  C   UNL     1      -9.558   9.267  68.194  1.00  0.00    -0.143 C  
BRANCH  27  28
HETATM   28  C   UNL     1      -9.764   7.848  67.678  1.00  0.00    -0.196 C  
HETATM   29  C   UNL     1      -8.721   7.223  66.723  1.00  0.00    -0.130 C  
HETATM   30  N   UNL     1      -8.699   5.739  66.988  1.00  0.00    -0.110 NA 
HETATM   31  C   UNL     1      -7.938   5.464  68.272  1.00  0.00    -0.088 C  
HETATM   32  C   UNL     1      -8.397   4.983  65.800  1.00  0.00    -0.118 C  
HETATM   33  C   UNL     1      -8.116   4.043  69.020  1.00  0.00    -0.075 C  
HETATM   34  C   UNL     1      -8.485   4.168  70.503  1.00  0.00    -0.095 A  
HETATM   35  C   UNL     1      -9.083   3.376  71.456  1.00  0.00    -0.108 A  
HETATM   36 BR   UNL     1      -9.622   1.605  71.238  1.00  0.00    -0.201 Br 
HETATM   37  N   UNL     1      -9.327   4.123  72.588  1.00  0.00    -0.120 NA 
HETATM   38  C   UNL     1      -8.903   5.423  72.412  1.00  0.00    -0.131 A  
HETATM   39  H   UNL     1      -9.761   3.764  73.438  1.00  0.00     0.000 HD 
HETATM   40  C   UNL     1      -9.087   6.613  73.136  1.00  0.00    -0.141 A  
HETATM   41  C   UNL     1      -8.564   7.802  72.585  1.00  0.00    -0.191 A  
HETATM   42  C   UNL     1      -7.970   7.813  71.332  1.00  0.00    -0.097 A  
HETATM   43  C   UNL     1      -8.000   6.637  70.588  1.00  0.00    -0.111 A  
HETATM   44  C   UNL     1      -8.321   5.415  71.163  1.00  0.00    -0.124 A  
HETATM   45  C   UNL     1      -8.374   6.606  69.188  1.00  0.00    -0.124 C  
HETATM   46  C   UNL     1      -9.629   7.083  68.976  1.00  0.00    -0.141 C  
ENDBRANCH  27  28
ENDBRANCH  14  24
TORSDOF 3
ENDMDL
MODEL      103
REMARK 921   NORMALIZED FREE ENERGY PREDICTED BY IDOCK:   -1.91 KCAL/MOL
REMARK 922        TOTAL FREE ENERGY PREDICTED BY IDOCK:   -1.77 KCAL/MOL
REMARK 923 INTER-LIGAND FREE ENERGY PREDICTED BY IDOCK:   -2.22 KCAL/MOL
REMARK 924 INTRA-LIGAND FREE ENERGY PREDICTED BY IDOCK:    0.44 KCAL/MOL
REMARK 927      BINDING AFFINITY PREDICTED BY RF-SCORE:    0.00 PKD
ROOT
HETATM    1  C   UNL     1      -9.530  16.218  67.392  1.00  0.00    -0.227 C  
HETATM    2  C   UNL     1     -10.275  17.240  66.536  1.00  0.00    -0.325 C  
HETATM    3  C   UNL     1     -10.690  18.328  67.571  1.00  0.00    -0.381 C  
HETATM    4  C   UNL     1     -10.401  17.739  68.951  1.00  0.00    -0.300 C  
HETATM    5  N   UNL     1     -10.121  16.348  68.705  1.00  0.00    -0.234 N  
HETATM    6  C   UNL     1      -9.595  15.608  69.733  1.00  0.00    -0.190 C  
HETATM    7  O   UNL     1     -10.016  15.708  70.882  1.00  0.00     0.476 OA 
HETATM    8  C   UNL     1      -8.544  14.570  69.296  1.00  0.00     0.109 C  
HETATM    9  N   UNL     1      -7.814  14.813  67.941  1.00  0.00    -0.125 N  
HETATM   10  C   UNL     1      -5.814  10.970  67.240  1.00  0.00    -0.053 C  
HETATM   11  C   UNL     1      -6.981  13.860  67.381  1.00  0.00    -0.043 C  
HETATM   12  C   UNL     1      -6.636  11.528  69.420  1.00  0.00    -0.117 C  
HETATM   13  O   UNL     1      -5.806  14.050  67.081  1.00  0.00    -0.205 OA 
HETATM   14  C   UNL     1      -7.849  12.652  67.037  1.00  0.00    -0.038 C  
HETATM   15  C   UNL     1      -8.856  14.829  66.993  1.00  0.00    -0.237 C  
HETATM   16  O   UNL     1      -8.453  15.006  65.633  1.00  0.00     0.392 OA 
HETATM   17  H   UNL     1      -8.052  14.178  65.396  1.00  0.00     0.000 HD 
HETATM   18  C   UNL     1      -7.130  11.439  67.965  1.00  0.00    -0.074 C  
HETATM   19  O   UNL     1      -9.174  13.442  67.179  1.00  0.00    -0.221 OA 
ENDROOT
BRANCH   8  20
HETATM   20  C   UNL     1      -7.641  14.269  70.441  1.00  0.00     1.149 C  
HETATM   21  C   UNL     1      -5.759  15.798  69.815  1.00  0.00    -0.136 C  
HETATM   22  C   UNL     1      -6.671  15.306  70.935  1.00  0.00     0.687 C  
HETATM   23  C   UNL     1      -5.859  14.579  72.011  1.00  0.00     0.114 C  
ENDBRANCH   8  20
BRANCH  14  24
HETATM   24  N   UNL     1      -8.068  12.001  65.754  1.00  0.00     0.070 N  
HETATM   25  H   UNL     1      -7.811  12.406  64.853  1.00  0.00     0.000 HD 
HETATM   26  O   UNL     1      -9.238  10.511  66.976  1.00  0.00    -0.149 OA 
HETATM   27  C   UNL     1      -8.667  10.763  65.906  1.00  0.00    -0.181 C  
BRANCH  27  28
HETATM   28  C   UNL     1      -8.644   9.738  64.778  1.00  0.00    -0.195 C  
HETATM   29  C   UNL     1      -7.310   9.415  64.066  1.00  0.00    -0.105 C  
HETATM   30  N   UNL     1      -7.366   7.972  63.635  1.00  0.00    -0.099 NA 
HETATM   31  C   UNL     1      -7.137   7.073  64.836  1.00  0.00    -0.064 C  
HETATM   32  C   UNL     1      -6.631   7.743  62.418  1.00  0.00    -0.080 C  
HETATM   33  C   UNL     1      -7.561   5.517  64.765  1.00  0.00    -0.079 C  
HETATM   34  C   UNL     1      -8.460   5.067  65.923  1.00  0.00    -0.121 A  
HETATM   35  C   UNL     1      -9.360   4.052  66.156  1.00  0.00    -0.171 A  
HETATM   36 BR   UNL     1      -9.751   2.639  65.006  1.00  0.00     0.181 Br 
HETATM   37  N   UNL     1     -10.020   4.287  67.343  1.00  0.00    -0.124 NA 
HETATM   38  C   UNL     1      -9.581   5.460  67.919  1.00  0.00    -0.129 A  
HETATM   39  H   UNL     1     -10.735   3.678  67.739  1.00  0.00     0.000 HD 
HETATM   40  C   UNL     1     -10.041   6.254  68.983  1.00  0.00    -0.206 A  
HETATM   41  C   UNL     1      -9.367   7.468  69.233  1.00  0.00    -0.151 A  
HETATM   42  C   UNL     1      -8.347   7.909  68.403  1.00  0.00    -0.124 A  
HETATM   43  C   UNL     1      -8.079   7.169  67.255  1.00  0.00    -0.115 A  
HETATM   44  C   UNL     1      -8.574   5.884  67.079  1.00  0.00    -0.110 A  
HETATM   45  C   UNL     1      -7.901   7.782  65.953  1.00  0.00    -0.102 C  
HETATM   46  C   UNL     1      -8.993   8.491  65.560  1.00  0.00    -0.182 C  
ENDBRANCH  27  28
ENDBRANCH  14  24
TORSDOF 3
ENDMDL
MODEL      104
REMARK 921   NORMALIZED FREE ENERGY PREDICTED BY IDOCK:   -1.56 KCAL/MOL
REMARK 922        TOTAL FREE ENERGY PREDICTED BY IDOCK:   -1.36 KCAL/MOL
REMARK 923 INTER-LIGAND FREE ENERGY PREDICTED BY IDOCK:   -4.36 KCAL/MOL
REMARK 924 INTRA-LIGAND FREE ENERGY PREDICTED BY IDOCK:    2.99 KCAL/MOL
REMARK 927      BINDING AFFINITY PREDICTED BY RF-SCORE:    0.00 PKD
ROOT
HETATM    1  C   UNL     1      -6.937  18.212  65.847  1.00  0.00    -0.284 C  
HETATM    2  C   UNL     1      -6.282  17.904  64.503  1.00  0.00     1.637 C  
HETATM    3  C   UNL     1      -5.133  18.954  64.424  1.00  0.00    -0.229 C  
HETATM    4  C   UNL     1      -5.373  19.938  65.569  1.00  0.00    -0.162 C  
HETATM    5  N   UNL     1      -6.691  19.622  66.053  1.00  0.00    -0.222 N  
HETATM    6  C   UNL     1      -7.092  20.186  67.238  1.00  0.00    -0.260 C  
HETATM    7  O   UNL     1      -6.869  21.365  67.499  1.00  0.00    -0.548 OA 
HETATM    8  C   UNL     1      -7.943  19.261  68.128  1.00  0.00    -0.308 C  
HETATM    9  N   UNL     1      -7.809  17.725  67.902  1.00  0.00    -0.226 N  
HETATM   10  C   UNL     1     -11.192  16.132  70.200  1.00  0.00    -0.374 C  
HETATM   11  C   UNL     1      -8.649  16.820  68.529  1.00  0.00    -0.245 C  
HETATM   12  C   UNL     1     -10.421  18.370  70.572  1.00  0.00     1.953 C  
HETATM   13  O   UNL     1      -8.270  15.895  69.241  1.00  0.00    -0.226 OA 
HETATM   14  C   UNL     1     -10.058  17.076  68.001  1.00  0.00    -0.305 C  
HETATM   15  C   UNL     1      -8.199  17.545  66.561  1.00  0.00    -0.276 C  
HETATM   16  O   UNL     1      -8.200  16.195  66.091  1.00  0.00    -0.299 OA 
HETATM   17  H   UNL     1      -8.952  15.798  66.516  1.00  0.00     0.000 HD 
HETATM   18  C   UNL     1     -10.888  17.464  69.418  1.00  0.00     0.275 C  
HETATM   19  O   UNL     1      -9.561  17.926  66.805  1.00  0.00    -0.282 OA 
ENDROOT
BRANCH   8  20
HETATM   20  C   UNL     1      -7.819  19.690  69.549  1.00  0.00     0.102 C  
HETATM   21  C   UNL     1      -5.626  18.594  70.057  1.00  0.00    -0.239 C  
HETATM   22  C   UNL     1      -6.462  19.865  70.173  1.00  0.00    -0.314 C  
HETATM   23  C   UNL     1      -6.761  20.181  71.641  1.00  0.00     0.376 C  
ENDBRANCH   8  20
BRANCH  14  24
HETATM   24  N   UNL     1     -10.973  16.172  67.319  1.00  0.00    -0.237 N  
HETATM   25  H   UNL     1     -11.705  16.474  66.676  1.00  0.00     0.000 HD 
HETATM   26  O   UNL     1     -10.066  14.614  68.673  1.00  0.00    -0.225 OA 
HETATM   27  C   UNL     1     -10.726  14.852  67.652  1.00  0.00    -0.270 C  
BRANCH  27  28
HETATM   28  C   UNL     1     -11.271  13.714  66.797  1.00  0.00    -0.327 C  
HETATM   29  C   UNL     1     -11.162  13.797  65.257  1.00  0.00    -0.307 C  
HETATM   30  N   UNL     1     -11.013  12.389  64.738  1.00  0.00    -0.290 NA 
HETATM   31  C   UNL     1      -9.596  11.906  64.981  1.00  0.00    -0.091 C  
HETATM   32  C   UNL     1     -11.614  12.227  63.439  1.00  0.00    -0.447 C  
HETATM   33  C   UNL     1      -9.268  10.325  64.927  1.00  0.00    -0.273 C  
HETATM   34  C   UNL     1      -8.539   9.802  66.170  1.00  0.00    -0.138 A  
HETATM   35  C   UNL     1      -8.365   8.587  66.792  1.00  0.00    -0.109 A  
HETATM   36 BR   UNL     1      -8.965   6.935  66.171  1.00  0.00    -0.129 Br 
HETATM   37  N   UNL     1      -7.759   8.778  68.015  1.00  0.00    -0.100 NA 
HETATM   38  C   UNL     1      -7.524  10.118  68.235  1.00  0.00    -0.082 A  
HETATM   39  H   UNL     1      -7.519   8.032  68.666  1.00  0.00     0.000 HD 
HETATM   40  C   UNL     1      -7.136  10.867  69.359  1.00  0.00    -0.131 A  
HETATM   41  C   UNL     1      -7.083  12.270  69.226  1.00  0.00     0.061 A  
HETATM   42  C   UNL     1      -7.487  12.897  68.056  1.00  0.00    -0.125 A  
HETATM   43  C   UNL     1      -8.046  12.107  67.055  1.00  0.00    -0.154 A  
HETATM   44  C   UNL     1      -7.935  10.723  67.067  1.00  0.00    -0.124 A  
HETATM   45  C   UNL     1      -9.266  12.471  66.361  1.00  0.00    -0.177 C  
HETATM   46  C   UNL     1     -10.322  12.610  67.207  1.00  0.00    -0.230 C  
ENDBRANCH  27  28
ENDBRANCH  14  24
TORSDOF 3
ENDMDL
MODEL      105
REMARK 921   NORMALIZED FREE ENERGY PREDICTED BY IDOCK:   -1.43 KCAL/MOL
REMARK 922        TOTAL FREE ENERGY PREDICTED BY IDOCK:   -1.21 KCAL/MOL
REMARK 923 INTER-LIGAND FREE ENERGY PREDICTED BY IDOCK:   -3.22 KCAL/MOL
REMARK 924 INTRA-LIGAND FREE ENERGY PREDICTED BY IDOCK:    2.01 KCAL/MOL
REMARK 927      BINDING AFFINITY PREDICTED BY RF-SCORE:    0.00 PKD
ROOT
HETATM    1  C   UNL     1     -10.263   7.083  67.348  1.00  0.00    -0.215 C  
HETATM    2  C   UNL     1     -11.323   6.018  67.619  1.00  0.00     0.255 C  
HETATM    3  C   UNL     1     -10.897   4.851  66.678  1.00  0.00     0.124 C  
HETATM    4  C   UNL     1      -9.814   5.415  65.759  1.00  0.00     0.022 C  
HETATM    5  N   UNL     1      -9.846   6.837  65.984  1.00  0.00     0.172 N  
HETATM    6  C   UNL     1      -8.822   7.592  65.470  1.00  0.00     0.024 C  
HETATM    7  O   UNL     1      -8.385   7.402  64.339  1.00  0.00    -0.048 OA 
HETATM    8  C   UNL     1      -8.376   8.757  66.374  1.00  0.00    -0.116 C  
HETATM    9  N   UNL     1      -8.692   8.648  67.895  1.00  0.00    -0.137 N  
HETATM   10  C   UNL     1      -7.868  12.716  69.325  1.00  0.00     0.531 C  
HETATM   11  C   UNL     1      -8.486   9.710  68.760  1.00  0.00    -0.123 C  
HETATM   12  C   UNL     1      -7.035  11.986  67.200  1.00  0.00    -0.134 C  
HETATM   13  O   UNL     1      -7.781   9.664  69.764  1.00  0.00    -0.099 OA 
HETATM   14  C   UNL     1      -9.438  10.826  68.337  1.00  0.00    -0.174 C  
HETATM   15  C   UNL     1     -10.097   8.553  67.943  1.00  0.00    -0.207 C  
HETATM   16  O   UNL     1     -10.669   8.475  69.250  1.00  0.00    -0.313 OA 
HETATM   17  H   UNL     1     -10.570   9.350  69.605  1.00  0.00     0.000 HD 
HETATM   18  C   UNL     1      -8.362  12.075  67.975  1.00  0.00    -0.162 C  
HETATM   19  O   UNL     1     -10.299   9.888  67.455  1.00  0.00    -0.213 OA 
ENDROOT
BRANCH   8  20
HETATM   20  C   UNL     1      -6.964   9.113  66.059  1.00  0.00    -0.085 C  
HETATM   21  C   UNL     1      -7.349  10.100  63.789  1.00  0.00    -0.113 C  
HETATM   22  C   UNL     1      -6.659  10.264  65.140  1.00  0.00    -0.121 C  
HETATM   23  C   UNL     1      -5.137  10.221  64.977  1.00  0.00    -0.086 C  
ENDBRANCH   8  20
BRANCH  14  24
HETATM   24  N   UNL     1     -10.479  11.497  69.102  1.00  0.00    -0.394 N  
HETATM   25  H   UNL     1     -10.720  11.269  70.067  1.00  0.00     0.000 HD 
HETATM   26  O   UNL     1     -10.982  12.458  67.125  1.00  0.00    -0.243 OA 
HETATM   27  C   UNL     1     -11.101  12.484  68.357  1.00  0.00    -0.258 C  
BRANCH  27  28
HETATM   28  C   UNL     1     -11.932  13.568  69.034  1.00  0.00    -0.376 C  
HETATM   29  C   UNL     1     -11.917  13.691  70.575  1.00  0.00    -0.280 C  
HETATM   30  N   UNL     1     -12.106  15.148  70.914  1.00  0.00    -0.305 NA 
HETATM   31  C   UNL     1     -10.808  15.897  70.673  1.00  0.00    -0.213 C  
HETATM   32  C   UNL     1     -12.817  15.327  72.153  1.00  0.00    -0.357 C  
HETATM   33  C   UNL     1     -10.825  17.506  70.537  1.00  0.00     1.319 C  
HETATM   34  C   UNL     1     -10.137  18.026  69.270  1.00  0.00    -0.094 A  
HETATM   35  C   UNL     1     -10.178  19.170  68.505  1.00  0.00    -0.367 A  
HETATM   36 BR   UNL     1     -11.155  20.712  68.880  1.00  0.00     1.805 Br 
HETATM   37  N   UNL     1      -9.461  18.973  67.345  1.00  0.00    -0.298 NA 
HETATM   38  C   UNL     1      -8.934  17.700  67.310  1.00  0.00    -0.240 A  
HETATM   39  H   UNL     1      -9.338  19.673  66.613  1.00  0.00     0.000 HD 
HETATM   40  C   UNL     1      -8.319  16.928  66.310  1.00  0.00    -0.331 A  
HETATM   41  C   UNL     1      -7.981  15.596  66.626  1.00  0.00    -0.185 A  
HETATM   42  C   UNL     1      -8.326  15.037  67.848  1.00  0.00    -0.151 A  
HETATM   43  C   UNL     1      -9.108  15.797  68.712  1.00  0.00    -0.213 A  
HETATM   44  C   UNL     1      -9.290  17.161  68.527  1.00  0.00    -0.274 A  
HETATM   45  C   UNL     1     -10.270  15.260  69.393  1.00  0.00    -0.258 C  
HETATM   46  C   UNL     1     -11.210  14.796  68.527  1.00  0.00    -0.291 C  
ENDBRANCH  27  28
ENDBRANCH  14  24
TORSDOF 3
ENDMDL
MODEL      106
REMARK 921   NORMALIZED FREE ENERGY PREDICTED BY IDOCK:   -1.07 KCAL/MOL
REMARK 922        TOTAL FREE ENERGY PREDICTED BY IDOCK:   -0.79 KCAL/MOL
REMARK 923 INTER-LIGAND FREE ENERGY PREDICTED BY IDOCK:   -5.20 KCAL/MOL
REMARK 924 INTRA-LIGAND FREE ENERGY PREDICTED BY IDOCK:    4.41 KCAL/MOL
REMARK 927      BINDING AFFINITY PREDICTED BY RF-SCORE:    0.00 PKD
ROOT
HETATM    1  C   UNL     1      -9.111  10.029  68.431  1.00  0.00    -0.121 C  
HETATM    2  C   UNL     1      -8.156  10.393  67.297  1.00  0.00    -0.114 C  
HETATM    3  C   UNL     1      -8.718  11.754  66.786  1.00  0.00    -0.192 C  
HETATM    4  C   UNL     1     -10.076  11.937  67.462  1.00  0.00    -0.193 C  
HETATM    5  N   UNL     1     -10.361  10.660  68.065  1.00  0.00    -0.170 N  
HETATM    6  C   UNL     1     -11.410  10.586  68.946  1.00  0.00    -0.251 C  
HETATM    7  O   UNL     1     -12.482  11.142  68.721  1.00  0.00    -0.468 OA 
HETATM    8  C   UNL     1     -11.167   9.653  70.147  1.00  0.00    -0.256 C  
HETATM    9  N   UNL     1      -9.689   9.350  70.534  1.00  0.00    -0.256 N  
HETATM   10  C   UNL     1     -10.114   6.015  73.355  1.00  0.00    -0.205 C  
HETATM   11  C   UNL     1      -9.365   8.397  71.485  1.00  0.00    -0.200 C  
HETATM   12  C   UNL     1     -12.001   7.385  72.806  1.00  0.00    -0.017 C  
HETATM   13  O   UNL     1      -8.698   8.615  72.492  1.00  0.00    -0.360 OA 
HETATM   14  C   UNL     1      -9.811   7.044  70.934  1.00  0.00    -0.185 C  
HETATM   15  C   UNL     1      -9.153   8.748  69.379  1.00  0.00    -0.145 C  
HETATM   16  O   UNL     1      -7.790   8.330  69.473  1.00  0.00    -0.099 OA 
HETATM   17  H   UNL     1      -7.815   7.567  70.038  1.00  0.00     0.000 HD 
HETATM   18  C   UNL     1     -10.916   6.545  72.109  1.00  0.00    -0.283 C  
HETATM   19  O   UNL     1      -9.978   7.578  69.490  1.00  0.00    -0.175 OA 
ENDROOT
BRANCH   8  20
HETATM   20  C   UNL     1     -12.031  10.077  71.284  1.00  0.00    -0.483 C  
HETATM   21  C   UNL     1     -14.182   9.077  70.483  1.00  0.00     0.804 C  
HETATM   22  C   UNL     1     -13.236   9.263  71.666  1.00  0.00    -0.456 C  
HETATM   23  C   UNL     1     -13.909  10.084  72.770  1.00  0.00     0.513 C  
ENDBRANCH   8  20
BRANCH  14  24
HETATM   24  N   UNL     1      -9.031   5.842  70.682  1.00  0.00    -0.139 N  
HETATM   25  H   UNL     1      -9.420   4.970  70.321  1.00  0.00     0.000 HD 
HETATM   26  O   UNL     1      -7.386   6.976  71.726  1.00  0.00    -0.083 OA 
HETATM   27  C   UNL     1      -7.695   6.027  70.992  1.00  0.00    -0.102 C  
BRANCH  27  28
HETATM   28  C   UNL     1      -6.629   5.076  70.462  1.00  0.00    -0.035 C  
HETATM   29  C   UNL     1      -6.450   3.687  71.118  1.00  0.00    -0.022 C  
HETATM   30  N   UNL     1      -5.991   2.735  70.043  1.00  0.00    -0.022 NA 
HETATM   31  C   UNL     1      -7.170   2.355  69.165  1.00  0.00    -0.044 C  
HETATM   32  C   UNL     1      -5.126   1.709  70.564  1.00  0.00    -0.004 C  
HETATM   33  C   UNL     1      -6.908   1.709  67.709  1.00  0.00    -0.032 C  
HETATM   34  C   UNL     1      -7.642   2.430  66.572  1.00  0.00    -0.071 A  
HETATM   35  C   UNL     1      -7.503   2.551  65.208  1.00  0.00    -0.074 A  
HETATM   36 BR   UNL     1      -6.254   1.667  64.144  1.00  0.00    -0.014 Br 
HETATM   37  N   UNL     1      -8.369   3.517  64.742  1.00  0.00    -0.093 NA 
HETATM   38  C   UNL     1      -9.096   4.059  65.780  1.00  0.00    -0.142 A  
HETATM   39  H   UNL     1      -8.459   3.791  63.764  1.00  0.00     0.000 HD 
HETATM   40  C   UNL     1      -9.936   5.179  65.899  1.00  0.00    -0.145 A  
HETATM   41  C   UNL     1     -10.447   5.482  67.178  1.00  0.00    -0.321 A  
HETATM   42  C   UNL     1     -10.061   4.757  68.297  1.00  0.00    -0.109 A  
HETATM   43  C   UNL     1      -9.074   3.789  68.134  1.00  0.00    -0.190 A  
HETATM   44  C   UNL     1      -8.697   3.332  66.880  1.00  0.00    -0.134 A  
HETATM   45  C   UNL     1      -7.945   3.665  69.035  1.00  0.00    -0.063 C  
HETATM   46  C   UNL     1      -7.196   4.799  69.087  1.00  0.00    -0.053 C  
ENDBRANCH  27  28
ENDBRANCH  14  24
TORSDOF 3
ENDMDL
MODEL      107
REMARK 921   NORMALIZED FREE ENERGY PREDICTED BY IDOCK:   -1.01 KCAL/MOL
REMARK 922        TOTAL FREE ENERGY PREDICTED BY IDOCK:   -0.73 KCAL/MOL
REMARK 923 INTER-LIGAND FREE ENERGY PREDICTED BY IDOCK:   -2.85 KCAL/MOL
REMARK 924 INTRA-LIGAND FREE ENERGY PREDICTED BY IDOCK:    2.12 KCAL/MOL
REMARK 927      BINDING AFFINITY PREDICTED BY RF-SCORE:    0.00 PKD
ROOT
HETATM    1  C   UNL     1     -11.901  14.300  70.413  1.00  0.00    -0.305 C  
HETATM    2  C   UNL     1     -12.350  14.301  71.873  1.00  0.00    -0.329 C  
HETATM    3  C   UNL     1     -12.447  15.819  72.209  1.00  0.00    -0.533 C  
HETATM    4  C   UNL     1     -11.804  16.560  71.037  1.00  0.00     0.207 C  
HETATM    5  N   UNL     1     -11.157  15.532  70.264  1.00  0.00    -0.300 N  
HETATM    6  C   UNL     1     -10.690  15.864  69.018  1.00  0.00    -0.251 C  
HETATM    7  O   UNL     1     -10.096  16.918  68.811  1.00  0.00    -0.261 OA 
HETATM    8  C   UNL     1     -10.860  14.757  67.959  1.00  0.00    -0.260 C  
HETATM    9  N   UNL     1     -11.957  13.681  68.215  1.00  0.00    -0.363 N  
HETATM   10  C   UNL     1     -11.007  10.629  65.208  1.00  0.00     0.161 C  
HETATM   11  C   UNL     1     -12.075  12.557  67.415  1.00  0.00    -0.051 C  
HETATM   12  C   UNL     1     -10.106  12.841  65.016  1.00  0.00    -0.239 C  
HETATM   13  O   UNL     1     -13.095  12.236  66.811  1.00  0.00     2.013 OA 
HETATM   14  C   UNL     1     -10.803  11.735  67.605  1.00  0.00    -0.217 C  
HETATM   15  C   UNL     1     -11.572  13.087  69.432  1.00  0.00    -0.299 C  
HETATM   16  O   UNL     1     -12.405  12.021  69.892  1.00  0.00    -0.186 OA 
HETATM   17  H   UNL     1     -12.209  11.298  69.308  1.00  0.00     0.000 HD 
HETATM   18  C   UNL     1     -10.188  11.689  66.034  1.00  0.00    -0.270 C  
HETATM   19  O   UNL     1     -10.381  12.506  68.881  1.00  0.00    -0.161 OA 
ENDROOT
BRANCH   8  20
HETATM   20  C   UNL     1     -10.899  15.373  66.604  1.00  0.00    -0.302 C  
HETATM   21  C   UNL     1      -8.568  16.286  66.565  1.00  0.00    -0.332 C  
HETATM   22  C   UNL     1      -9.637  15.514  65.798  1.00  0.00    -0.367 C  
HETATM   23  C   UNL     1     -10.073  16.290  64.551  1.00  0.00     1.661 C  
ENDBRANCH   8  20
BRANCH  14  24
HETATM   24  N   UNL     1     -10.645  10.362  68.062  1.00  0.00    -0.203 N  
HETATM   25  H   UNL     1     -11.411   9.777  68.399  1.00  0.00     0.000 HD 
HETATM   26  O   UNL     1      -8.442  10.810  67.894  1.00  0.00    -0.118 OA 
HETATM   27  C   UNL     1      -9.327   9.948  67.984  1.00  0.00    -0.130 C  
BRANCH  27  28
HETATM   28  C   UNL     1      -8.968   8.468  68.029  1.00  0.00    -0.141 C  
HETATM   29  C   UNL     1     -10.082   7.406  67.877  1.00  0.00    -0.178 C  
HETATM   30  N   UNL     1      -9.473   6.206  67.197  1.00  0.00    -0.117 NA 
HETATM   31  C   UNL     1      -9.308   6.491  65.716  1.00  0.00     0.159 C  
HETATM   32  C   UNL     1     -10.083   4.975  67.627  1.00  0.00    -0.140 C  
HETATM   33  C   UNL     1      -8.310   5.581  64.831  1.00  0.00    -0.142 C  
HETATM   34  C   UNL     1      -7.284   6.391  64.029  1.00  0.00    -0.062 A  
HETATM   35  C   UNL     1      -6.054   6.161  63.455  1.00  0.00    -0.022 A  
HETATM   36 BR   UNL     1      -5.162   4.526  63.377  1.00  0.00    -0.009 Br 
HETATM   37  N   UNL     1      -5.516   7.355  63.027  1.00  0.00    -0.040 NA 
HETATM   38  C   UNL     1      -6.368   8.400  63.310  1.00  0.00    -0.085 A  
HETATM   39  H   UNL     1      -4.612   7.451  62.566  1.00  0.00     0.000 HD 
HETATM   40  C   UNL     1      -6.236   9.799  63.282  1.00  0.00    -0.115 A  
HETATM   41  C   UNL     1      -7.327  10.569  63.739  1.00  0.00     0.095 A  
HETATM   42  C   UNL     1      -8.454   9.969  64.281  1.00  0.00    -0.179 A  
HETATM   43  C   UNL     1      -8.433   8.589  64.459  1.00  0.00    -0.108 A  
HETATM   44  C   UNL     1      -7.477   7.787  63.851  1.00  0.00    -0.107 A  
HETATM   45  C   UNL     1      -8.862   7.952  65.689  1.00  0.00    -0.121 C  
HETATM   46  C   UNL     1      -8.143   8.367  66.766  1.00  0.00    -0.098 C  
ENDBRANCH  27  28
ENDBRANCH  14  24
TORSDOF 3
ENDMDL
MODEL      108
REMARK 921   NORMALIZED FREE ENERGY PREDICTED BY IDOCK:   -0.58 KCAL/MOL
REMARK 922        TOTAL FREE ENERGY PREDICTED BY IDOCK:   -0.21 KCAL/MOL
REMARK 923 INTER-LIGAND FREE ENERGY PREDICTED BY IDOCK:   -3.33 KCAL/MOL
REMARK 924 INTRA-LIGAND FREE ENERGY PREDICTED BY IDOCK:    3.12 KCAL/MOL
REMARK 927      BINDING AFFINITY PREDICTED BY RF-SCORE:    0.00 PKD
ROOT
HETATM    1  C   UNL     1      -9.655  18.557  67.519  1.00  0.00    -0.287 C  
HETATM    2  C   UNL     1      -8.959  19.873  67.857  1.00  0.00    -0.381 C  
HETATM    3  C   UNL     1      -9.656  20.893  66.908  1.00  0.00    -0.191 C  
HETATM    4  C   UNL     1     -10.488  20.067  65.928  1.00  0.00    -0.406 C  
HETATM    5  N   UNL     1     -10.061  18.708  66.139  1.00  0.00    -0.384 N  
HETATM    6  C   UNL     1     -10.801  17.706  65.564  1.00  0.00     0.056 C  
HETATM    7  O   UNL     1     -11.220  17.792  64.413  1.00  0.00    -0.482 OA 
HETATM    8  C   UNL     1     -10.937  16.439  66.429  1.00  0.00     0.044 C  
HETATM    9  N   UNL     1     -10.736  16.595  67.967  1.00  0.00    -0.343 N  
HETATM   10  C   UNL     1     -10.428  12.426  69.306  1.00  0.00     0.176 C  
HETATM   11  C   UNL     1     -10.671  15.496  68.807  1.00  0.00    -0.249 C  
HETATM   12  C   UNL     1     -11.334  12.941  67.149  1.00  0.00    -0.352 C  
HETATM   13  O   UNL     1     -11.405  15.314  69.774  1.00  0.00    -0.250 OA 
HETATM   14  C   UNL     1      -9.420  14.710  68.423  1.00  0.00    -0.209 C  
HETATM   15  C   UNL     1      -9.422  17.085  68.088  1.00  0.00    -0.262 C  
HETATM   16  O   UNL     1      -8.958  17.291  69.425  1.00  0.00     0.083 OA 
HETATM   17  H   UNL     1      -8.819  16.414  69.764  1.00  0.00     0.000 HD 
HETATM   18  C   UNL     1     -10.075  13.216  67.991  1.00  0.00    -0.232 C  
HETATM   19  O   UNL     1      -8.823  15.877  67.597  1.00  0.00    -0.172 OA 
ENDROOT
BRANCH   8  20
HETATM   20  C   UNL     1     -12.171  15.703  66.037  1.00  0.00     1.123 C  
HETATM   21  C   UNL     1     -11.179  14.302  64.214  1.00  0.00    -0.149 C  
HETATM   22  C   UNL     1     -12.076  14.322  65.448  1.00  0.00    -0.396 C  
HETATM   23  C   UNL     1     -13.520  13.975  65.072  1.00  0.00     0.819 C  
ENDBRANCH   8  20
BRANCH  14  24
HETATM   24  N   UNL     1      -8.267  14.344  69.233  1.00  0.00    -0.361 N  
HETATM   25  H   UNL     1      -8.118  14.657  70.193  1.00  0.00     0.000 HD 
HETATM   26  O   UNL     1      -7.486  13.474  67.306  1.00  0.00    -0.147 OA 
HETATM   27  C   UNL     1      -7.399  13.519  68.541  1.00  0.00    -0.114 C  
BRANCH  27  28
HETATM   28  C   UNL     1      -6.345  12.699  69.275  1.00  0.00    -0.109 C  
HETATM   29  C   UNL     1      -6.400  12.590  70.817  1.00  0.00     0.828 C  
HETATM   30  N   UNL     1      -5.851  11.237  71.194  1.00  0.00    -0.367 NA 
HETATM   31  C   UNL     1      -6.893  10.170  70.913  1.00  0.00     0.220 C  
HETATM   32  C   UNL     1      -5.177  11.264  72.466  1.00  0.00     0.481 C  
HETATM   33  C   UNL     1      -6.446   8.622  70.812  1.00  0.00    -0.043 C  
HETATM   34  C   UNL     1      -6.913   7.927  69.527  1.00  0.00    -0.054 A  
HETATM   35  C   UNL     1      -6.536   6.828  68.789  1.00  0.00    -0.040 A  
HETATM   36 BR   UNL     1      -5.206   5.602  69.238  1.00  0.00    -0.004 Br 
HETATM   37  N   UNL     1      -7.224   6.818  67.595  1.00  0.00    -0.091 NA 
HETATM   38  C   UNL     1      -8.065   7.907  67.510  1.00  0.00    -0.124 A  
HETATM   39  H   UNL     1      -7.123   6.105  66.873  1.00  0.00     0.000 HD 
HETATM   40  C   UNL     1      -8.814   8.480  66.468  1.00  0.00    -0.165 A  
HETATM   41  C   UNL     1      -9.505   9.679  66.741  1.00  0.00    -0.209 A  
HETATM   42  C   UNL     1      -9.377  10.320  67.965  1.00  0.00    -0.145 A  
HETATM   43  C   UNL     1      -8.465   9.801  68.878  1.00  0.00    -0.129 A  
HETATM   44  C   UNL     1      -7.922   8.532  68.730  1.00  0.00    -0.119 A  
HETATM   45  C   UNL     1      -7.518  10.631  69.598  1.00  0.00    -0.121 C  
HETATM   46  C   UNL     1      -6.694  11.319  68.763  1.00  0.00    -0.070 C  
ENDBRANCH  27  28
ENDBRANCH  14  24
TORSDOF 3
ENDMDL
MODEL      109
REMARK 921   NORMALIZED FREE ENERGY PREDICTED BY IDOCK:   -0.34 KCAL/MOL
REMARK 922        TOTAL FREE ENERGY PREDICTED BY IDOCK:    0.07 KCAL/MOL
REMARK 923 INTER-LIGAND FREE ENERGY PREDICTED BY IDOCK:   -4.43 KCAL/MOL
REMARK 924 INTRA-LIGAND FREE ENERGY PREDICTED BY IDOCK:    4.50 KCAL/MOL
REMARK 927      BINDING AFFINITY PREDICTED BY RF-SCORE:    0.00 PKD
ROOT
HETATM    1  C   UNL     1     -12.528  13.454  70.967  1.00  0.00    -0.353 C  
HETATM    2  C   UNL     1     -13.388  12.595  71.890  1.00  0.00    -0.485 C  
HETATM    3  C   UNL     1     -14.261  13.647  72.637  1.00  0.00    -0.158 C  
HETATM    4  C   UNL     1     -13.668  15.014  72.299  1.00  0.00    -0.468 C  
HETATM    5  N   UNL     1     -12.412  14.720  71.658  1.00  0.00    -0.319 N  
HETATM    6  C   UNL     1     -11.757  15.748  71.029  1.00  0.00    -0.422 C  
HETATM    7  O   UNL     1     -11.667  16.862  71.536  1.00  0.00     0.062 OA 
HETATM    8  C   UNL     1     -11.049  15.345  69.721  1.00  0.00    -0.288 C  
HETATM    9  N   UNL     1     -11.563  14.069  68.990  1.00  0.00    -0.283 N  
HETATM   10  C   UNL     1      -8.402  13.337  66.033  1.00  0.00     1.330 C  
HETATM   11  C   UNL     1     -10.890  13.530  67.906  1.00  0.00    -0.247 C  
HETATM   12  C   UNL     1      -8.581  15.469  67.113  1.00  0.00    -0.240 C  
HETATM   13  O   UNL     1     -11.390  13.338  66.801  1.00  0.00    -0.304 OA 
HETATM   14  C   UNL     1      -9.530  13.055  68.413  1.00  0.00    -0.165 C  
HETATM   15  C   UNL     1     -11.383  13.041  69.936  1.00  0.00     0.033 C  
HETATM   16  O   UNL     1     -11.751  11.730  69.503  1.00  0.00    -0.292 OA 
HETATM   17  H   UNL     1     -11.069  11.484  68.889  1.00  0.00     0.000 HD 
HETATM   18  C   UNL     1      -8.475  13.975  67.470  1.00  0.00    -0.201 C  
HETATM   19  O   UNL     1      -9.951  13.129  69.902  1.00  0.00     1.358 OA 
ENDROOT
BRANCH   8  20
HETATM   20  C   UNL     1     -10.904  16.543  68.849  1.00  0.00    -0.336 C  
HETATM   21  C   UNL     1      -8.619  17.247  69.596  1.00  0.00     0.917 C  
HETATM   22  C   UNL     1      -9.540  16.998  68.405  1.00  0.00    -0.277 C  
HETATM   23  C   UNL     1      -9.808  18.303  67.648  1.00  0.00    -0.328 C  
ENDBRANCH   8  20
BRANCH  14  24
HETATM   24  N   UNL     1      -8.937  11.726  68.372  1.00  0.00    -0.208 N  
HETATM   25  H   UNL     1      -9.457  10.872  68.168  1.00  0.00     0.000 HD 
HETATM   26  O   UNL     1      -7.120  12.770  69.201  1.00  0.00    -0.068 OA 
HETATM   27  C   UNL     1      -7.581  11.765  68.644  1.00  0.00    -0.125 C  
BRANCH  27  28
HETATM   28  C   UNL     1      -6.677  10.592  68.286  1.00  0.00    -0.060 C  
HETATM   29  C   UNL     1      -6.778   9.276  69.091  1.00  0.00    -0.050 C  
HETATM   30  N   UNL     1      -6.446   8.145  68.152  1.00  0.00    -0.055 NA 
HETATM   31  C   UNL     1      -7.630   7.876  67.241  1.00  0.00    -0.101 C  
HETATM   32  C   UNL     1      -5.801   7.051  68.831  1.00  0.00    -0.019 C  
HETATM   33  C   UNL     1      -7.418   7.035  65.879  1.00  0.00    -0.080 C  
HETATM   34  C   UNL     1      -7.957   7.739  64.628  1.00  0.00    -0.136 A  
HETATM   35  C   UNL     1      -7.734   7.681  63.271  1.00  0.00    -0.131 A  
HETATM   36 BR   UNL     1      -6.612   6.482  62.389  1.00  0.00    -0.035 Br 
HETATM   37  N   UNL     1      -8.391   8.722  62.652  1.00  0.00    -0.197 NA 
HETATM   38  C   UNL     1      -9.059   9.494  63.578  1.00  0.00    -0.105 A  
HETATM   39  H   UNL     1      -8.384   8.897  61.647  1.00  0.00     0.000 HD 
HETATM   40  C   UNL     1      -9.692  10.747  63.526  1.00  0.00    -0.387 A  
HETATM   41  C   UNL     1     -10.201  11.275  64.731  1.00  0.00    -0.347 A  
HETATM   42  C   UNL     1     -10.004  10.625  65.941  1.00  0.00    -0.312 A  
HETATM   43  C   UNL     1      -9.198   9.490  65.944  1.00  0.00    -0.260 A  
HETATM   44  C   UNL     1      -8.848   8.837  64.771  1.00  0.00    -0.089 A  
HETATM   45  C   UNL     1      -8.153   9.277  66.926  1.00  0.00    -0.108 C  
HETATM   46  C   UNL     1      -7.218  10.264  66.912  1.00  0.00    -0.093 C  
ENDBRANCH  27  28
ENDBRANCH  14  24
TORSDOF 3
ENDMDL
MODEL      110
REMARK 921   NORMALIZED FREE ENERGY PREDICTED BY IDOCK:    0.17 KCAL/MOL
REMARK 922        TOTAL FREE ENERGY PREDICTED BY IDOCK:    0.66 KCAL/MOL
REMARK 923 INTER-LIGAND FREE ENERGY PREDICTED BY IDOCK:   -1.17 KCAL/MOL
REMARK 924 INTRA-LIGAND FREE ENERGY PREDICTED BY IDOCK:    1.84 KCAL/MOL
REMARK 927      BINDING AFFINITY PREDICTED BY RF-SCORE:    0.00 PKD
ROOT
HETATM    1  C   UNL     1      -7.024  13.223  69.983  1.00  0.00     0.586 C  
HETATM    2  C   UNL     1      -6.157  12.566  71.054  1.00  0.00     0.634 C  
HETATM    3  C   UNL     1      -5.756  13.764  71.965  1.00  0.00    -0.041 C  
HETATM    4  C   UNL     1      -6.183  15.029  71.222  1.00  0.00     0.435 C  
HETATM    5  N   UNL     1      -6.526  14.579  69.898  1.00  0.00    -0.153 N  
HETATM    6  C   UNL     1      -7.173  15.459  69.068  1.00  0.00    -0.153 C  
HETATM    7  O   UNL     1      -6.834  16.636  68.987  1.00  0.00    -0.182 OA 
HETATM    8  C   UNL     1      -8.248  14.816  68.172  1.00  0.00    -0.142 C  
HETATM    9  N   UNL     1      -8.857  13.461  68.641  1.00  0.00    -0.052 N  
HETATM   10  C   UNL     1     -11.026  12.114  65.071  1.00  0.00    -0.355 C  
HETATM   11  C   UNL     1      -9.701  12.722  67.829  1.00  0.00    -0.207 C  
HETATM   12  C   UNL     1     -10.338  14.399  65.280  1.00  0.00    -0.427 C  
HETATM   13  O   UNL     1     -10.837  12.374  68.138  1.00  0.00    -0.205 OA 
HETATM   14  C   UNL     1      -8.884  12.277  66.619  1.00  0.00    -0.167 C  
HETATM   15  C   UNL     1      -7.748  12.596  68.708  1.00  0.00     0.007 C  
HETATM   16  O   UNL     1      -8.036  11.248  69.089  1.00  0.00    -0.306 OA 
HETATM   17  H   UNL     1      -8.467  10.875  68.329  1.00  0.00     0.000 HD 
HETATM   18  C   UNL     1      -9.743  12.981  65.349  1.00  0.00    -0.035 C  
HETATM   19  O   UNL     1      -7.528  12.613  67.290  1.00  0.00    -0.149 OA 
ENDROOT
BRANCH   8  20
HETATM   20  C   UNL     1      -9.251  15.847  67.787  1.00  0.00    -0.201 C  
HETATM   21  C   UNL     1      -7.978  16.888  65.898  1.00  0.00     0.070 C  
HETATM   22  C   UNL     1      -9.324  16.343  66.369  1.00  0.00    -0.322 C  
HETATM   23  C   UNL     1     -10.371  17.459  66.415  1.00  0.00    -0.317 C  
ENDBRANCH   8  20
BRANCH  14  24
HETATM   24  N   UNL     1      -8.609  10.934  66.128  1.00  0.00    -0.166 N  
HETATM   25  H   UNL     1      -9.057  10.090  66.484  1.00  0.00     0.000 HD 
HETATM   26  O   UNL     1      -6.945  11.946  64.993  1.00  0.00     2.024 OA 
HETATM   27  C   UNL     1      -7.664  10.945  65.118  1.00  0.00     0.207 C  
BRANCH  27  28
HETATM   28  C   UNL     1      -7.494   9.747  64.191  1.00  0.00    -0.135 C  
HETATM   29  C   UNL     1      -6.094   9.405  63.633  1.00  0.00    -0.092 C  
HETATM   30  N   UNL     1      -6.030   7.908  63.459  1.00  0.00    -0.061 NA 
HETATM   31  C   UNL     1      -5.839   7.247  64.811  1.00  0.00    -0.037 C  
HETATM   32  C   UNL     1      -5.193   7.529  62.351  1.00  0.00    -0.046 C  
HETATM   33  C   UNL     1      -6.162   5.675  64.987  1.00  0.00    -0.029 C  
HETATM   34  C   UNL     1      -7.118   5.366  66.146  1.00  0.00    -0.072 A  
HETATM   35  C   UNL     1      -7.970   4.344  66.496  1.00  0.00    -0.099 A  
HETATM   36 BR   UNL     1      -8.188   2.731  65.589  1.00  0.00    -0.092 Br 
HETATM   37  N   UNL     1      -8.731   4.730  67.578  1.00  0.00    -0.104 NA 
HETATM   38  C   UNL     1      -8.408   6.012  67.967  1.00  0.00    -0.116 A  
HETATM   39  H   UNL     1      -9.436   4.147  68.029  1.00  0.00     0.000 HD 
HETATM   40  C   UNL     1      -8.993   6.941  68.844  1.00  0.00    -0.131 A  
HETATM   41  C   UNL     1      -8.414   8.225  68.919  1.00  0.00    -0.128 A  
HETATM   42  C   UNL     1      -7.363   8.590  68.091  1.00  0.00    -0.092 A  
HETATM   43  C   UNL     1      -6.965   7.687  67.110  1.00  0.00    -0.080 A  
HETATM   44  C   UNL     1      -7.367   6.358  67.132  1.00  0.00    -0.083 A  
HETATM   45  C   UNL     1      -6.727   8.080  65.735  1.00  0.00    -0.048 C  
HETATM   46  C   UNL     1      -7.826   8.630  65.155  1.00  0.00    -0.110 C  
ENDBRANCH  27  28
ENDBRANCH  14  24
TORSDOF 3
ENDMDL
MODEL      111
REMARK 921   NORMALIZED FREE ENERGY PREDICTED BY IDOCK:    0.24 KCAL/MOL
REMARK 922        TOTAL FREE ENERGY PREDICTED BY IDOCK:    0.75 KCAL/MOL
REMARK 923 INTER-LIGAND FREE ENERGY PREDICTED BY IDOCK:   -5.01 KCAL/MOL
REMARK 924 INTRA-LIGAND FREE ENERGY PREDICTED BY IDOCK:    5.76 KCAL/MOL
REMARK 927      BINDING AFFINITY PREDICTED BY RF-SCORE:    0.00 PKD
ROOT
HETATM    1  C   UNL     1     -10.380   6.205  71.769  1.00  0.00    -0.210 C  
HETATM    2  C   UNL     1     -11.131   5.631  72.967  1.00  0.00    -0.327 C  
HETATM    3  C   UNL     1     -10.940   4.094  72.799  1.00  0.00    -0.106 C  
HETATM    4  C   UNL     1     -10.343   3.887  71.408  1.00  0.00     0.195 C  
HETATM    5  N   UNL     1     -10.462   5.169  70.763  1.00  0.00    -0.226 N  
HETATM    6  C   UNL     1      -9.794   5.356  69.579  1.00  0.00    -0.196 C  
HETATM    7  O   UNL     1      -9.780   4.496  68.703  1.00  0.00    -0.157 OA 
HETATM    8  C   UNL     1      -9.193   6.763  69.403  1.00  0.00    -0.143 C  
HETATM    9  N   UNL     1      -8.918   7.593  70.693  1.00  0.00    -0.152 N  
HETATM   10  C   UNL     1      -8.126  11.601  69.089  1.00  0.00     0.186 C  
HETATM   11  C   UNL     1      -8.540   8.924  70.637  1.00  0.00    -0.194 C  
HETATM   12  C   UNL     1      -8.043   9.684  67.655  1.00  0.00    -0.113 C  
HETATM   13  O   UNL     1      -7.518   9.380  71.141  1.00  0.00    -0.294 OA 
HETATM   14  C   UNL     1      -9.708   9.697  70.030  1.00  0.00    -0.241 C  
HETATM   15  C   UNL     1     -10.186   7.715  71.294  1.00  0.00    -0.187 C  
HETATM   16  O   UNL     1     -10.229   8.476  72.503  1.00  0.00    -0.310 OA 
HETATM   17  H   UNL     1     -10.114   9.376  72.220  1.00  0.00     0.000 HD 
HETATM   18  C   UNL     1      -8.997  10.365  68.653  1.00  0.00    -0.146 C  
HETATM   19  O   UNL     1     -10.712   8.536  70.240  1.00  0.00    -0.223 OA 
ENDROOT
BRANCH   8  20
HETATM   20  C   UNL     1      -8.047   6.696  68.454  1.00  0.00    -0.115 C  
HETATM   21  C   UNL     1      -9.361   6.558  66.327  1.00  0.00    -0.144 C  
HETATM   22  C   UNL     1      -8.192   7.219  67.052  1.00  0.00    -0.117 C  
HETATM   23  C   UNL     1      -6.866   6.857  66.377  1.00  0.00    -0.064 C  
ENDBRANCH   8  20
BRANCH  14  24
HETATM   24  N   UNL     1     -10.472  10.808  70.579  1.00  0.00    -0.083 N  
HETATM   25  H   UNL     1     -10.257  11.270  71.463  1.00  0.00     0.000 HD 
HETATM   26  O   UNL     1     -11.904  10.345  68.901  1.00  0.00    -0.166 OA 
HETATM   27  C   UNL     1     -11.525  11.159  69.754  1.00  0.00    -0.312 C  
BRANCH  27  28
HETATM   28  C   UNL     1     -12.220  12.507  69.903  1.00  0.00    -0.233 C  
HETATM   29  C   UNL     1     -11.956  13.369  71.159  1.00  0.00     0.188 C  
HETATM   30  N   UNL     1     -12.065  14.815  70.747  1.00  0.00    -0.288 NA 
HETATM   31  C   UNL     1     -10.812  15.225  69.995  1.00  0.00    -0.286 C  
HETATM   32  C   UNL     1     -12.565  15.643  71.813  1.00  0.00    -0.442 C  
HETATM   33  C   UNL     1     -10.827  16.554  69.078  1.00  0.00    -0.329 C  
HETATM   34  C   UNL     1     -10.344  16.318  67.642  1.00  0.00    -0.284 A  
HETATM   35  C   UNL     1     -10.491  16.938  66.422  1.00  0.00    -0.252 A  
HETATM   36 BR   UNL     1     -11.372  18.549  66.102  1.00  0.00     1.435 Br 
HETATM   37  N   UNL     1      -9.973  16.132  65.432  1.00  0.00    -0.497 NA 
HETATM   38  C   UNL     1      -9.477  14.963  65.967  1.00  0.00    -0.281 A  
HETATM   39  H   UNL     1      -9.959  16.368  64.440  1.00  0.00     0.000 HD 
HETATM   40  C   UNL     1      -9.043  13.746  65.415  1.00  0.00     0.993 A  
HETATM   41  C   UNL     1      -8.679  12.715  66.306  1.00  0.00     0.182 A  
HETATM   42  C   UNL     1      -8.831  12.862  67.677  1.00  0.00    -0.187 A  
HETATM   43  C   UNL     1      -9.452  14.018  68.141  1.00  0.00    -0.215 A  
HETATM   44  C   UNL     1      -9.641  15.125  67.326  1.00  0.00    -0.211 A  
HETATM   45  C   UNL     1     -10.497  13.995  69.146  1.00  0.00    -0.103 C  
HETATM   46  C   UNL     1     -11.571  13.256  68.760  1.00  0.00    -0.350 C  
ENDBRANCH  27  28
ENDBRANCH  14  24
TORSDOF 3
ENDMDL
MODEL      112
REMARK 921   NORMALIZED FREE ENERGY PREDICTED BY IDOCK:    0.84 KCAL/MOL
REMARK 922        TOTAL FREE ENERGY PREDICTED BY IDOCK:    1.45 KCAL/MOL
REMARK 923 INTER-LIGAND FREE ENERGY PREDICTED BY IDOCK:   -0.61 KCAL/MOL
REMARK 924 INTRA-LIGAND FREE ENERGY PREDICTED BY IDOCK:    2.06 KCAL/MOL
REMARK 927      BINDING AFFINITY PREDICTED BY RF-SCORE:    0.00 PKD
ROOT
HETATM    1  C   UNL     1     -10.821  16.599  69.239  1.00  0.00    -0.310 C  
HETATM    2  C   UNL     1     -10.977  17.428  70.511  1.00  0.00     1.188 C  
HETATM    3  C   UNL     1     -10.778  18.888  70.006  1.00  0.00     1.823 C  
HETATM    4  C   UNL     1     -10.268  18.778  68.570  1.00  0.00    -0.344 C  
HETATM    5  N   UNL     1      -9.943  17.386  68.402  1.00  0.00    -0.309 N  
HETATM    6  C   UNL     1      -9.679  16.937  67.132  1.00  0.00    -0.253 C  
HETATM    7  O   UNL     1      -8.983  17.581  66.352  1.00  0.00    -0.279 OA 
HETATM    8  C   UNL     1     -10.212  15.523  66.833  1.00  0.00    -0.279 C  
HETATM    9  N   UNL     1     -11.390  15.000  67.709  1.00  0.00    -0.322 N  
HETATM   10  C   UNL     1     -11.504  10.733  66.689  1.00  0.00     0.390 C  
HETATM   11  C   UNL     1     -11.827  13.688  67.634  1.00  0.00    -0.369 C  
HETATM   12  C   UNL     1     -10.333  12.283  65.286  1.00  0.00    -0.311 C  
HETATM   13  O   UNL     1     -12.980  13.352  67.379  1.00  0.00     0.741 OA 
HETATM   14  C   UNL     1     -10.681  12.805  68.119  1.00  0.00    -0.226 C  
HETATM   15  C   UNL     1     -10.872  15.020  69.019  1.00  0.00    -0.242 C  
HETATM   16  O   UNL     1     -11.753  14.547  70.040  1.00  0.00    -0.271 OA 
HETATM   17  H   UNL     1     -11.783  13.606  69.909  1.00  0.00     0.000 HD 
HETATM   18  C   UNL     1     -10.392  11.844  66.761  1.00  0.00    -0.238 C  
HETATM   19  O   UNL     1      -9.910  13.988  68.757  1.00  0.00    -0.213 OA 
ENDROOT
BRANCH   8  20
HETATM   20  C   UNL     1     -10.418  15.373  65.366  1.00  0.00    -0.426 C  
HETATM   21  C   UNL     1     -12.898  15.027  65.392  1.00  0.00     0.482 C  
HETATM   22  C   UNL     1     -11.729  15.760  64.740  1.00  0.00    -0.081 C  
HETATM   23  C   UNL     1     -11.582  15.343  63.273  1.00  0.00     2.402 C  
ENDBRANCH   8  20
BRANCH  14  24
HETATM   24  N   UNL     1     -10.647  11.847  69.214  1.00  0.00    -0.437 N  
HETATM   25  H   UNL     1     -11.320  11.827  69.981  1.00  0.00     0.000 HD 
HETATM   26  O   UNL     1      -8.652  11.272  68.337  1.00  0.00    -0.143 OA 
HETATM   27  C   UNL     1      -9.587  10.966  69.088  1.00  0.00    -0.106 C  
BRANCH  27  28
HETATM   28  C   UNL     1      -9.560   9.658  69.869  1.00  0.00    -0.260 C  
HETATM   29  C   UNL     1     -10.870   8.864  70.076  1.00  0.00    -0.227 C  
HETATM   30  N   UNL     1     -10.509   7.401  70.129  1.00  0.00    -0.215 NA 
HETATM   31  C   UNL     1     -10.228   6.897  68.725  1.00  0.00    -0.174 C  
HETATM   32  C   UNL     1     -11.389   6.659  70.994  1.00  0.00    -0.315 C  
HETATM   33  C   UNL     1      -9.416   5.517  68.517  1.00  0.00    -0.150 C  
HETATM   34  C   UNL     1      -8.208   5.645  67.582  1.00  0.00    -0.101 A  
HETATM   35  C   UNL     1      -7.035   4.960  67.360  1.00  0.00    -0.061 A  
HETATM   36 BR   UNL     1      -6.517   3.368  68.180  1.00  0.00    -0.037 Br 
HETATM   37  N   UNL     1      -6.234   5.683  66.504  1.00  0.00    -0.033 NA 
HETATM   38  C   UNL     1      -6.850   6.862  66.142  1.00  0.00    -0.064 A  
HETATM   39  H   UNL     1      -5.313   5.388  66.182  1.00  0.00     0.000 HD 
HETATM   40  C   UNL     1      -6.417   8.025  65.484  1.00  0.00    -0.045 A  
HETATM   41  C   UNL     1      -7.332   9.093  65.370  1.00  0.00    -0.089 A  
HETATM   42  C   UNL     1      -8.583   9.035  65.967  1.00  0.00    -0.158 A  
HETATM   43  C   UNL     1      -8.869   7.935  66.770  1.00  0.00    -0.154 A  
HETATM   44  C   UNL     1      -8.087   6.788  66.747  1.00  0.00    -0.109 A  
HETATM   45  C   UNL     1      -9.475   8.060  68.081  1.00  0.00    -0.152 C  
HETATM   46  C   UNL     1      -8.726   8.816  68.928  1.00  0.00    -0.134 C  
ENDBRANCH  27  28
ENDBRANCH  14  24
TORSDOF 3
ENDMDL
MODEL      113
REMARK 921   NORMALIZED FREE ENERGY PREDICTED BY IDOCK:    0.98 KCAL/MOL
REMARK 922        TOTAL FREE ENERGY PREDICTED BY IDOCK:    1.61 KCAL/MOL
REMARK 923 INTER-LIGAND FREE ENERGY PREDICTED BY IDOCK:   -5.03 KCAL/MOL
REMARK 924 INTRA-LIGAND FREE ENERGY PREDICTED BY IDOCK:    6.65 KCAL/MOL
REMARK 927      BINDING AFFINITY PREDICTED BY RF-SCORE:    0.00 PKD
ROOT
HETATM    1  C   UNL     1      -7.715   8.186  70.388  1.00  0.00    -0.085 C  
HETATM    2  C   UNL     1      -8.176   8.795  71.710  1.00  0.00    -0.144 C  
HETATM    3  C   UNL     1      -7.730   7.734  72.760  1.00  0.00    -0.133 C  
HETATM    4  C   UNL     1      -7.301   6.500  71.967  1.00  0.00    -0.091 C  
HETATM    5  N   UNL     1      -7.742   6.759  70.620  1.00  0.00    -0.095 N  
HETATM    6  C   UNL     1      -7.289   5.929  69.626  1.00  0.00    -0.075 C  
HETATM    7  O   UNL     1      -7.237   4.711  69.776  1.00  0.00    -0.052 OA 
HETATM    8  C   UNL     1      -6.988   6.639  68.293  1.00  0.00    -0.077 C  
HETATM    9  N   UNL     1      -6.697   8.169  68.344  1.00  0.00    -0.062 N  
HETATM   10  C   UNL     1      -6.885   9.308  64.109  1.00  0.00    -0.091 C  
HETATM   11  C   UNL     1      -6.582   8.927  67.191  1.00  0.00    -0.062 C  
HETATM   12  C   UNL     1      -6.647   7.008  64.735  1.00  0.00    -0.043 C  
HETATM   13  O   UNL     1      -5.602   9.606  66.898  1.00  0.00    -0.045 OA 
HETATM   14  C   UNL     1      -7.945   8.907  66.503  1.00  0.00    -0.103 C  
HETATM   15  C   UNL     1      -7.871   8.719  68.893  1.00  0.00    -0.104 C  
HETATM   16  O   UNL     1      -7.887  10.142  69.022  1.00  0.00    -0.090 OA 
HETATM   17  H   UNL     1      -7.980  10.459  68.131  1.00  0.00     0.000 HD 
HETATM   18  C   UNL     1      -7.565   8.213  65.012  1.00  0.00    -0.096 C  
HETATM   19  O   UNL     1      -8.679   8.373  67.758  1.00  0.00    -0.136 OA 
ENDROOT
BRANCH   8  20
HETATM   20  C   UNL     1      -5.991   5.844  67.524  1.00  0.00    -0.018 C  
HETATM   21  C   UNL     1      -7.503   3.978  66.813  1.00  0.00    -0.073 C  
HETATM   22  C   UNL     1      -6.433   4.976  66.378  1.00  0.00    -0.041 C  
HETATM   23  C   UNL     1      -5.158   4.246  65.945  1.00  0.00    -0.009 C  
ENDBRANCH   8  20
BRANCH  14  24
HETATM   24  N   UNL     1      -8.817  10.014  66.139  1.00  0.00    -0.145 N  
HETATM   25  H   UNL     1      -9.456  10.004  65.343  1.00  0.00     0.000 HD 
HETATM   26  O   UNL     1      -7.659  11.135  67.715  1.00  0.00    -0.095 OA 
HETATM   27  C   UNL     1      -8.674  11.082  67.007  1.00  0.00    -0.141 C  
BRANCH  27  28
HETATM   28  C   UNL     1      -9.728  12.180  67.077  1.00  0.00    -0.208 C  
HETATM   29  C   UNL     1     -10.720  12.212  68.264  1.00  0.00    -0.223 C  
HETATM   30  N   UNL     1     -11.061  13.657  68.528  1.00  0.00    -0.262 NA 
HETATM   31  C   UNL     1      -9.908  14.326  69.254  1.00  0.00     0.115 C  
HETATM   32  C   UNL     1     -12.405  13.813  69.020  1.00  0.00    -0.068 C  
HETATM   33  C   UNL     1      -9.808  15.938  69.284  1.00  0.00    -0.259 C  
HETATM   34  C   UNL     1      -8.452  16.481  68.818  1.00  0.00    -0.248 A  
HETATM   35  C   UNL     1      -7.967  17.667  68.314  1.00  0.00    -0.272 A  
HETATM   36 BR   UNL     1      -8.929  19.250  68.103  1.00  0.00    -0.385 Br 
HETATM   37  N   UNL     1      -6.670  17.488  67.884  1.00  0.00    -0.175 NA 
HETATM   38  C   UNL     1      -6.267  16.186  68.085  1.00  0.00    -0.117 A  
HETATM   39  H   UNL     1      -6.090  18.219  67.473  1.00  0.00     0.000 HD 
HETATM   40  C   UNL     1      -5.161  15.432  67.658  1.00  0.00    -0.033 A  
HETATM   41  C   UNL     1      -5.132  14.063  67.997  1.00  0.00    -0.098 A  
HETATM   42  C   UNL     1      -6.198  13.460  68.648  1.00  0.00    -0.088 A  
HETATM   43  C   UNL     1      -7.342  14.222  68.863  1.00  0.00    -0.126 A  
HETATM   44  C   UNL     1      -7.338  15.603  68.727  1.00  0.00    -0.144 A  
HETATM   45  C   UNL     1      -8.676  13.729  68.577  1.00  0.00    -0.118 C  
HETATM   46  C   UNL     1      -8.831  13.382  67.272  1.00  0.00    -0.220 C  
ENDBRANCH  27  28
ENDBRANCH  14  24
TORSDOF 3
ENDMDL
MODEL      114
REMARK 921   NORMALIZED FREE ENERGY PREDICTED BY IDOCK:    1.11 KCAL/MOL
REMARK 922        TOTAL FREE ENERGY PREDICTED BY IDOCK:    1.78 KCAL/MOL
REMARK 923 INTER-LIGAND FREE ENERGY PREDICTED BY IDOCK:   -3.13 KCAL/MOL
REMARK 924 INTRA-LIGAND FREE ENERGY PREDICTED BY IDOCK:    4.91 KCAL/MOL
REMARK 927      BINDING AFFINITY PREDICTED BY RF-SCORE:    0.00 PKD
ROOT
HETATM    1  C   UNL     1     -10.541   9.862  67.343  1.00  0.00    -0.277 C  
HETATM    2  C   UNL     1     -11.571  10.465  68.294  1.00  0.00    -0.100 C  
HETATM    3  C   UNL     1     -11.873  11.852  67.652  1.00  0.00    -0.265 C  
HETATM    4  C   UNL     1     -10.824  12.056  66.560  1.00  0.00    -0.277 C  
HETATM    5  N   UNL     1      -9.862  11.006  66.776  1.00  0.00    -0.193 N  
HETATM    6  C   UNL     1      -8.920  10.789  65.801  1.00  0.00    -0.187 C  
HETATM    7  O   UNL     1      -8.343  11.717  65.243  1.00  0.00     0.360 OA 
HETATM    8  C   UNL     1      -8.569   9.306  65.577  1.00  0.00    -0.152 C  
HETATM    9  N   UNL     1      -9.620   8.244  66.019  1.00  0.00    -0.140 N  
HETATM   10  C   UNL     1      -7.333   4.504  65.802  1.00  0.00    -0.077 C  
HETATM   11  C   UNL     1      -9.332   6.889  66.017  1.00  0.00     0.023 C  
HETATM   12  C   UNL     1      -6.538   6.475  64.697  1.00  0.00    -0.038 C  
HETATM   13  O   UNL     1      -9.978   6.041  65.408  1.00  0.00     0.516 OA 
HETATM   14  C   UNL     1      -8.229   6.662  67.047  1.00  0.00    -0.113 C  
HETATM   15  C   UNL     1      -9.767   8.469  67.402  1.00  0.00    -0.170 C  
HETATM   16  O   UNL     1     -10.668   7.590  68.080  1.00  0.00    -0.353 OA 
HETATM   17  H   UNL     1     -10.207   6.760  68.115  1.00  0.00     0.000 HD 
HETATM   18  C   UNL     1      -6.998   6.014  66.093  1.00  0.00    -0.062 C  
HETATM   19  O   UNL     1      -8.430   8.048  67.710  1.00  0.00    -0.126 OA 
ENDROOT
BRANCH   8  20
HETATM   20  C   UNL     1      -8.050   9.125  64.193  1.00  0.00    -0.149 C  
HETATM   21  C   UNL     1      -5.810  10.196  64.514  1.00  0.00    -0.126 C  
HETATM   22  C   UNL     1      -6.572   9.002  63.946  1.00  0.00    -0.088 C  
HETATM   23  C   UNL     1      -6.448   8.960  62.420  1.00  0.00    -0.095 C  
ENDBRANCH   8  20
BRANCH  14  24
HETATM   24  N   UNL     1      -8.220   5.806  68.225  1.00  0.00    -0.107 N  
HETATM   25  H   UNL     1      -9.018   5.678  68.847  1.00  0.00     0.000 HD 
HETATM   26  O   UNL     1      -6.010   5.655  67.807  1.00  0.00    -0.019 OA 
HETATM   27  C   UNL     1      -6.994   5.187  68.395  1.00  0.00    -0.057 C  
BRANCH  27  28
HETATM   28  C   UNL     1      -6.852   3.970  69.301  1.00  0.00    -0.046 C  
HETATM   29  C   UNL     1      -5.707   3.921  70.339  1.00  0.00    -0.013 C  
HETATM   30  N   UNL     1      -6.204   3.129  71.522  1.00  0.00    -0.014 NA 
HETATM   31  C   UNL     1      -7.144   3.987  72.349  1.00  0.00    -0.056 C  
HETATM   32  C   UNL     1      -5.143   2.401  72.168  1.00  0.00     0.000 C  
HETATM   33  C   UNL     1      -8.144   3.288  73.407  1.00  0.00    -0.074 C  
HETATM   34  C   UNL     1      -9.611   3.699  73.234  1.00  0.00    -0.142 A  
HETATM   35  C   UNL     1     -10.842   3.180  73.566  1.00  0.00    -0.220 A  
HETATM   36 BR   UNL     1     -11.156   1.638  74.564  1.00  0.00     0.032 Br 
HETATM   37  N   UNL     1     -11.832   3.920  72.957  1.00  0.00     0.257 NA 
HETATM   38  C   UNL     1     -11.285   4.939  72.207  1.00  0.00     0.088 A  
HETATM   39  H   UNL     1     -12.831   3.739  73.049  1.00  0.00     0.000 HD 
HETATM   40  C   UNL     1     -11.802   5.830  71.252  1.00  0.00     0.336 A  
HETATM   41  C   UNL     1     -10.895   6.700  70.610  1.00  0.00    -0.301 A  
HETATM   42  C   UNL     1      -9.531   6.618  70.844  1.00  0.00    -0.169 A  
HETATM   43  C   UNL     1      -9.072   5.581  71.651  1.00  0.00    -0.155 A  
HETATM   44  C   UNL     1      -9.932   4.838  72.448  1.00  0.00    -0.226 A  
HETATM   45  C   UNL     1      -7.937   4.753  71.292  1.00  0.00    -0.096 C  
HETATM   46  C   UNL     1      -8.122   4.105  70.111  1.00  0.00    -0.061 C  
ENDBRANCH  27  28
ENDBRANCH  14  24
TORSDOF 3
ENDMDL
MODEL      115
REMARK 921   NORMALIZED FREE ENERGY PREDICTED BY IDOCK:    1.22 KCAL/MOL
REMARK 922        TOTAL FREE ENERGY PREDICTED BY IDOCK:    1.90 KCAL/MOL
REMARK 923 INTER-LIGAND FREE ENERGY PREDICTED BY IDOCK:   -0.39 KCAL/MOL
REMARK 924 INTRA-LIGAND FREE ENERGY PREDICTED BY IDOCK:    2.28 KCAL/MOL
REMARK 927      BINDING AFFINITY PREDICTED BY RF-SCORE:    0.00 PKD
ROOT
HETATM    1  C   UNL     1      -9.309   6.180  66.635  1.00  0.00    -0.146 C  
HETATM    2  C   UNL     1      -9.538   5.226  65.465  1.00  0.00    -0.015 C  
HETATM    3  C   UNL     1      -8.630   4.011  65.818  1.00  0.00    -0.110 C  
HETATM    4  C   UNL     1      -7.759   4.455  66.993  1.00  0.00    -0.089 C  
HETATM    5  N   UNL     1      -7.970   5.876  67.089  1.00  0.00    -0.102 N  
HETATM    6  C   UNL     1      -7.499   6.521  68.205  1.00  0.00    -0.095 C  
HETATM    7  O   UNL     1      -6.391   6.273  68.674  1.00  0.00    -0.037 OA 
HETATM    8  C   UNL     1      -8.412   7.649  68.720  1.00  0.00    -0.129 C  
HETATM    9  N   UNL     1      -9.917   7.593  68.323  1.00  0.00    -0.170 N  
HETATM   10  C   UNL     1     -11.347  11.580  69.473  1.00  0.00    -0.342 C  
HETATM   11  C   UNL     1     -10.781   8.642  68.592  1.00  0.00    -0.051 C  
HETATM   12  C   UNL     1      -9.272  10.744  70.330  1.00  0.00     1.377 C  
HETATM   13  O   UNL     1     -11.818   8.541  69.240  1.00  0.00     0.872 OA 
HETATM   14  C   UNL     1     -10.302   9.838  67.774  1.00  0.00    -0.225 C  
HETATM   15  C   UNL     1      -9.898   7.635  66.916  1.00  0.00    -0.234 C  
HETATM   16  O   UNL     1     -11.177   7.631  66.278  1.00  0.00     0.621 OA 
HETATM   17  H   UNL     1     -11.527   8.497  66.445  1.00  0.00     0.000 HD 
HETATM   18  C   UNL     1      -9.981  10.972  68.982  1.00  0.00    -0.184 C  
HETATM   19  O   UNL     1      -9.389   8.976  66.867  1.00  0.00    -0.145 OA 
ENDROOT
BRANCH   8  20
HETATM   20  C   UNL     1      -8.162   7.862  70.173  1.00  0.00    -0.125 C  
HETATM   21  C   UNL     1      -5.681   7.517  70.157  1.00  0.00    -0.024 C  
HETATM   22  C   UNL     1      -6.835   8.389  70.645  1.00  0.00    -0.039 C  
HETATM   23  C   UNL     1      -6.935   8.344  72.173  1.00  0.00    -0.103 C  
ENDBRANCH   8  20
BRANCH  14  24
HETATM   24  N   UNL     1     -11.010  10.618  66.769  1.00  0.00    -0.173 N  
HETATM   25  H   UNL     1     -11.996  10.496  66.537  1.00  0.00     0.000 HD 
HETATM   26  O   UNL     1      -8.954  11.392  66.263  1.00  0.00    -0.192 OA 
HETATM   27  C   UNL     1     -10.179  11.546  66.166  1.00  0.00    -0.232 C  
BRANCH  27  28
HETATM   28  C   UNL     1     -10.754  12.720  65.383  1.00  0.00    -0.309 C  
HETATM   29  C   UNL     1     -12.230  13.130  65.595  1.00  0.00    -0.466 C  
HETATM   30  N   UNL     1     -12.320  14.620  65.386  1.00  0.00    -0.256 NA 
HETATM   31  C   UNL     1     -11.769  15.338  66.605  1.00  0.00     0.057 C  
HETATM   32  C   UNL     1     -13.591  15.013  64.837  1.00  0.00     1.970 C  
HETATM   33  C   UNL     1     -11.345  16.892  66.496  1.00  0.00     0.773 C  
HETATM   34  C   UNL     1      -9.921  17.180  66.987  1.00  0.00    -0.287 A  
HETATM   35  C   UNL     1      -8.974  18.159  66.792  1.00  0.00    -0.282 A  
HETATM   36 BR   UNL     1      -9.192  19.724  65.803  1.00  0.00     0.149 Br 
HETATM   37  N   UNL     1      -7.782  17.763  67.358  1.00  0.00    -0.200 NA 
HETATM   38  C   UNL     1      -7.907  16.518  67.934  1.00  0.00    -0.154 A  
HETATM   39  H   UNL     1      -6.925  18.316  67.352  1.00  0.00     0.000 HD 
HETATM   40  C   UNL     1      -6.990  15.585  68.447  1.00  0.00    -0.115 A  
HETATM   41  C   UNL     1      -7.494  14.342  68.884  1.00  0.00    -0.132 A  
HETATM   42  C   UNL     1      -8.834  14.015  68.730  1.00  0.00    -0.031 A  
HETATM   43  C   UNL     1      -9.644  14.908  68.034  1.00  0.00    -0.207 A  
HETATM   44  C   UNL     1      -9.240  16.208  67.767  1.00  0.00    -0.202 A  
HETATM   45  C   UNL     1     -10.565  14.484  66.998  1.00  0.00    -0.278 C  
HETATM   46  C   UNL     1      -9.937  13.847  65.975  1.00  0.00    -0.325 C  
ENDBRANCH  27  28
ENDBRANCH  14  24
TORSDOF 3
ENDMDL
MODEL      116
REMARK 921   NORMALIZED FREE ENERGY PREDICTED BY IDOCK:    1.59 KCAL/MOL
REMARK 922        TOTAL FREE ENERGY PREDICTED BY IDOCK:    2.33 KCAL/MOL
REMARK 923 INTER-LIGAND FREE ENERGY PREDICTED BY IDOCK:   -1.40 KCAL/MOL
REMARK 924 INTRA-LIGAND FREE ENERGY PREDICTED BY IDOCK:    3.73 KCAL/MOL
REMARK 927      BINDING AFFINITY PREDICTED BY RF-SCORE:    0.00 PKD
ROOT
HETATM    1  C   UNL     1      -9.882   9.568  68.825  1.00  0.00    -0.169 C  
HETATM    2  C   UNL     1     -10.856  10.209  69.810  1.00  0.00    -0.320 C  
HETATM    3  C   UNL     1     -10.686   9.336  71.090  1.00  0.00    -0.403 C  
HETATM    4  C   UNL     1      -9.852   8.124  70.674  1.00  0.00    -0.181 C  
HETATM    5  N   UNL     1      -9.812   8.183  69.236  1.00  0.00    -0.178 N  
HETATM    6  C   UNL     1      -8.935   7.353  68.584  1.00  0.00    -0.131 C  
HETATM    7  O   UNL     1      -8.789   6.181  68.915  1.00  0.00    -0.122 OA 
HETATM    8  C   UNL     1      -8.268   7.980  67.345  1.00  0.00    -0.123 C  
HETATM    9  N   UNL     1      -8.206   9.535  67.272  1.00  0.00    -0.113 N  
HETATM   10  C   UNL     1      -7.011  10.240  63.108  1.00  0.00    -0.112 C  
HETATM   11  C   UNL     1      -7.783  10.195  66.130  1.00  0.00    -0.113 C  
HETATM   12  C   UNL     1      -6.728   8.077  64.100  1.00  0.00    -0.065 C  
HETATM   13  O   UNL     1      -6.856  10.999  66.093  1.00  0.00    -0.124 OA 
HETATM   14  C   UNL     1      -8.796   9.886  65.031  1.00  0.00    -0.190 C  
HETATM   15  C   UNL     1      -9.558   9.930  67.305  1.00  0.00    -0.160 C  
HETATM   16  O   UNL     1      -9.795  11.337  67.216  1.00  0.00    -0.180 OA 
HETATM   17  H   UNL     1      -9.603  11.552  66.311  1.00  0.00     0.000 HD 
HETATM   18  C   UNL     1      -7.826   9.133  63.874  1.00  0.00    -0.129 C  
HETATM   19  O   UNL     1      -9.857   9.353  66.026  1.00  0.00    -0.269 OA 
ENDROOT
BRANCH   8  20
HETATM   20  C   UNL     1      -6.972   7.296  67.082  1.00  0.00    -0.078 C  
HETATM   21  C   UNL     1      -7.886   5.134  66.211  1.00  0.00    -0.103 C  
HETATM   22  C   UNL     1      -6.869   6.253  66.004  1.00  0.00    -0.057 C  
HETATM   23  C   UNL     1      -5.441   5.714  66.136  1.00  0.00    -0.013 C  
ENDBRANCH   8  20
BRANCH  14  24
HETATM   24  N   UNL     1      -9.612  10.795  64.238  1.00  0.00    -0.257 N  
HETATM   25  H   UNL     1     -10.207  10.503  63.463  1.00  0.00     0.000 HD 
HETATM   26  O   UNL     1      -8.501  12.399  65.368  1.00  0.00     0.930 OA 
HETATM   27  C   UNL     1      -9.478  12.104  64.667  1.00  0.00     0.182 C  
BRANCH  27  28
HETATM   28  C   UNL     1     -10.498  13.165  64.270  1.00  0.00    -0.410 C  
HETATM   29  C   UNL     1     -11.936  13.091  64.833  1.00  0.00    -0.396 C  
HETATM   30  N   UNL     1     -12.443  14.504  64.965  1.00  0.00    -0.440 NA 
HETATM   31  C   UNL     1     -11.818  15.157  66.184  1.00  0.00     0.097 C  
HETATM   32  C   UNL     1     -13.865  14.589  64.756  1.00  0.00     2.792 C  
HETATM   33  C   UNL     1     -11.836  16.765  66.330  1.00  0.00     2.006 C  
HETATM   34  C   UNL     1     -10.455  17.376  66.598  1.00  0.00    -0.253 A  
HETATM   35  C   UNL     1      -9.857  18.606  66.442  1.00  0.00    -0.367 A  
HETATM   36 BR   UNL     1     -10.688  20.171  65.865  1.00  0.00    -0.090 Br 
HETATM   37  N   UNL     1      -8.505  18.493  66.681  1.00  0.00    -0.270 NA 
HETATM   38  C   UNL     1      -8.174  17.192  66.994  1.00  0.00    -0.207 A  
HETATM   39  H   UNL     1      -7.840  19.265  66.633  1.00  0.00     0.000 HD 
HETATM   40  C   UNL     1      -6.958  16.499  67.119  1.00  0.00    -0.230 A  
HETATM   41  C   UNL     1      -7.017  15.112  67.369  1.00  0.00    -0.195 A  
HETATM   42  C   UNL     1      -8.228  14.437  67.400  1.00  0.00    -0.215 A  
HETATM   43  C   UNL     1      -9.377  15.151  67.071  1.00  0.00    -0.244 A  
HETATM   44  C   UNL     1      -9.387  16.538  67.015  1.00  0.00    -0.242 A  
HETATM   45  C   UNL     1     -10.381  14.640  66.158  1.00  0.00    -0.309 C  
HETATM   46  C   UNL     1      -9.873  14.377  64.924  1.00  0.00     0.054 C  
ENDBRANCH  27  28
ENDBRANCH  14  24
TORSDOF 3
ENDMDL
MODEL      117
REMARK 921   NORMALIZED FREE ENERGY PREDICTED BY IDOCK:    2.03 KCAL/MOL
REMARK 922        TOTAL FREE ENERGY PREDICTED BY IDOCK:    2.85 KCAL/MOL
REMARK 923 INTER-LIGAND FREE ENERGY PREDICTED BY IDOCK:   -1.65 KCAL/MOL
REMARK 924 INTRA-LIGAND FREE ENERGY PREDICTED BY IDOCK:    4.50 KCAL/MOL
REMARK 927      BINDING AFFINITY PREDICTED BY RF-SCORE:    0.00 PKD
ROOT
HETATM    1  C   UNL     1     -10.735  14.127  65.503  1.00  0.00    -0.324 C  
HETATM    2  C   UNL     1     -11.650  13.718  64.353  1.00  0.00    -0.418 C  
HETATM    3  C   UNL     1     -12.385  15.045  63.999  1.00  0.00    -0.051 C  
HETATM    4  C   UNL     1     -12.050  16.031  65.118  1.00  0.00     0.872 C  
HETATM    5  N   UNL     1     -11.423  15.230  66.137  1.00  0.00    -0.168 N  
HETATM    6  C   UNL     1     -10.799  15.880  67.171  1.00  0.00    -0.267 C  
HETATM    7  O   UNL     1     -11.305  16.855  67.719  1.00  0.00    -0.111 OA 
HETATM    8  C   UNL     1      -9.500  15.207  67.654  1.00  0.00    -0.201 C  
HETATM    9  N   UNL     1      -8.767  14.263  66.655  1.00  0.00    -0.137 N  
HETATM   10  C   UNL     1      -5.846  12.244  69.235  1.00  0.00    -0.080 C  
HETATM   11  C   UNL     1      -7.691  13.483  67.046  1.00  0.00     0.176 C  
HETATM   12  C   UNL     1      -6.918  14.258  69.965  1.00  0.00     0.090 C  
HETATM   13  O   UNL     1      -6.582  13.512  66.522  1.00  0.00     1.125 OA 
HETATM   14  C   UNL     1      -8.213  12.481  68.073  1.00  0.00    -0.166 C  
HETATM   15  C   UNL     1      -9.717  13.262  66.375  1.00  0.00    -0.276 C  
HETATM   16  O   UNL     1      -9.283  12.226  65.491  1.00  0.00    -0.436 OA 
HETATM   17  H   UNL     1      -8.677  11.710  66.010  1.00  0.00     0.000 HD 
HETATM   18  C   UNL     1      -7.280  12.862  69.427  1.00  0.00     0.270 C  
HETATM   19  O   UNL     1      -9.698  12.736  67.710  1.00  0.00    -0.195 OA 
ENDROOT
BRANCH   8  20
HETATM   20  C   UNL     1      -8.626  16.225  68.299  1.00  0.00    -0.196 C  
HETATM   21  C   UNL     1      -7.975  17.487  66.237  1.00  0.00    -0.303 C  
HETATM   22  C   UNL     1      -8.461  17.586  67.680  1.00  0.00    -0.215 C  
HETATM   23  C   UNL     1      -7.410  18.273  68.557  1.00  0.00    -0.297 C  
ENDBRANCH   8  20
BRANCH  14  24
HETATM   24  N   UNL     1      -8.182  11.026  68.049  1.00  0.00    -0.119 N  
HETATM   25  H   UNL     1      -7.359  10.465  68.272  1.00  0.00     0.000 HD 
HETATM   26  O   UNL     1     -10.224  11.233  67.117  1.00  0.00    -0.192 OA 
HETATM   27  C   UNL     1      -9.408  10.496  67.686  1.00  0.00    -0.149 C  
BRANCH  27  28
HETATM   28  C   UNL     1      -9.742   9.035  67.960  1.00  0.00    -0.179 C  
HETATM   29  C   UNL     1      -8.675   8.114  68.597  1.00  0.00    -0.134 C  
HETATM   30  N   UNL     1      -9.401   7.093  69.435  1.00  0.00    -0.148 NA 
HETATM   31  C   UNL     1      -9.863   7.735  70.730  1.00  0.00    -0.180 C  
HETATM   32  C   UNL     1      -8.709   5.831  69.468  1.00  0.00    -0.111 C  
HETATM   33  C   UNL     1     -11.014   7.023  71.611  1.00  0.00    -0.258 C  
HETATM   34  C   UNL     1     -12.186   7.949  71.961  1.00  0.00    -0.357 A  
HETATM   35  C   UNL     1     -13.504   7.800  72.325  1.00  0.00     0.041 A  
HETATM   36 BR   UNL     1     -14.384   6.190  72.654  1.00  0.00     1.501 Br 
HETATM   37  N   UNL     1     -14.125   9.030  72.314  1.00  0.00    -0.442 NA 
HETATM   38  C   UNL     1     -13.240  10.018  71.940  1.00  0.00    -0.452 A  
HETATM   39  H   UNL     1     -15.105   9.188  72.551  1.00  0.00     0.000 HD 
HETATM   40  C   UNL     1     -13.384  11.367  71.575  1.00  0.00    -0.181 A  
HETATM   41  C   UNL     1     -12.228  12.058  71.153  1.00  0.00    -0.144 A  
HETATM   42  C   UNL     1     -11.011  11.407  71.014  1.00  0.00     2.169 A  
HETATM   43  C   UNL     1     -10.987  10.028  71.202  1.00  0.00    -0.183 A  
HETATM   44  C   UNL     1     -12.041   9.353  71.802  1.00  0.00    -0.454 A  
HETATM   45  C   UNL     1     -10.315   9.126  70.288  1.00  0.00    -0.253 C  
HETATM   46  C   UNL     1     -10.804   9.211  69.022  1.00  0.00    -0.115 C  
ENDBRANCH  27  28
ENDBRANCH  14  24
TORSDOF 3
ENDMDL
MODEL      118
REMARK 921   NORMALIZED FREE ENERGY PREDICTED BY IDOCK:    2.45 KCAL/MOL
REMARK 922        TOTAL FREE ENERGY PREDICTED BY IDOCK:    3.35 KCAL/MOL
REMARK 923 INTER-LIGAND FREE ENERGY PREDICTED BY IDOCK:   -0.90 KCAL/MOL
REMARK 924 INTRA-LIGAND FREE ENERGY PREDICTED BY IDOCK:    4.25 KCAL/MOL
REMARK 927      BINDING AFFINITY PREDICTED BY RF-SCORE:    0.00 PKD
ROOT
HETATM    1  C   UNL     1     -12.637  14.987  69.895  1.00  0.00    -0.164 C  
HETATM    2  C   UNL     1     -13.820  14.105  70.287  1.00  0.00     1.348 C  
HETATM    3  C   UNL     1     -14.388  14.821  71.549  1.00  0.00    -0.592 C  
HETATM    4  C   UNL     1     -13.358  15.879  71.942  1.00  0.00    -0.230 C  
HETATM    5  N   UNL     1     -12.200  15.578  71.141  1.00  0.00    -0.360 N  
HETATM    6  C   UNL     1     -11.188  16.504  71.103  1.00  0.00     0.090 C  
HETATM    7  O   UNL     1     -10.803  17.081  72.116  1.00  0.00     1.447 OA 
HETATM    8  C   UNL     1     -10.508  16.646  69.728  1.00  0.00    -0.182 C  
HETATM    9  N   UNL     1     -11.319  16.198  68.476  1.00  0.00    -0.373 N  
HETATM   10  C   UNL     1      -8.258  16.155  65.331  1.00  0.00     2.291 C  
HETATM   11  C   UNL     1     -10.741  16.128  67.220  1.00  0.00    -0.277 C  
HETATM   12  C   UNL     1      -7.864  17.316  67.390  1.00  0.00    -0.198 C  
HETATM   13  O   UNL     1     -11.154  16.723  66.228  1.00  0.00     0.070 OA 
HETATM   14  C   UNL     1      -9.666  15.046  67.280  1.00  0.00    -0.220 C  
HETATM   15  C   UNL     1     -11.579  14.834  68.711  1.00  0.00    -0.320 C  
HETATM   16  O   UNL     1     -12.297  14.153  67.679  1.00  0.00    -0.567 OA 
HETATM   17  H   UNL     1     -11.667  14.062  66.974  1.00  0.00     0.000 HD 
HETATM   18  C   UNL     1      -8.277  15.921  66.887  1.00  0.00    -0.283 C  
HETATM   19  O   UNL     1     -10.199  14.455  68.609  1.00  0.00    -0.235 OA 
ENDROOT
BRANCH   8  20
HETATM   20  C   UNL     1      -9.896  18.000  69.618  1.00  0.00     0.413 C  
HETATM   21  C   UNL     1     -11.129  18.777  67.581  1.00  0.00    -0.067 C  
HETATM   22  C   UNL     1     -10.664  19.131  68.991  1.00  0.00     0.654 C  
HETATM   23  C   UNL     1      -9.663  20.290  68.955  1.00  0.00     0.003 C  
ENDBRANCH   8  20
BRANCH  14  24
HETATM   24  N   UNL     1      -9.526  13.832  66.490  1.00  0.00    -0.328 N  
HETATM   25  H   UNL     1      -9.652  13.787  65.478  1.00  0.00     0.000 HD 
HETATM   26  O   UNL     1      -9.401  12.820  68.500  1.00  0.00    -0.176 OA 
HETATM   27  C   UNL     1      -9.200  12.744  67.281  1.00  0.00    -0.203 C  
BRANCH  27  28
HETATM   28  C   UNL     1      -8.627  11.473  66.665  1.00  0.00    -0.176 C  
HETATM   29  C   UNL     1      -7.127  11.144  66.849  1.00  0.00    -0.131 C  
HETATM   30  N   UNL     1      -6.994   9.643  66.882  1.00  0.00    -0.084 NA 
HETATM   31  C   UNL     1      -7.448   9.122  68.233  1.00  0.00    -0.083 C  
HETATM   32  C   UNL     1      -5.742   9.200  66.326  1.00  0.00    -0.053 C  
HETATM   33  C   UNL     1      -7.819   7.560  68.406  1.00  0.00    -0.122 C  
HETATM   34  C   UNL     1      -9.201   7.318  69.025  1.00  0.00    -0.139 A  
HETATM   35  C   UNL     1     -10.121   6.295  69.052  1.00  0.00    -0.172 A  
HETATM   36 BR   UNL     1      -9.901   4.595  68.321  1.00  0.00    -0.130 Br 
HETATM   37  N   UNL     1     -11.293   6.746  69.619  1.00  0.00    -0.522 NA 
HETATM   38  C   UNL     1     -11.182   8.073  69.975  1.00  0.00    -0.090 A  
HETATM   39  H   UNL     1     -12.128   6.177  69.756  1.00  0.00     0.000 HD 
HETATM   40  C   UNL     1     -12.103   9.052  70.384  1.00  0.00     0.139 A  
HETATM   41  C   UNL     1     -11.621  10.363  70.580  1.00  0.00    -0.440 A  
HETATM   42  C   UNL     1     -10.305  10.697  70.292  1.00  0.00     0.263 A  
HETATM   43  C   UNL     1      -9.503   9.724  69.702  1.00  0.00    -0.237 A  
HETATM   44  C   UNL     1      -9.873   8.386  69.677  1.00  0.00    -0.184 A  
HETATM   45  C   UNL     1      -8.658   9.996  68.556  1.00  0.00    -0.119 C  
HETATM   46  C   UNL     1      -9.367  10.438  67.483  1.00  0.00    -0.163 C  
ENDBRANCH  27  28
ENDBRANCH  14  24
TORSDOF 3
ENDMDL
MODEL      119
REMARK 921   NORMALIZED FREE ENERGY PREDICTED BY IDOCK:    2.73 KCAL/MOL
REMARK 922        TOTAL FREE ENERGY PREDICTED BY IDOCK:    3.67 KCAL/MOL
REMARK 923 INTER-LIGAND FREE ENERGY PREDICTED BY IDOCK:    0.73 KCAL/MOL
REMARK 924 INTRA-LIGAND FREE ENERGY PREDICTED BY IDOCK:    2.95 KCAL/MOL
REMARK 927      BINDING AFFINITY PREDICTED BY RF-SCORE:    0.00 PKD
ROOT
HETATM    1  C   UNL     1     -10.529  10.814  68.045  1.00  0.00    -0.194 C  
HETATM    2  C   UNL     1     -11.493  10.860  69.228  1.00  0.00    -0.372 C  
HETATM    3  C   UNL     1     -12.070  12.306  69.155  1.00  0.00    -0.214 C  
HETATM    4  C   UNL     1     -11.220  13.055  68.130  1.00  0.00    -0.272 C  
HETATM    5  N   UNL     1     -10.100  12.186  67.876  1.00  0.00    -0.192 N  
HETATM    6  C   UNL     1      -9.281  12.486  66.817  1.00  0.00    -0.217 C  
HETATM    7  O   UNL     1      -8.922  13.637  66.586  1.00  0.00    -0.211 OA 
HETATM    8  C   UNL     1      -8.761  11.258  66.047  1.00  0.00    -0.164 C  
HETATM    9  N   UNL     1      -9.582   9.939  66.159  1.00  0.00    -0.201 N  
HETATM   10  C   UNL     1      -6.849   6.973  64.429  1.00  0.00    -0.047 C  
HETATM   11  C   UNL     1      -9.112   8.742  65.646  1.00  0.00    -0.191 C  
HETATM   12  C   UNL     1      -6.496   9.312  64.049  1.00  0.00    -0.091 C  
HETATM   13  O   UNL     1      -9.711   8.052  64.826  1.00  0.00     1.485 OA 
HETATM   14  C   UNL     1      -7.857   8.378  66.435  1.00  0.00    -0.098 C  
HETATM   15  C   UNL     1      -9.568   9.647  67.537  1.00  0.00    -0.150 C  
HETATM   16  O   UNL     1     -10.236   8.444  67.923  1.00  0.00    -0.196 OA 
HETATM   17  H   UNL     1      -9.663   7.748  67.620  1.00  0.00     0.000 HD 
HETATM   18  C   UNL     1      -6.690   8.326  65.216  1.00  0.00    -0.052 C  
HETATM   19  O   UNL     1      -8.156   9.394  67.566  1.00  0.00    -0.108 OA 
ENDROOT
BRANCH   8  20
HETATM   20  C   UNL     1      -8.418  11.658  64.654  1.00  0.00     0.907 C  
HETATM   21  C   UNL     1     -10.612  11.104  63.580  1.00  0.00    -0.414 C  
HETATM   22  C   UNL     1      -9.492  12.133  63.715  1.00  0.00     0.122 C  
HETATM   23  C   UNL     1      -8.767  12.319  62.378  1.00  0.00     2.611 C  
ENDBRANCH   8  20
BRANCH  14  24
HETATM   24  N   UNL     1      -7.567   7.187  67.220  1.00  0.00    -0.102 N  
HETATM   25  H   UNL     1      -6.727   7.064  67.787  1.00  0.00     0.000 HD 
HETATM   26  O   UNL     1      -9.359   6.334  66.152  1.00  0.00    -0.155 OA 
HETATM   27  C   UNL     1      -8.571   6.243  67.103  1.00  0.00    -0.107 C  
BRANCH  27  28
HETATM   28  C   UNL     1      -8.695   5.103  68.107  1.00  0.00    -0.103 C  
HETATM   29  C   UNL     1      -8.127   3.709  67.755  1.00  0.00    -0.084 C  
HETATM   30  N   UNL     1      -7.670   3.069  69.041  1.00  0.00    -0.047 NA 
HETATM   31  C   UNL     1      -6.351   3.684  69.474  1.00  0.00    -0.029 C  
HETATM   32  C   UNL     1      -7.818   1.637  69.014  1.00  0.00    -0.045 C  
HETATM   33  C   UNL     1      -5.850   3.511  70.999  1.00  0.00    -0.014 C  
HETATM   34  C   UNL     1      -5.486   4.835  71.683  1.00  0.00    -0.004 A  
HETATM   35  C   UNL     1      -5.378   5.298  72.975  1.00  0.00    -0.017 A  
HETATM   36 BR   UNL     1      -5.569   4.286  74.529  1.00  0.00    -0.009 Br 
HETATM   37  N   UNL     1      -5.204   6.664  72.960  1.00  0.00    -0.036 NA 
HETATM   38  C   UNL     1      -5.199   7.139  71.667  1.00  0.00    -0.028 A  
HETATM   39  H   UNL     1      -5.095   7.244  73.792  1.00  0.00     0.000 HD 
HETATM   40  C   UNL     1      -5.262   8.424  71.101  1.00  0.00    -0.029 A  
HETATM   41  C   UNL     1      -5.327   8.517  69.694  1.00  0.00    -0.030 A  
HETATM   42  C   UNL     1      -5.418   7.383  68.901  1.00  0.00    -0.022 A  
HETATM   43  C   UNL     1      -5.550   6.153  69.540  1.00  0.00    -0.013 A  
HETATM   44  C   UNL     1      -5.294   6.001  70.896  1.00  0.00    -0.013 A  
HETATM   45  C   UNL     1      -6.529   5.163  69.136  1.00  0.00    -0.039 C  
HETATM   46  C   UNL     1      -7.802   5.634  69.207  1.00  0.00    -0.089 C  
ENDBRANCH  27  28
ENDBRANCH  14  24
TORSDOF 3
ENDMDL
MODEL      120
REMARK 921   NORMALIZED FREE ENERGY PREDICTED BY IDOCK:    2.82 KCAL/MOL
REMARK 922        TOTAL FREE ENERGY PREDICTED BY IDOCK:    3.78 KCAL/MOL
REMARK 923 INTER-LIGAND FREE ENERGY PREDICTED BY IDOCK:    1.79 KCAL/MOL
REMARK 924 INTRA-LIGAND FREE ENERGY PREDICTED BY IDOCK:    1.99 KCAL/MOL
REMARK 927      BINDING AFFINITY PREDICTED BY RF-SCORE:    0.00 PKD
ROOT
HETATM    1  C   UNL     1     -10.263  17.425  68.891  1.00  0.00    -0.352 C  
HETATM    2  C   UNL     1     -11.397  18.191  69.568  1.00  0.00     2.719 C  
HETATM    3  C   UNL     1     -10.807  19.624  69.727  1.00  0.00     1.453 C  
HETATM    4  C   UNL     1      -9.321  19.515  69.388  1.00  0.00     0.025 C  
HETATM    5  N   UNL     1      -9.061  18.100  69.328  1.00  0.00     0.122 N  
HETATM    6  C   UNL     1      -7.858  17.690  68.810  1.00  0.00    -0.242 C  
HETATM    7  O   UNL     1      -6.806  18.252  69.099  1.00  0.00    -0.267 OA 
HETATM    8  C   UNL     1      -7.936  16.407  67.960  1.00  0.00    -0.156 C  
HETATM    9  N   UNL     1      -9.317  16.040  67.340  1.00  0.00    -0.215 N  
HETATM   10  C   UNL     1      -8.670  11.922  65.966  1.00  0.00     0.056 C  
HETATM   11  C   UNL     1      -9.531  14.828  66.705  1.00  0.00    -0.273 C  
HETATM   12  C   UNL     1      -6.804  13.332  66.487  1.00  0.00     2.085 C  
HETATM   13  O   UNL     1      -9.928  14.707  65.550  1.00  0.00    -0.344 OA 
HETATM   14  C   UNL     1      -9.379  13.735  67.761  1.00  0.00    -0.213 C  
HETATM   15  C   UNL     1     -10.162  15.893  68.457  1.00  0.00    -0.226 C  
HETATM   16  O   UNL     1     -11.510  15.516  68.169  1.00  0.00    -0.336 OA 
HETATM   17  H   UNL     1     -11.450  14.604  67.910  1.00  0.00     0.000 HD 
HETATM   18  C   UNL     1      -8.108  12.823  67.128  1.00  0.00    -0.131 C  
HETATM   19  O   UNL     1      -9.476  14.731  68.944  1.00  0.00    -0.203 OA 
ENDROOT
BRANCH   8  20
HETATM   20  C   UNL     1      -6.799  16.382  66.999  1.00  0.00    -0.245 C  
HETATM   21  C   UNL     1      -7.252  18.566  65.861  1.00  0.00    -0.265 C  
HETATM   22  C   UNL     1      -6.197  17.667  66.501  1.00  0.00    -0.240 C  
HETATM   23  C   UNL     1      -5.166  17.221  65.460  1.00  0.00     0.608 C  
ENDBRANCH   8  20
BRANCH  14  24
HETATM   24  N   UNL     1     -10.332  12.722  68.191  1.00  0.00    -0.232 N  
HETATM   25  H   UNL     1     -11.338  12.777  68.034  1.00  0.00     0.000 HD 
HETATM   26  O   UNL     1      -8.557  11.854  69.276  1.00  0.00     0.339 OA 
HETATM   27  C   UNL     1      -9.702  11.675  68.840  1.00  0.00    -0.013 C  
BRANCH  27  28
HETATM   28  C   UNL     1     -10.407  10.338  69.035  1.00  0.00    -0.229 C  
HETATM   29  C   UNL     1     -10.604   9.395  67.825  1.00  0.00    -0.258 C  
HETATM   30  N   UNL     1     -10.564   7.980  68.343  1.00  0.00    -0.152 NA 
HETATM   31  C   UNL     1      -9.127   7.586  68.630  1.00  0.00    -0.134 C  
HETATM   32  C   UNL     1     -11.409   7.101  67.578  1.00  0.00     0.238 C  
HETATM   33  C   UNL     1      -8.819   6.315  69.579  1.00  0.00    -0.135 C  
HETATM   34  C   UNL     1      -7.860   6.625  70.734  1.00  0.00    -0.105 A  
HETATM   35  C   UNL     1      -7.567   6.085  71.965  1.00  0.00    -0.097 A  
HETATM   36 BR   UNL     1      -8.281   4.518  72.680  1.00  0.00    -0.107 Br 
HETATM   37  N   UNL     1      -6.732   6.936  72.655  1.00  0.00    -0.062 NA 
HETATM   38  C   UNL     1      -6.455   8.058  71.904  1.00  0.00    -0.053 A  
HETATM   39  H   UNL     1      -6.369   6.761  73.591  1.00  0.00     0.000 HD 
HETATM   40  C   UNL     1      -5.851   9.295  72.187  1.00  0.00    -0.014 A  
HETATM   41  C   UNL     1      -5.824  10.261  71.159  1.00  0.00    -0.003 A  
HETATM   42  C   UNL     1      -6.450  10.034  69.942  1.00  0.00    -0.077 A  
HETATM   43  C   UNL     1      -7.197   8.868  69.803  1.00  0.00    -0.055 A  
HETATM   44  C   UNL     1      -7.088   7.817  70.703  1.00  0.00    -0.049 A  
HETATM   45  C   UNL     1      -8.530   8.856  69.232  1.00  0.00    -0.121 C  
HETATM   46  C   UNL     1      -9.397   9.644  69.922  1.00  0.00    -0.256 C  
ENDBRANCH  27  28
ENDBRANCH  14  24
TORSDOF 3
ENDMDL
MODEL      121
REMARK 921   NORMALIZED FREE ENERGY PREDICTED BY IDOCK:    3.02 KCAL/MOL
REMARK 922        TOTAL FREE ENERGY PREDICTED BY IDOCK:    4.01 KCAL/MOL
REMARK 923 INTER-LIGAND FREE ENERGY PREDICTED BY IDOCK:   -1.52 KCAL/MOL
REMARK 924 INTRA-LIGAND FREE ENERGY PREDICTED BY IDOCK:    5.54 KCAL/MOL
REMARK 927      BINDING AFFINITY PREDICTED BY RF-SCORE:    0.00 PKD
ROOT
HETATM    1  C   UNL     1     -11.967  12.364  64.739  1.00  0.00    -0.398 C  
HETATM    2  C   UNL     1     -13.087  11.814  63.859  1.00  0.00    -0.010 C  
HETATM    3  C   UNL     1     -13.386  12.998  62.892  1.00  0.00     2.188 C  
HETATM    4  C   UNL     1     -12.629  14.205  63.444  1.00  0.00     0.698 C  
HETATM    5  N   UNL     1     -12.187  13.793  64.751  1.00  0.00    -0.398 N  
HETATM    6  C   UNL     1     -11.274  14.587  65.400  1.00  0.00    -0.342 C  
HETATM    7  O   UNL     1     -11.373  15.811  65.406  1.00  0.00    -0.179 OA 
HETATM    8  C   UNL     1     -10.219  13.811  66.211  1.00  0.00    -0.297 C  
HETATM    9  N   UNL     1      -9.946  12.332  65.805  1.00  0.00    -0.252 N  
HETATM   10  C   UNL     1      -7.572  10.847  69.184  1.00  0.00    -0.133 C  
HETATM   11  C   UNL     1      -9.146  11.502  66.571  1.00  0.00    -0.194 C  
HETATM   12  C   UNL     1      -7.846  13.202  68.838  1.00  0.00     0.118 C  
HETATM   13  O   UNL     1      -8.152  10.914  66.155  1.00  0.00    -0.161 OA 
HETATM   14  C   UNL     1      -9.848  11.317  67.914  1.00  0.00    -0.176 C  
HETATM   15  C   UNL     1     -11.195  11.701  65.967  1.00  0.00    -0.240 C  
HETATM   16  O   UNL     1     -11.221  10.299  65.688  1.00  0.00     0.496 OA 
HETATM   17  H   UNL     1     -10.761   9.904  66.420  1.00  0.00     0.000 HD 
HETATM   18  C   UNL     1      -8.698  11.928  68.988  1.00  0.00     0.296 C  
HETATM   19  O   UNL     1     -11.200  11.864  67.393  1.00  0.00    -0.265 OA 
ENDROOT
BRANCH   8  20
HETATM   20  C   UNL     1      -8.997  14.648  66.359  1.00  0.00    -0.191 C  
HETATM   21  C   UNL     1      -9.944  16.383  67.897  1.00  0.00    -0.243 C  
HETATM   22  C   UNL     1      -8.772  15.448  67.613  1.00  0.00    -0.174 C  
HETATM   23  C   UNL     1      -7.500  16.250  67.324  1.00  0.00    -0.212 C  
ENDBRANCH   8  20
BRANCH  14  24
HETATM   24  N   UNL     1     -10.293  10.095  68.568  1.00  0.00    -0.171 N  
HETATM   25  H   UNL     1     -11.136  10.023  69.139  1.00  0.00     0.000 HD 
HETATM   26  O   UNL     1      -8.289   9.296  67.915  1.00  0.00    -0.115 OA 
HETATM   27  C   UNL     1      -9.431   9.041  68.320  1.00  0.00    -0.146 C  
BRANCH  27  28
HETATM   28  C   UNL     1      -9.868   7.600  68.556  1.00  0.00    -0.174 C  
HETATM   29  C   UNL     1      -9.812   6.584  67.392  1.00  0.00    -0.133 C  
HETATM   30  N   UNL     1      -9.521   5.230  67.988  1.00  0.00    -0.117 NA 
HETATM   31  C   UNL     1      -8.051   5.143  68.358  1.00  0.00    -0.086 C  
HETATM   32  C   UNL     1     -10.135   4.166  67.237  1.00  0.00     0.090 C  
HETATM   33  C   UNL     1      -7.550   4.004  69.386  1.00  0.00    -0.053 C  
HETATM   34  C   UNL     1      -6.732   4.551  70.563  1.00  0.00    -0.036 A  
HETATM   35  C   UNL     1      -6.404   4.136  71.833  1.00  0.00    -0.018 A  
HETATM   36 BR   UNL     1      -6.832   2.492  72.601  1.00  0.00    -0.023 Br 
HETATM   37  N   UNL     1      -5.790   5.167  72.510  1.00  0.00    -0.024 NA 
HETATM   38  C   UNL     1      -5.701   6.286  71.711  1.00  0.00    -0.032 A  
HETATM   39  H   UNL     1      -5.450   5.110  73.470  1.00  0.00     0.000 HD 
HETATM   40  C   UNL     1      -5.369   7.630  71.952  1.00  0.00    -0.035 A  
HETATM   41  C   UNL     1      -5.478   8.535  70.875  1.00  0.00    -0.028 A  
HETATM   42  C   UNL     1      -5.982   8.134  69.647  1.00  0.00    -0.029 A  
HETATM   43  C   UNL     1      -6.477   6.837  69.540  1.00  0.00    -0.044 A  
HETATM   44  C   UNL     1      -6.210   5.870  70.500  1.00  0.00    -0.031 A  
HETATM   45  C   UNL     1      -7.749   6.534  68.914  1.00  0.00    -0.109 C  
HETATM   46  C   UNL     1      -8.789   7.163  69.523  1.00  0.00    -0.137 C  
ENDBRANCH  27  28
ENDBRANCH  14  24
TORSDOF 3
ENDMDL
MODEL      122
REMARK 921   NORMALIZED FREE ENERGY PREDICTED BY IDOCK:    3.06 KCAL/MOL
REMARK 922        TOTAL FREE ENERGY PREDICTED BY IDOCK:    4.06 KCAL/MOL
REMARK 923 INTER-LIGAND FREE ENERGY PREDICTED BY IDOCK:   -0.06 KCAL/MOL
REMARK 924 INTRA-LIGAND FREE ENERGY PREDICTED BY IDOCK:    4.12 KCAL/MOL
REMARK 927      BINDING AFFINITY PREDICTED BY RF-SCORE:    0.00 PKD
ROOT
HETATM    1  C   UNL     1     -10.253   7.449  68.710  1.00  0.00    -0.191 C  
HETATM    2  C   UNL     1     -11.656   6.996  68.312  1.00  0.00     0.614 C  
HETATM    3  C   UNL     1     -11.647   5.477  68.658  1.00  0.00     1.912 C  
HETATM    4  C   UNL     1     -10.194   5.117  68.967  1.00  0.00    -0.171 C  
HETATM    5  N   UNL     1      -9.435   6.267  68.549  1.00  0.00    -0.124 N  
HETATM    6  C   UNL     1      -8.115   6.333  68.919  1.00  0.00    -0.110 C  
HETATM    7  O   UNL     1      -7.377   5.354  68.856  1.00  0.00    -0.067 OA 
HETATM    8  C   UNL     1      -7.627   7.749  69.282  1.00  0.00    -0.098 C  
HETATM    9  N   UNL     1      -8.702   8.789  69.717  1.00  0.00    -0.129 N  
HETATM   10  C   UNL     1      -6.458  12.560  69.626  1.00  0.00    -0.057 C  
HETATM   11  C   UNL     1      -8.390  10.126  69.900  1.00  0.00    -0.089 C  
HETATM   12  C   UNL     1      -5.301  10.462  69.647  1.00  0.00    -0.038 C  
HETATM   13  O   UNL     1      -8.583  10.751  70.938  1.00  0.00     1.995 OA 
HETATM   14  C   UNL     1      -7.973  10.680  68.539  1.00  0.00    -0.122 C  
HETATM   15  C   UNL     1      -9.557   8.879  68.601  1.00  0.00    -0.153 C  
HETATM   16  O   UNL     1     -10.635   9.810  68.720  1.00  0.00    -0.207 OA 
HETATM   17  H   UNL     1     -10.220  10.662  68.655  1.00  0.00     0.000 HD 
HETATM   18  C   UNL     1      -6.395  11.193  68.848  1.00  0.00    -0.050 C  
HETATM   19  O   UNL     1      -8.556   9.473  67.762  1.00  0.00    -0.116 OA 
ENDROOT
BRANCH   8  20
HETATM   20  C   UNL     1      -6.457   7.648  70.198  1.00  0.00    -0.034 C  
HETATM   21  C   UNL     1      -7.672   6.836  72.232  1.00  0.00    -0.094 C  
HETATM   22  C   UNL     1      -6.459   6.651  71.324  1.00  0.00    -0.049 C  
HETATM   23  C   UNL     1      -5.164   6.945  72.088  1.00  0.00    -0.036 C  
ENDBRANCH   8  20
BRANCH  14  24
HETATM   24  N   UNL     1      -8.536  11.783  67.774  1.00  0.00    -0.140 N  
HETATM   25  H   UNL     1      -8.410  12.768  68.010  1.00  0.00     0.000 HD 
HETATM   26  O   UNL     1      -9.638  10.150  66.679  1.00  0.00    -0.171 OA 
HETATM   27  C   UNL     1      -9.263  11.330  66.688  1.00  0.00    -0.180 C  
BRANCH  27  28
HETATM   28  C   UNL     1      -9.615  12.265  65.537  1.00  0.00    -0.112 C  
HETATM   29  C   UNL     1     -11.020  12.193  64.896  1.00  0.00    -0.309 C  
HETATM   30  N   UNL     1     -11.373  13.581  64.424  1.00  0.00    -0.376 NA 
HETATM   31  C   UNL     1     -11.774  14.435  65.613  1.00  0.00    -0.356 C  
HETATM   32  C   UNL     1     -12.202  13.557  63.247  1.00  0.00    -0.146 C  
HETATM   33  C   UNL     1     -11.786  16.044  65.476  1.00  0.00     0.622 C  
HETATM   34  C   UNL     1     -10.983  16.762  66.568  1.00  0.00     0.142 A  
HETATM   35  C   UNL     1     -10.377  17.988  66.722  1.00  0.00    -0.367 A  
HETATM   36 BR   UNL     1     -10.435  19.407  65.514  1.00  0.00     0.040 Br 
HETATM   37  N   UNL     1      -9.620  17.985  67.873  1.00  0.00    -0.276 NA 
HETATM   38  C   UNL     1      -9.701  16.763  68.504  1.00  0.00    -0.248 A  
HETATM   39  H   UNL     1      -9.075  18.778  68.211  1.00  0.00     0.000 HD 
HETATM   40  C   UNL     1      -8.994  16.164  69.560  1.00  0.00    -0.004 A  
HETATM   41  C   UNL     1      -9.305  14.826  69.881  1.00  0.00     0.402 A  
HETATM   42  C   UNL     1     -10.210  14.096  69.123  1.00  0.00    -0.065 A  
HETATM   43  C   UNL     1     -10.723  14.691  67.974  1.00  0.00    -0.246 A  
HETATM   44  C   UNL     1     -10.598  16.053  67.737  1.00  0.00    -0.309 A  
HETATM   45  C   UNL     1     -10.794  14.000  66.701  1.00  0.00    -0.297 C  
HETATM   46  C   UNL     1      -9.573  13.591  66.264  1.00  0.00    -0.245 C  
ENDBRANCH  27  28
ENDBRANCH  14  24
TORSDOF 3
ENDMDL
MODEL      123
REMARK 921   NORMALIZED FREE ENERGY PREDICTED BY IDOCK:    3.44 KCAL/MOL
REMARK 922        TOTAL FREE ENERGY PREDICTED BY IDOCK:    4.51 KCAL/MOL
REMARK 923 INTER-LIGAND FREE ENERGY PREDICTED BY IDOCK:    0.22 KCAL/MOL
REMARK 924 INTRA-LIGAND FREE ENERGY PREDICTED BY IDOCK:    4.29 KCAL/MOL
REMARK 927      BINDING AFFINITY PREDICTED BY RF-SCORE:    0.00 PKD
ROOT
HETATM    1  C   UNL     1     -11.764  15.255  70.258  1.00  0.00    -0.308 C  
HETATM    2  C   UNL     1     -12.428  15.084  71.622  1.00  0.00    -0.405 C  
HETATM    3  C   UNL     1     -12.167  16.455  72.314  1.00  0.00    -0.368 C  
HETATM    4  C   UNL     1     -11.167  17.198  71.429  1.00  0.00     1.150 C  
HETATM    5  N   UNL     1     -10.703  16.209  70.491  1.00  0.00    -0.169 N  
HETATM    6  C   UNL     1      -9.967  16.640  69.416  1.00  0.00    -0.162 C  
HETATM    7  O   UNL     1      -9.085  17.486  69.535  1.00  0.00     0.274 OA 
HETATM    8  C   UNL     1     -10.252  15.884  68.105  1.00  0.00    -0.232 C  
HETATM    9  N   UNL     1     -11.625  15.158  67.979  1.00  0.00    -0.341 N  
HETATM   10  C   UNL     1     -11.053  12.664  64.413  1.00  0.00    -0.385 C  
HETATM   11  C   UNL     1     -11.909  14.315  66.918  1.00  0.00    -0.433 C  
HETATM   12  C   UNL     1      -9.571  14.492  64.863  1.00  0.00     0.563 C  
HETATM   13  O   UNL     1     -12.864  14.448  66.159  1.00  0.00    -0.251 OA 
HETATM   14  C   UNL     1     -10.954  13.129  67.018  1.00  0.00    -0.269 C  
HETATM   15  C   UNL     1     -11.617  14.233  69.042  1.00  0.00    -0.305 C  
HETATM   16  O   UNL     1     -12.770  13.394  69.141  1.00  0.00     0.100 OA 
HETATM   17  H   UNL     1     -12.683  12.785  68.417  1.00  0.00     0.000 HD 
HETATM   18  C   UNL     1     -10.126  13.232  65.551  1.00  0.00    -0.274 C  
HETATM   19  O   UNL     1     -10.553  13.451  68.480  1.00  0.00    -0.244 OA 
ENDROOT
BRANCH   8  20
HETATM   20  C   UNL     1      -9.903  16.753  66.947  1.00  0.00    -0.269 C  
HETATM   21  C   UNL     1     -11.519  18.611  67.403  1.00  0.00     0.826 C  
HETATM   22  C   UNL     1     -10.085  18.243  67.035  1.00  0.00    -0.370 C  
HETATM   23  C   UNL     1      -9.742  18.747  65.630  1.00  0.00     0.457 C  
ENDBRANCH   8  20
BRANCH  14  24
HETATM   24  N   UNL     1     -11.247  11.707  67.133  1.00  0.00    -0.297 N  
HETATM   25  H   UNL     1     -11.618  11.135  66.375  1.00  0.00     0.000 HD 
HETATM   26  O   UNL     1     -10.844  12.043  69.326  1.00  0.00    -0.184 OA 
HETATM   27  C   UNL     1     -10.961  11.229  68.400  1.00  0.00    -0.219 C  
BRANCH  27  28
HETATM   28  C   UNL     1     -10.811   9.734  68.656  1.00  0.00    -0.223 C  
HETATM   29  C   UNL     1     -11.718   8.735  67.901  1.00  0.00     2.330 C  
HETATM   30  N   UNL     1     -10.928   7.466  67.706  1.00  0.00    -0.093 NA 
HETATM   31  C   UNL     1      -9.924   7.661  66.585  1.00  0.00    -0.214 C  
HETATM   32  C   UNL     1     -11.770   6.299  67.718  1.00  0.00     1.287 C  
HETATM   33  C   UNL     1      -8.675   6.647  66.442  1.00  0.00    -0.144 C  
HETATM   34  C   UNL     1      -7.314   7.350  66.367  1.00  0.00    -0.083 A  
HETATM   35  C   UNL     1      -6.000   7.016  66.605  1.00  0.00    -0.034 A  
HETATM   36 BR   UNL     1      -5.357   5.329  67.068  1.00  0.00    -0.009 Br 
HETATM   37  N   UNL     1      -5.221   8.151  66.553  1.00  0.00    -0.027 NA 
HETATM   38  C   UNL     1      -5.995   9.260  66.285  1.00  0.00    -0.059 A  
HETATM   39  H   UNL     1      -4.211   8.169  66.694  1.00  0.00     0.000 HD 
HETATM   40  C   UNL     1      -5.760  10.644  66.326  1.00  0.00    -0.098 A  
HETATM   41  C   UNL     1      -6.850  11.502  66.067  1.00  0.00     0.369 A  
HETATM   42  C   UNL     1      -8.128  11.000  65.869  1.00  0.00    -0.075 A  
HETATM   43  C   UNL     1      -8.323   9.633  66.039  1.00  0.00    -0.123 A  
HETATM   44  C   UNL     1      -7.259   8.743  66.097  1.00  0.00    -0.085 A  
HETATM   45  C   UNL     1      -9.427   9.089  66.806  1.00  0.00    -0.238 C  
HETATM   46  C   UNL     1      -9.423   9.517  68.096  1.00  0.00    -0.145 C  
ENDBRANCH  27  28
ENDBRANCH  14  24
TORSDOF 3
ENDMDL
MODEL      124
REMARK 921   NORMALIZED FREE ENERGY PREDICTED BY IDOCK:    3.68 KCAL/MOL
REMARK 922        TOTAL FREE ENERGY PREDICTED BY IDOCK:    4.80 KCAL/MOL
REMARK 923 INTER-LIGAND FREE ENERGY PREDICTED BY IDOCK:    2.01 KCAL/MOL
REMARK 924 INTRA-LIGAND FREE ENERGY PREDICTED BY IDOCK:    2.79 KCAL/MOL
REMARK 927      BINDING AFFINITY PREDICTED BY RF-SCORE:    0.00 PKD
ROOT
HETATM    1  C   UNL     1      -6.454  19.108  65.407  1.00  0.00    -0.278 C  
HETATM    2  C   UNL     1      -5.557  19.388  64.204  1.00  0.00    -0.312 C  
HETATM    3  C   UNL     1      -6.102  20.745  63.667  1.00  0.00    -0.321 C  
HETATM    4  C   UNL     1      -7.410  21.006  64.413  1.00  0.00     0.789 C  
HETATM    5  N   UNL     1      -7.701  19.768  65.087  1.00  0.00     0.328 N  
HETATM    6  C   UNL     1      -8.698  19.769  66.030  1.00  0.00    -0.265 C  
HETATM    7  O   UNL     1      -9.762  20.353  65.844  1.00  0.00    -0.294 OA 
HETATM    8  C   UNL     1      -8.415  18.879  67.255  1.00  0.00    -0.277 C  
HETATM    9  N   UNL     1      -6.927  18.540  67.568  1.00  0.00    -0.204 N  
HETATM   10  C   UNL     1      -7.295  15.345  70.556  1.00  0.00     0.819 C  
HETATM   11  C   UNL     1      -6.580  17.617  68.540  1.00  0.00    -0.204 C  
HETATM   12  C   UNL     1      -9.164  16.759  70.057  1.00  0.00     1.339 C  
HETATM   13  O   UNL     1      -5.846  17.854  69.496  1.00  0.00    -0.215 OA 
HETATM   14  C   UNL     1      -7.103  16.259  68.078  1.00  0.00    -0.133 C  
HETATM   15  C   UNL     1      -6.483  17.870  66.412  1.00  0.00    -0.228 C  
HETATM   16  O   UNL     1      -5.130  17.408  66.445  1.00  0.00    -0.157 OA 
HETATM   17  H   UNL     1      -5.147  16.671  67.044  1.00  0.00     0.000 HD 
HETATM   18  C   UNL     1      -8.151  15.851  69.336  1.00  0.00    -0.178 C  
HETATM   19  O   UNL     1      -7.338  16.737  66.623  1.00  0.00    -0.212 OA 
ENDROOT
BRANCH   8  20
HETATM   20  C   UNL     1      -9.194  19.382  68.421  1.00  0.00    -0.415 C  
HETATM   21  C   UNL     1     -11.351  18.204  67.937  1.00  0.00     0.614 C  
HETATM   22  C   UNL     1     -10.313  18.559  68.998  1.00  0.00    -0.055 C  
HETATM   23  C   UNL     1     -10.928  19.462  70.072  1.00  0.00     2.449 C  
ENDBRANCH   8  20
BRANCH  14  24
HETATM   24  N   UNL     1      -6.380  15.020  67.834  1.00  0.00    -0.151 N  
HETATM   25  H   UNL     1      -5.374  14.964  67.677  1.00  0.00     0.000 HD 
HETATM   26  O   UNL     1      -8.443  14.120  67.702  1.00  0.00    -0.161 OA 
HETATM   27  C   UNL     1      -7.228  13.926  67.842  1.00  0.00    -0.158 C  
BRANCH  27  28
HETATM   28  C   UNL     1      -6.680  12.513  68.000  1.00  0.00    -0.090 C  
HETATM   29  C   UNL     1      -6.085  12.070  69.357  1.00  0.00    -0.098 C  
HETATM   30  N   UNL     1      -6.351  10.594  69.507  1.00  0.00    -0.059 NA 
HETATM   31  C   UNL     1      -7.806  10.376  69.881  1.00  0.00    -0.034 C  
HETATM   32  C   UNL     1      -5.312   9.932  70.252  1.00  0.00    -0.043 C  
HETATM   33  C   UNL     1      -8.472   8.917  69.689  1.00  0.00    -0.129 C  
HETATM   34  C   UNL     1      -9.775   8.935  68.880  1.00  0.00    -0.173 A  
HETATM   35  C   UNL     1     -10.507   8.033  68.142  1.00  0.00    -0.167 A  
HETATM   36 BR   UNL     1     -10.145   6.215  67.947  1.00  0.00    -0.212 Br 
HETATM   37  N   UNL     1     -11.510   8.697  67.470  1.00  0.00     0.557 NA 
HETATM   38  C   UNL     1     -11.465  10.048  67.741  1.00  0.00     0.342 A  
HETATM   39  H   UNL     1     -12.192   8.250  66.857  1.00  0.00     0.000 HD 
HETATM   40  C   UNL     1     -12.094  11.174  67.184  1.00  0.00     1.052 A  
HETATM   41  C   UNL     1     -11.720  12.442  67.675  1.00  0.00    -0.412 A  
HETATM   42  C   UNL     1     -10.704  12.582  68.609  1.00  0.00    -0.263 A  
HETATM   43  C   UNL     1      -9.991  11.441  68.967  1.00  0.00    -0.087 A  
HETATM   44  C   UNL     1     -10.448  10.166  68.664  1.00  0.00    -0.225 A  
HETATM   45  C   UNL     1      -8.543  11.413  69.036  1.00  0.00     0.067 C  
HETATM   46  C   UNL     1      -7.961  11.724  67.847  1.00  0.00    -0.141 C  
ENDBRANCH  27  28
ENDBRANCH  14  24
TORSDOF 3
ENDMDL
MODEL      125
REMARK 921   NORMALIZED FREE ENERGY PREDICTED BY IDOCK:    4.20 KCAL/MOL
REMARK 922        TOTAL FREE ENERGY PREDICTED BY IDOCK:    5.40 KCAL/MOL
REMARK 923 INTER-LIGAND FREE ENERGY PREDICTED BY IDOCK:    3.23 KCAL/MOL
REMARK 924 INTRA-LIGAND FREE ENERGY PREDICTED BY IDOCK:    2.17 KCAL/MOL
REMARK 927      BINDING AFFINITY PREDICTED BY RF-SCORE:    0.00 PKD
ROOT
HETATM    1  C   UNL     1     -11.011  16.392  68.361  1.00  0.00    -0.353 C  
HETATM    2  C   UNL     1     -12.253  17.278  68.423  1.00  0.00     2.517 C  
HETATM    3  C   UNL     1     -11.661  18.717  68.353  1.00  0.00     2.084 C  
HETATM    4  C   UNL     1     -10.150  18.568  68.524  1.00  0.00    -0.378 C  
HETATM    5  N   UNL     1      -9.961  17.202  68.938  1.00  0.00    -0.300 N  
HETATM    6  C   UNL     1      -8.682  16.704  68.944  1.00  0.00    -0.238 C  
HETATM    7  O   UNL     1      -7.737  17.359  69.372  1.00  0.00    -0.022 OA 
HETATM    8  C   UNL     1      -8.571  15.234  68.499  1.00  0.00    -0.167 C  
HETATM    9  N   UNL     1      -9.719  14.662  67.615  1.00  0.00    -0.212 N  
HETATM   10  C   UNL     1      -8.913  10.348  67.693  1.00  0.00    -0.139 C  
HETATM   11  C   UNL     1      -9.798  13.314  67.305  1.00  0.00    -0.233 C  
HETATM   12  C   UNL     1      -7.217  11.909  68.345  1.00  0.00    -0.091 C  
HETATM   13  O   UNL     1      -9.835  12.863  66.164  1.00  0.00    -0.268 OA 
HETATM   14  C   UNL     1     -10.030  12.565  68.614  1.00  0.00    -0.103 C  
HETATM   15  C   UNL     1     -10.867  14.804  68.417  1.00  0.00    -0.245 C  
HETATM   16  O   UNL     1     -12.085  14.317  67.850  1.00  0.00    -0.509 OA 
HETATM   17  H   UNL     1     -12.000  13.371  67.883  1.00  0.00     0.000 HD 
HETATM   18  C   UNL     1      -8.679  11.555  68.674  1.00  0.00    -0.103 C  
HETATM   19  O   UNL     1     -10.423  13.847  69.390  1.00  0.00    -0.058 OA 
ENDROOT
BRANCH   8  20
HETATM   20  C   UNL     1      -7.200  14.979  67.974  1.00  0.00    -0.140 C  
HETATM   21  C   UNL     1      -7.193  16.704  66.159  1.00  0.00     0.125 C  
HETATM   22  C   UNL     1      -6.420  16.087  67.321  1.00  0.00    -0.200 C  
HETATM   23  C   UNL     1      -5.146  15.402  66.818  1.00  0.00     1.348 C  
ENDBRANCH   8  20
BRANCH  14  24
HETATM   24  N   UNL     1     -11.121  11.681  68.997  1.00  0.00    -0.227 N  
HETATM   25  H   UNL     1     -11.641  11.095  68.343  1.00  0.00     0.000 HD 
HETATM   26  O   UNL     1     -10.929  12.698  70.999  1.00  0.00     2.437 OA 
HETATM   27  C   UNL     1     -11.365  11.733  70.358  1.00  0.00     0.368 C  
BRANCH  27  28
HETATM   28  C   UNL     1     -12.170  10.639  71.051  1.00  0.00    -0.498 C  
HETATM   29  C   UNL     1     -13.053   9.690  70.208  1.00  0.00     0.490 C  
HETATM   30  N   UNL     1     -13.078   8.356  70.909  1.00  0.00     0.126 NA 
HETATM   31  C   UNL     1     -11.769   7.629  70.663  1.00  0.00    -0.193 C  
HETATM   32  C   UNL     1     -14.327   7.667  70.714  1.00  0.00     0.551 C  
HETATM   33  C   UNL     1     -11.344   6.398  71.619  1.00  0.00    -0.339 C  
HETATM   34  C   UNL     1      -9.941   6.538  72.220  1.00  0.00    -0.176 A  
HETATM   35  C   UNL     1      -9.262   6.036  73.307  1.00  0.00    -0.132 A  
HETATM   36 BR   UNL     1      -9.897   4.763  74.512  1.00  0.00    -0.238 Br 
HETATM   37  N   UNL     1      -8.059   6.695  73.443  1.00  0.00    -0.107 NA 
HETATM   38  C   UNL     1      -7.914   7.648  72.458  1.00  0.00    -0.108 A  
HETATM   39  H   UNL     1      -7.372   6.503  74.171  1.00  0.00     0.000 HD 
HETATM   40  C   UNL     1      -7.013   8.706  72.253  1.00  0.00    -0.052 A  
HETATM   41  C   UNL     1      -7.237   9.552  71.146  1.00  0.00     0.073 A  
HETATM   42  C   UNL     1      -8.357   9.402  70.341  1.00  0.00    -0.234 A  
HETATM   43  C   UNL     1      -9.308   8.459  70.721  1.00  0.00    -0.191 A  
HETATM   44  C   UNL     1      -9.036   7.487  71.673  1.00  0.00    -0.137 A  
HETATM   45  C   UNL     1     -10.730   8.746  70.741  1.00  0.00    -0.277 C  
HETATM   46  C   UNL     1     -11.038   9.780  71.569  1.00  0.00    -0.222 C  
ENDBRANCH  27  28
ENDBRANCH  14  24
TORSDOF 3
ENDMDL
MODEL      126
REMARK 921   NORMALIZED FREE ENERGY PREDICTED BY IDOCK:    4.38 KCAL/MOL
REMARK 922        TOTAL FREE ENERGY PREDICTED BY IDOCK:    5.62 KCAL/MOL
REMARK 923 INTER-LIGAND FREE ENERGY PREDICTED BY IDOCK:    2.39 KCAL/MOL
REMARK 924 INTRA-LIGAND FREE ENERGY PREDICTED BY IDOCK:    3.23 KCAL/MOL
REMARK 927      BINDING AFFINITY PREDICTED BY RF-SCORE:    0.00 PKD
ROOT
HETATM    1  C   UNL     1     -10.904  15.653  69.452  1.00  0.00    -0.264 C  
HETATM    2  C   UNL     1     -10.951  15.221  70.915  1.00  0.00    -0.290 C  
HETATM    3  C   UNL     1     -10.744  16.560  71.684  1.00  0.00     1.502 C  
HETATM    4  C   UNL     1     -10.332  17.595  70.638  1.00  0.00     1.916 C  
HETATM    5  N   UNL     1     -10.060  16.828  69.450  1.00  0.00    -0.219 N  
HETATM    6  C   UNL     1      -9.893  17.509  68.270  1.00  0.00    -0.319 C  
HETATM    7  O   UNL     1      -9.232  18.541  68.209  1.00  0.00    -0.302 OA 
HETATM    8  C   UNL     1     -10.487  16.800  67.038  1.00  0.00    -0.285 C  
HETATM    9  N   UNL     1     -11.619  15.758  67.285  1.00  0.00     0.031 N  
HETATM   10  C   UNL     1     -11.924  13.755  63.391  1.00  0.00    -0.065 C  
HETATM   11  C   UNL     1     -12.098  14.949  66.268  1.00  0.00     0.025 C  
HETATM   12  C   UNL     1     -10.804  15.865  63.584  1.00  0.00     2.825 C  
HETATM   13  O   UNL     1     -13.274  14.888  65.922  1.00  0.00     0.516 OA 
HETATM   14  C   UNL     1     -10.949  14.042  65.836  1.00  0.00    -0.286 C  
HETATM   15  C   UNL     1     -11.016  14.793  68.113  1.00  0.00    -0.268 C  
HETATM   16  O   UNL     1     -11.840  13.682  68.473  1.00  0.00    -0.336 OA 
HETATM   17  H   UNL     1     -11.907  13.169  67.676  1.00  0.00     0.000 HD 
HETATM   18  C   UNL     1     -10.778  14.458  64.209  1.00  0.00     0.172 C  
HETATM   19  O   UNL     1     -10.103  14.351  67.097  1.00  0.00    -0.249 OA 
ENDROOT
BRANCH   8  20
HETATM   20  C   UNL     1     -10.793  17.810  65.987  1.00  0.00     0.041 C  
HETATM   21  C   UNL     1     -11.193  19.772  67.492  1.00  0.00     0.075 C  
HETATM   22  C   UNL     1     -10.504  19.266  66.228  1.00  0.00    -0.567 C  
HETATM   23  C   UNL     1     -11.066  19.970  64.989  1.00  0.00     0.699 C  
ENDBRANCH   8  20
BRANCH  14  24
HETATM   24  N   UNL     1     -10.870  12.589  65.816  1.00  0.00    -0.270 N  
HETATM   25  H   UNL     1     -11.483  11.974  66.351  1.00  0.00     0.000 HD 
HETATM   26  O   UNL     1      -8.973  12.944  64.651  1.00  0.00     1.158 OA 
HETATM   27  C   UNL     1      -9.861  12.145  64.980  1.00  0.00    -0.160 C  
BRANCH  27  28
HETATM   28  C   UNL     1      -9.827  10.702  64.491  1.00  0.00    -0.388 C  
HETATM   29  C   UNL     1      -8.620  10.204  63.663  1.00  0.00    -0.197 C  
HETATM   30  N   UNL     1      -8.431   8.741  63.975  1.00  0.00    -0.149 NA 
HETATM   31  C   UNL     1      -7.775   8.592  65.336  1.00  0.00    -0.094 C  
HETATM   32  C   UNL     1      -7.915   8.011  62.847  1.00  0.00    -0.152 C  
HETATM   33  C   UNL     1      -7.842   7.175  66.107  1.00  0.00    -0.105 C  
HETATM   34  C   UNL     1      -8.373   7.276  67.542  1.00  0.00    -0.116 A  
HETATM   35  C   UNL     1      -8.957   6.429  68.456  1.00  0.00    -0.125 A  
HETATM   36 BR   UNL     1      -9.235   4.598  68.241  1.00  0.00    -0.181 Br 
HETATM   37  N   UNL     1      -9.409   7.157  69.534  1.00  0.00    -0.149 NA 
HETATM   38  C   UNL     1      -9.143   8.498  69.361  1.00  0.00    -0.150 A  
HETATM   39  H   UNL     1      -9.877   6.759  70.348  1.00  0.00     0.000 HD 
HETATM   40  C   UNL     1      -9.553   9.667  70.025  1.00  0.00    -0.281 A  
HETATM   41  C   UNL     1      -9.136  10.904  69.491  1.00  0.00     0.229 A  
HETATM   42  C   UNL     1      -8.424  10.972  68.303  1.00  0.00    -0.138 A  
HETATM   43  C   UNL     1      -8.225   9.789  67.597  1.00  0.00    -0.114 A  
HETATM   44  C   UNL     1      -8.441   8.546  68.176  1.00  0.00    -0.134 A  
HETATM   45  C   UNL     1      -8.447   9.683  66.168  1.00  0.00    -0.126 C  
HETATM   46  C   UNL     1      -9.726   9.985  65.819  1.00  0.00    -0.321 C  
ENDBRANCH  27  28
ENDBRANCH  14  24
TORSDOF 3
ENDMDL
MODEL      127
REMARK 921   NORMALIZED FREE ENERGY PREDICTED BY IDOCK:    6.23 KCAL/MOL
REMARK 922        TOTAL FREE ENERGY PREDICTED BY IDOCK:    7.78 KCAL/MOL
REMARK 923 INTER-LIGAND FREE ENERGY PREDICTED BY IDOCK:    5.83 KCAL/MOL
REMARK 924 INTRA-LIGAND FREE ENERGY PREDICTED BY IDOCK:    1.95 KCAL/MOL
REMARK 927      BINDING AFFINITY PREDICTED BY RF-SCORE:    0.00 PKD
ROOT
HETATM    1  C   UNL     1      -7.467  13.234  67.912  1.00  0.00    -0.143 C  
HETATM    2  C   UNL     1      -6.011  13.229  67.454  1.00  0.00     0.034 C  
HETATM    3  C   UNL     1      -5.701  14.742  67.247  1.00  0.00     0.508 C  
HETATM    4  C   UNL     1      -7.042  15.469  67.335  1.00  0.00    -0.202 C  
HETATM    5  N   UNL     1      -8.030  14.421  67.306  1.00  0.00    -0.197 N  
HETATM    6  C   UNL     1      -9.327  14.753  67.607  1.00  0.00    -0.195 C  
HETATM    7  O   UNL     1      -9.850  15.773  67.168  1.00  0.00    -0.223 OA 
HETATM    8  C   UNL     1     -10.086  13.684  68.416  1.00  0.00    -0.241 C  
HETATM    9  N   UNL     1      -9.237  12.672  69.242  1.00  0.00     0.745 N  
HETATM   10  C   UNL     1     -12.206   9.638  70.358  1.00  0.00    -0.065 C  
HETATM   11  C   UNL     1      -9.812  11.576  69.864  1.00  0.00     1.402 C  
HETATM   12  C   UNL     1     -12.909  11.795  69.585  1.00  0.00     0.595 C  
HETATM   13  O   UNL     1      -9.727  11.333  71.064  1.00  0.00     3.809 OA 
HETATM   14  C   UNL     1     -10.363  10.674  68.763  1.00  0.00    -0.193 C  
HETATM   15  C   UNL     1      -8.444  12.027  68.274  1.00  0.00    -0.167 C  
HETATM   16  O   UNL     1      -7.576  11.003  68.766  1.00  0.00    -0.110 OA 
HETATM   17  H   UNL     1      -8.157  10.284  68.982  1.00  0.00     0.000 HD 
HETATM   18  C   UNL     1     -12.005  10.627  69.150  1.00  0.00    -0.230 C  
HETATM   19  O   UNL     1      -9.563  11.387  67.644  1.00  0.00    -0.166 OA 
ENDROOT
BRANCH   8  20
HETATM   20  C   UNL     1     -11.190  14.332  69.177  1.00  0.00    -0.302 C  
HETATM   21  C   UNL     1     -12.884  14.415  67.334  1.00  0.00     1.208 C  
HETATM   22  C   UNL     1     -12.623  14.077  68.799  1.00  0.00     0.431 C  
HETATM   23  C   UNL     1     -13.424  15.005  69.718  1.00  0.00     1.086 C  
ENDBRANCH   8  20
BRANCH  14  24
HETATM   24  N   UNL     1     -10.054   9.283  68.462  1.00  0.00    -0.183 N  
HETATM   25  H   UNL     1      -9.629   8.633  69.124  1.00  0.00     0.000 HD 
HETATM   26  O   UNL     1     -10.595   9.867  66.353  1.00  0.00    -0.161 OA 
HETATM   27  C   UNL     1     -10.410   8.952  67.166  1.00  0.00    -0.281 C  
BRANCH  27  28
HETATM   28  C   UNL     1     -10.551   7.495  66.742  1.00  0.00    -0.269 C  
HETATM   29  C   UNL     1      -9.704   6.956  65.566  1.00  0.00     0.951 C  
HETATM   30  N   UNL     1      -9.424   5.500  65.841  1.00  0.00    -0.135 NA 
HETATM   31  C   UNL     1      -8.341   5.382  66.898  1.00  0.00    -0.108 C  
HETATM   32  C   UNL     1      -9.329   4.730  64.628  1.00  0.00    -0.032 C  
HETATM   33  C   UNL     1      -8.143   3.988  67.689  1.00  0.00    -0.090 C  
HETATM   34  C   UNL     1      -8.148   4.139  69.216  1.00  0.00    -0.063 A  
HETATM   35  C   UNL     1      -8.385   3.327  70.301  1.00  0.00    -0.055 A  
HETATM   36 BR   UNL     1      -8.725   1.495  70.254  1.00  0.00    -0.109 Br 
HETATM   37  N   UNL     1      -8.436   4.092  71.446  1.00  0.00    -0.095 NA 
HETATM   38  C   UNL     1      -8.241   5.424  71.148  1.00  0.00    -0.119 A  
HETATM   39  H   UNL     1      -8.597   3.724  72.383  1.00  0.00     0.000 HD 
HETATM   40  C   UNL     1      -8.395   6.616  71.875  1.00  0.00    -0.114 A  
HETATM   41  C   UNL     1      -8.183   7.832  71.191  1.00  0.00    -0.099 A  
HETATM   42  C   UNL     1      -7.923   7.855  69.829  1.00  0.00    -0.114 A  
HETATM   43  C   UNL     1      -7.982   6.650  69.136  1.00  0.00    -0.112 A  
HETATM   44  C   UNL     1      -7.990   5.427  69.793  1.00  0.00    -0.088 A  
HETATM   45  C   UNL     1      -8.682   6.506  67.875  1.00  0.00    -0.116 C  
HETATM   46  C   UNL     1     -10.002   6.815  67.977  1.00  0.00    -0.162 C  
ENDBRANCH  27  28
ENDBRANCH  14  24
TORSDOF 3
ENDMDL
MODEL      128
REMARK 921   NORMALIZED FREE ENERGY PREDICTED BY IDOCK:    7.12 KCAL/MOL
REMARK 922        TOTAL FREE ENERGY PREDICTED BY IDOCK:    8.84 KCAL/MOL
REMARK 923 INTER-LIGAND FREE ENERGY PREDICTED BY IDOCK:    4.81 KCAL/MOL
REMARK 924 INTRA-LIGAND FREE ENERGY PREDICTED BY IDOCK:    4.03 KCAL/MOL
REMARK 927      BINDING AFFINITY PREDICTED BY RF-SCORE:    0.00 PKD
ROOT
HETATM    1  C   UNL     1     -10.136  14.109  67.681  1.00  0.00    -0.236 C  
HETATM    2  C   UNL     1      -9.005  14.577  66.768  1.00  0.00    -0.270 C  
HETATM    3  C   UNL     1      -9.357  16.073  66.512  1.00  0.00    -0.296 C  
HETATM    4  C   UNL     1     -10.769  16.280  67.057  1.00  0.00    -0.233 C  
HETATM    5  N   UNL     1     -11.257  14.953  67.327  1.00  0.00    -0.337 N  
HETATM    6  C   UNL     1     -12.418  14.830  68.048  1.00  0.00     0.388 C  
HETATM    7  O   UNL     1     -13.389  15.549  67.835  1.00  0.00     3.129 OA 
HETATM    8  C   UNL     1     -12.432  13.645  69.033  1.00  0.00     0.178 C  
HETATM    9  N   UNL     1     -11.056  13.086  69.504  1.00  0.00    -0.066 N  
HETATM   10  C   UNL     1     -12.184   9.319  71.454  1.00  0.00    -0.426 C  
HETATM   11  C   UNL     1     -10.959  11.924  70.251  1.00  0.00     0.937 C  
HETATM   12  C   UNL     1     -13.836  10.998  71.016  1.00  0.00     1.263 C  
HETATM   13  O   UNL     1     -10.416  11.844  71.349  1.00  0.00     5.196 OA 
HETATM   14  C   UNL     1     -11.458  10.781  69.369  1.00  0.00    -0.295 C  
HETATM   15  C   UNL     1     -10.432  12.674  68.311  1.00  0.00    -0.239 C  
HETATM   16  O   UNL     1      -9.141  12.079  68.461  1.00  0.00    -0.277 OA 
HETATM   17  H   UNL     1      -9.317  11.224  68.837  1.00  0.00     0.000 HD 
HETATM   18  C   UNL     1     -12.754  10.191  70.275  1.00  0.00    -0.105 C  
HETATM   19  O   UNL     1     -11.375  11.619  68.069  1.00  0.00    -0.249 OA 
ENDROOT
BRANCH   8  20
HETATM   20  C   UNL     1     -13.395  13.929  70.133  1.00  0.00     0.742 C  
HETATM   21  C   UNL     1     -11.745  14.682  71.859  1.00  0.00    -0.180 C  
HETATM   22  C   UNL     1     -13.076  14.969  71.171  1.00  0.00    -0.479 C  
HETATM   23  C   UNL     1     -14.232  14.869  72.171  1.00  0.00    -0.616 C  
ENDBRANCH   8  20
BRANCH  14  24
HETATM   24  N   UNL     1     -10.772   9.569  68.945  1.00  0.00    -0.296 N  
HETATM   25  H   UNL     1     -11.152   8.899  68.276  1.00  0.00     0.000 HD 
HETATM   26  O   UNL     1      -9.321  10.098  70.587  1.00  0.00     0.193 OA 
HETATM   27  C   UNL     1      -9.541   9.438  69.563  1.00  0.00    -0.180 C  
BRANCH  27  28
HETATM   28  C   UNL     1      -8.486   8.487  69.010  1.00  0.00    -0.126 C  
HETATM   29  C   UNL     1      -8.789   6.973  68.928  1.00  0.00    -0.130 C  
HETATM   30  N   UNL     1      -8.043   6.427  67.737  1.00  0.00    -0.114 NA 
HETATM   31  C   UNL     1      -8.769   6.813  66.462  1.00  0.00    -0.136 C  
HETATM   32  C   UNL     1      -7.627   5.063  67.940  1.00  0.00    -0.083 C  
HETATM   33  C   UNL     1      -7.995   6.743  65.046  1.00  0.00    -0.125 C  
HETATM   34  C   UNL     1      -8.069   8.043  64.237  1.00  0.00    -0.117 A  
HETATM   35  C   UNL     1      -7.343   8.638  63.230  1.00  0.00    -0.101 A  
HETATM   36 BR   UNL     1      -5.886   7.897  62.334  1.00  0.00    -0.070 Br 
HETATM   37  N   UNL     1      -7.790   9.928  63.042  1.00  0.00    -0.132 NA 
HETATM   38  C   UNL     1      -8.813  10.220  63.918  1.00  0.00    -0.220 A  
HETATM   39  H   UNL     1      -7.415  10.577  62.351  1.00  0.00     0.000 HD 
HETATM   40  C   UNL     1      -9.469  11.406  64.289  1.00  0.00    -0.153 A  
HETATM   41  C   UNL     1     -10.435  11.327  65.315  1.00  0.00    -0.341 A  
HETATM   42  C   UNL     1     -10.665  10.141  65.996  1.00  0.00     0.033 A  
HETATM   43  C   UNL     1      -9.840   9.057  65.710  1.00  0.00    -0.181 A  
HETATM   44  C   UNL     1      -9.024   9.034  64.587  1.00  0.00    -0.112 A  
HETATM   45  C   UNL     1      -9.234   8.241  66.744  1.00  0.00    -0.212 C  
HETATM   46  C   UNL     1      -8.438   8.965  67.576  1.00  0.00    -0.116 C  
ENDBRANCH  27  28
ENDBRANCH  14  24
TORSDOF 3
ENDMDL
MODEL      129
REMARK 921   NORMALIZED FREE ENERGY PREDICTED BY IDOCK:    7.96 KCAL/MOL
REMARK 922        TOTAL FREE ENERGY PREDICTED BY IDOCK:    9.82 KCAL/MOL
REMARK 923 INTER-LIGAND FREE ENERGY PREDICTED BY IDOCK:    7.77 KCAL/MOL
REMARK 924 INTRA-LIGAND FREE ENERGY PREDICTED BY IDOCK:    2.05 KCAL/MOL
REMARK 927      BINDING AFFINITY PREDICTED BY RF-SCORE:    0.00 PKD
ROOT
HETATM    1  C   UNL     1     -11.068  16.608  69.809  1.00  0.00    -0.132 C  
HETATM    2  C   UNL     1     -11.273  16.472  71.315  1.00  0.00     0.084 C  
HETATM    3  C   UNL     1     -11.066  17.927  71.831  1.00  0.00     2.648 C  
HETATM    4  C   UNL     1     -10.504  18.723  70.654  1.00  0.00     2.162 C  
HETATM    5  N   UNL     1     -10.164  17.730  69.669  1.00  0.00     0.093 N  
HETATM    6  C   UNL     1      -9.852  18.161  68.404  1.00  0.00    -0.370 C  
HETATM    7  O   UNL     1      -9.133  19.137  68.215  1.00  0.00    -0.312 OA 
HETATM    8  C   UNL     1     -10.366  17.246  67.276  1.00  0.00    -0.331 C  
HETATM    9  N   UNL     1     -11.571  16.314  67.600  1.00  0.00     0.089 N  
HETATM   10  C   UNL     1     -11.621  13.601  64.149  1.00  0.00    -0.386 C  
HETATM   11  C   UNL     1     -11.997  15.339  66.713  1.00  0.00     0.267 C  
HETATM   12  C   UNL     1     -10.411  15.667  64.049  1.00  0.00     2.188 C  
HETATM   13  O   UNL     1     -13.137  15.253  66.267  1.00  0.00     1.435 OA 
HETATM   14  C   UNL     1     -10.863  14.325  66.581  1.00  0.00    -0.301 C  
HETATM   15  C   UNL     1     -11.101  15.508  68.655  1.00  0.00    -0.297 C  
HETATM   16  O   UNL     1     -12.014  14.518  69.133  1.00  0.00    -0.322 OA 
HETATM   17  H   UNL     1     -12.034  13.863  68.446  1.00  0.00     0.000 HD 
HETATM   18  C   UNL     1     -10.520  14.409  64.931  1.00  0.00    -0.448 C  
HETATM   19  O   UNL     1     -10.123  14.844  67.839  1.00  0.00    -0.225 OA 
ENDROOT
BRANCH   8  20
HETATM   20  C   UNL     1     -10.517  18.042  66.026  1.00  0.00    -0.317 C  
HETATM   21  C   UNL     1     -11.358  20.163  67.060  1.00  0.00     0.791 C  
HETATM   22  C   UNL     1     -10.387  19.540  66.060  1.00  0.00    -0.604 C  
HETATM   23  C   UNL     1     -10.729  19.979  64.633  1.00  0.00     1.820 C  
ENDBRANCH   8  20
BRANCH  14  24
HETATM   24  N   UNL     1     -10.862  12.894  66.846  1.00  0.00    -0.254 N  
HETATM   25  H   UNL     1     -11.629  12.393  67.297  1.00  0.00     0.000 HD 
HETATM   26  O   UNL     1      -8.707  13.015  66.198  1.00  0.00     0.179 OA 
HETATM   27  C   UNL     1      -9.693  12.297  66.412  1.00  0.00    -0.234 C  
BRANCH  27  28
HETATM   28  C   UNL     1      -9.610  10.787  66.220  1.00  0.00    -0.234 C  
HETATM   29  C   UNL     1      -8.231  10.088  66.247  1.00  0.00    -0.124 C  
HETATM   30  N   UNL     1      -8.436   8.704  66.808  1.00  0.00    -0.114 NA 
HETATM   31  C   UNL     1      -8.612   8.787  68.313  1.00  0.00    -0.134 C  
HETATM   32  C   UNL     1      -7.515   7.751  66.246  1.00  0.00    -0.079 C  
HETATM   33  C   UNL     1      -9.265   7.546  69.114  1.00  0.00    -0.144 C  
HETATM   34  C   UNL     1     -10.445   7.941  70.009  1.00  0.00    -0.231 A  
HETATM   35  C   UNL     1     -11.530   7.309  70.573  1.00  0.00    -0.279 A  
HETATM   36 BR   UNL     1     -11.906   5.485  70.496  1.00  0.00     2.040 Br 
HETATM   37  N   UNL     1     -12.371   8.248  71.129  1.00  0.00    -0.439 NA 
HETATM   38  C   UNL     1     -11.871   9.518  70.944  1.00  0.00    -0.309 A  
HETATM   39  H   UNL     1     -13.244   8.032  71.611  1.00  0.00     0.000 HD 
HETATM   40  C   UNL     1     -12.401  10.808  71.117  1.00  0.00    -0.498 A  
HETATM   41  C   UNL     1     -11.601  11.903  70.727  1.00  0.00     0.478 A  
HETATM   42  C   UNL     1     -10.373  11.712  70.110  1.00  0.00     1.488 A  
HETATM   43  C   UNL     1     -10.001  10.409  69.791  1.00  0.00    -0.167 A  
HETATM   44  C   UNL     1     -10.656   9.309  70.327  1.00  0.00    -0.278 A  
HETATM   45  C   UNL     1      -9.460  10.044  68.496  1.00  0.00    -0.150 C  
HETATM   46  C   UNL     1     -10.315  10.331  67.478  1.00  0.00    -0.276 C  
ENDBRANCH  27  28
ENDBRANCH  14  24
TORSDOF 3
ENDMDL
MODEL      130
REMARK 921   NORMALIZED FREE ENERGY PREDICTED BY IDOCK:    8.04 KCAL/MOL
REMARK 922        TOTAL FREE ENERGY PREDICTED BY IDOCK:    9.92 KCAL/MOL
REMARK 923 INTER-LIGAND FREE ENERGY PREDICTED BY IDOCK:    3.48 KCAL/MOL
REMARK 924 INTRA-LIGAND FREE ENERGY PREDICTED BY IDOCK:    6.44 KCAL/MOL
REMARK 927      BINDING AFFINITY PREDICTED BY RF-SCORE:    0.00 PKD
ROOT
HETATM    1  C   UNL     1     -10.071  14.642  65.539  1.00  0.00    -0.377 C  
HETATM    2  C   UNL     1     -10.588  14.120  64.200  1.00  0.00     0.385 C  
HETATM    3  C   UNL     1     -11.805  15.047  63.908  1.00  0.00     0.176 C  
HETATM    4  C   UNL     1     -12.061  15.836  65.191  1.00  0.00     0.612 C  
HETATM    5  N   UNL     1     -11.241  15.194  66.186  1.00  0.00    -0.313 N  
HETATM    6  C   UNL     1     -11.081  15.828  67.392  1.00  0.00    -0.235 C  
HETATM    7  O   UNL     1     -12.023  16.361  67.971  1.00  0.00     0.179 OA 
HETATM    8  C   UNL     1      -9.672  15.692  67.999  1.00  0.00    -0.204 C  
HETATM    9  N   UNL     1      -8.498  15.373  67.026  1.00  0.00    -0.213 N  
HETATM   10  C   UNL     1      -5.244  14.324  69.779  1.00  0.00    -0.092 C  
HETATM   11  C   UNL     1      -7.230  15.066  67.489  1.00  0.00    -0.201 C  
HETATM   12  C   UNL     1      -7.176  15.496  70.576  1.00  0.00     0.818 C  
HETATM   13  O   UNL     1      -6.208  15.671  67.177  1.00  0.00    -0.317 OA 
HETATM   14  C   UNL     1      -7.339  13.754  68.263  1.00  0.00    -0.118 C  
HETATM   15  C   UNL     1      -8.862  14.140  66.450  1.00  0.00     0.064 C  
HETATM   16  O   UNL     1      -7.924  13.588  65.523  1.00  0.00     2.358 OA 
HETATM   17  H   UNL     1      -7.204  13.289  66.065  1.00  0.00     0.000 HD 
HETATM   18  C   UNL     1      -6.815  14.218  69.798  1.00  0.00    -0.053 C  
HETATM   19  O   UNL     1      -8.736  13.417  67.683  1.00  0.00    -0.173 OA 
ENDROOT
BRANCH   8  20
HETATM   20  C   UNL     1      -9.419  16.834  68.921  1.00  0.00    -0.246 C  
HETATM   21  C   UNL     1      -8.331  18.378  67.276  1.00  0.00    -0.251 C  
HETATM   22  C   UNL     1      -9.365  18.240  68.389  1.00  0.00    -0.328 C  
HETATM   23  C   UNL     1      -8.967  19.086  69.602  1.00  0.00     0.535 C  
ENDBRANCH   8  20
BRANCH  14  24
HETATM   24  N   UNL     1      -6.652  12.489  68.047  1.00  0.00    -0.075 N  
HETATM   25  H   UNL     1      -5.787  12.219  68.514  1.00  0.00     0.000 HD 
HETATM   26  O   UNL     1      -8.148  12.233  66.379  1.00  0.00     0.074 OA 
HETATM   27  C   UNL     1      -7.320  11.698  67.128  1.00  0.00    -0.143 C  
BRANCH  27  28
HETATM   28  C   UNL     1      -7.030  10.205  67.025  1.00  0.00    -0.088 C  
HETATM   29  C   UNL     1      -5.880   9.591  67.856  1.00  0.00    -0.041 C  
HETATM   30  N   UNL     1      -6.272   8.175  68.193  1.00  0.00    -0.049 NA 
HETATM   31  C   UNL     1      -7.301   8.185  69.309  1.00  0.00    -0.077 C  
HETATM   32  C   UNL     1      -5.129   7.304  68.279  1.00  0.00    -0.020 C  
HETATM   33  C   UNL     1      -8.205   6.874  69.577  1.00  0.00    -0.131 C  
HETATM   34  C   UNL     1      -9.711   7.159  69.610  1.00  0.00    -0.158 A  
HETATM   35  C   UNL     1     -10.871   6.439  69.433  1.00  0.00    -0.321 A  
HETATM   36 BR   UNL     1     -10.996   4.601  69.153  1.00  0.00     2.452 Br 
HETATM   37  N   UNL     1     -11.945   7.302  69.388  1.00  0.00     0.025 NA 
HETATM   38  C   UNL     1     -11.526   8.607  69.529  1.00  0.00     0.419 A  
HETATM   39  H   UNL     1     -12.916   7.013  69.267  1.00  0.00     0.000 HD 
HETATM   40  C   UNL     1     -12.150   9.854  69.356  1.00  0.00     0.388 A  
HETATM   41  C   UNL     1     -11.355  11.010  69.506  1.00  0.00    -0.356 A  
HETATM   42  C   UNL     1      -9.989  10.921  69.727  1.00  0.00     0.236 A  
HETATM   43  C   UNL     1      -9.406   9.657  69.689  1.00  0.00    -0.226 A  
HETATM   44  C   UNL     1     -10.168   8.498  69.741  1.00  0.00    -0.206 A  
HETATM   45  C   UNL     1      -8.185   9.380  68.958  1.00  0.00    -0.108 C  
HETATM   46  C   UNL     1      -8.301   9.655  67.632  1.00  0.00    -0.121 C  
ENDBRANCH  27  28
ENDBRANCH  14  24
TORSDOF 3
ENDMDL
MODEL      131
REMARK 921   NORMALIZED FREE ENERGY PREDICTED BY IDOCK:    8.10 KCAL/MOL
REMARK 922        TOTAL FREE ENERGY PREDICTED BY IDOCK:    9.99 KCAL/MOL
REMARK 923 INTER-LIGAND FREE ENERGY PREDICTED BY IDOCK:    2.85 KCAL/MOL
REMARK 924 INTRA-LIGAND FREE ENERGY PREDICTED BY IDOCK:    7.13 KCAL/MOL
REMARK 927      BINDING AFFINITY PREDICTED BY RF-SCORE:    0.00 PKD
ROOT
HETATM    1  C   UNL     1     -11.175  11.305  66.377  1.00  0.00    -0.121 C  
HETATM    2  C   UNL     1     -12.269  12.369  66.372  1.00  0.00    -0.012 C  
HETATM    3  C   UNL     1     -12.932  12.185  64.975  1.00  0.00     0.691 C  
HETATM    4  C   UNL     1     -12.023  11.239  64.190  1.00  0.00     0.483 C  
HETATM    5  N   UNL     1     -10.825  11.142  64.983  1.00  0.00    -0.224 N  
HETATM    6  C   UNL     1      -9.912  10.173  64.649  1.00  0.00    -0.234 C  
HETATM    7  O   UNL     1      -9.608   9.948  63.481  1.00  0.00    -0.212 OA 
HETATM    8  C   UNL     1      -9.223   9.506  65.854  1.00  0.00    -0.206 C  
HETATM    9  N   UNL     1      -9.959   9.566  67.226  1.00  0.00    -0.177 N  
HETATM   10  C   UNL     1      -6.847   8.252  70.028  1.00  0.00    -0.043 C  
HETATM   11  C   UNL     1      -9.352   9.148  68.398  1.00  0.00    -0.135 C  
HETATM   12  C   UNL     1      -6.615   7.840  67.679  1.00  0.00    -0.063 C  
HETATM   13  O   UNL     1      -9.803   8.288  69.148  1.00  0.00    -0.172 OA 
HETATM   14  C   UNL     1      -8.173  10.085  68.652  1.00  0.00    -0.111 C  
HETATM   15  C   UNL     1     -10.083  10.945  67.483  1.00  0.00    -0.184 C  
HETATM   16  O   UNL     1     -10.706  11.291  68.722  1.00  0.00    -0.184 OA 
HETATM   17  H   UNL     1     -10.057  11.077  69.381  1.00  0.00     0.000 HD 
HETATM   18  C   UNL     1      -6.874   9.008  68.648  1.00  0.00    -0.063 C  
HETATM   19  O   UNL     1      -8.670  11.142  67.634  1.00  0.00    -0.127 OA 
ENDROOT
BRANCH   8  20
HETATM   20  C   UNL     1      -8.751   8.149  65.464  1.00  0.00    -0.152 C  
HETATM   21  C   UNL     1      -6.943   8.848  63.879  1.00  0.00    -0.087 C  
HETATM   22  C   UNL     1      -7.324   7.935  65.040  1.00  0.00    -0.072 C  
HETATM   23  C   UNL     1      -7.276   6.466  64.608  1.00  0.00    -0.064 C  
ENDBRANCH   8  20
BRANCH  14  24
HETATM   24  N   UNL     1      -7.894  10.935  69.800  1.00  0.00    -0.350 N  
HETATM   25  H   UNL     1      -7.348  10.644  70.610  1.00  0.00     0.000 HD 
HETATM   26  O   UNL     1      -9.369  12.333  68.824  1.00  0.00    -0.058 OA 
HETATM   27  C   UNL     1      -8.463  12.188  69.655  1.00  0.00     1.694 C  
BRANCH  27  28
HETATM   28  C   UNL     1      -8.001  13.361  70.512  1.00  0.00     3.909 C  
HETATM   29  C   UNL     1      -6.493  13.554  70.794  1.00  0.00     0.494 C  
HETATM   30  N   UNL     1      -6.244  15.035  70.926  1.00  0.00     0.077 NA 
HETATM   31  C   UNL     1      -6.240  15.674  69.549  1.00  0.00    -0.152 C  
HETATM   32  C   UNL     1      -5.180  15.323  71.852  1.00  0.00     0.004 C  
HETATM   33  C   UNL     1      -6.426  17.271  69.407  1.00  0.00    -0.235 C  
HETATM   34  C   UNL     1      -7.543  17.680  68.440  1.00  0.00    -0.260 A  
HETATM   35  C   UNL     1      -8.335  18.787  68.235  1.00  0.00    -0.330 A  
HETATM   36 BR   UNL     1      -8.212  20.413  69.137  1.00  0.00     0.920 Br 
HETATM   37  N   UNL     1      -9.320  18.484  67.320  1.00  0.00    -0.277 NA 
HETATM   38  C   UNL     1      -9.209  17.176  66.902  1.00  0.00    -0.241 A  
HETATM   39  H   UNL     1     -10.033  19.138  66.997  1.00  0.00     0.000 HD 
HETATM   40  C   UNL     1     -10.041  16.315  66.166  1.00  0.00    -0.362 A  
HETATM   41  C   UNL     1      -9.623  14.976  66.009  1.00  0.00    -0.359 A  
HETATM   42  C   UNL     1      -8.479  14.502  66.634  1.00  0.00    -0.006 A  
HETATM   43  C   UNL     1      -7.814  15.357  67.507  1.00  0.00    -0.193 A  
HETATM   44  C   UNL     1      -8.073  16.721  67.536  1.00  0.00    -0.188 A  
HETATM   45  C   UNL     1      -7.366  14.940  68.821  1.00  0.00    -0.127 C  
HETATM   46  C   UNL     1      -8.389  14.508  69.605  1.00  0.00     0.362 C  
ENDBRANCH  27  28
ENDBRANCH  14  24
TORSDOF 3
ENDMDL
MODEL      132
REMARK 921   NORMALIZED FREE ENERGY PREDICTED BY IDOCK:    8.70 KCAL/MOL
REMARK 922        TOTAL FREE ENERGY PREDICTED BY IDOCK:   10.69 KCAL/MOL
REMARK 923 INTER-LIGAND FREE ENERGY PREDICTED BY IDOCK:    9.58 KCAL/MOL
REMARK 924 INTRA-LIGAND FREE ENERGY PREDICTED BY IDOCK:    1.11 KCAL/MOL
REMARK 927      BINDING AFFINITY PREDICTED BY RF-SCORE:    0.00 PKD
ROOT
HETATM    1  C   UNL     1      -9.554  18.931  70.309  1.00  0.00     1.531 C  
HETATM    2  C   UNL     1     -10.136  19.352  71.656  1.00  0.00     3.108 C  
HETATM    3  C   UNL     1      -9.379  20.678  71.967  1.00  0.00     2.557 C  
HETATM    4  C   UNL     1      -8.254  20.780  70.938  1.00  0.00     2.869 C  
HETATM    5  N   UNL     1      -8.219  19.488  70.303  1.00  0.00     1.070 N  
HETATM    6  C   UNL     1      -7.461  19.350  69.168  1.00  0.00    -0.307 C  
HETATM    7  O   UNL     1      -6.340  19.842  69.077  1.00  0.00    -0.279 OA 
HETATM    8  C   UNL     1      -8.079  18.431  68.098  1.00  0.00    -0.290 C  
HETATM    9  N   UNL     1      -9.622  18.215  68.141  1.00  0.00    -0.294 N  
HETATM   10  C   UNL     1     -10.183  14.855  65.373  1.00  0.00    -0.409 C  
HETATM   11  C   UNL     1     -10.249  17.280  67.334  1.00  0.00    -0.325 C  
HETATM   12  C   UNL     1      -8.144  16.113  65.353  1.00  0.00     2.546 C  
HETATM   13  O   UNL     1     -11.156  17.536  66.547  1.00  0.00     0.118 OA 
HETATM   14  C   UNL     1      -9.744  15.905  67.764  1.00  0.00    -0.220 C  
HETATM   15  C   UNL     1      -9.849  17.647  69.409  1.00  0.00     0.067 C  
HETATM   16  O   UNL     1     -11.206  17.310  69.704  1.00  0.00    -0.114 OA 
HETATM   17  H   UNL     1     -11.382  16.546  69.168  1.00  0.00     0.000 HD 
HETATM   18  C   UNL     1      -9.039  15.339  66.339  1.00  0.00    -0.347 C  
HETATM   19  O   UNL     1      -9.154  16.431  69.096  1.00  0.00    -0.250 OA 
ENDROOT
BRANCH   8  20
HETATM   20  C   UNL     1      -7.543  18.801  66.759  1.00  0.00    -0.243 C  
HETATM   21  C   UNL     1      -9.403  20.318  66.043  1.00  0.00    -0.227 C  
HETATM   22  C   UNL     1      -7.892  20.128  66.142  1.00  0.00    -0.270 C  
HETATM   23  C   UNL     1      -7.263  20.071  64.747  1.00  0.00     0.349 C  
ENDBRANCH   8  20
BRANCH  14  24
HETATM   24  N   UNL     1     -10.490  14.751  68.244  1.00  0.00    -0.237 N  
HETATM   25  H   UNL     1     -11.496  14.748  68.416  1.00  0.00     0.000 HD 
HETATM   26  O   UNL     1      -8.445  13.846  68.532  1.00  0.00    -0.157 OA 
HETATM   27  C   UNL     1      -9.665  13.657  68.439  1.00  0.00    -0.217 C  
BRANCH  27  28
HETATM   28  C   UNL     1     -10.244  12.252  68.557  1.00  0.00    -0.213 C  
HETATM   29  C   UNL     1     -10.540  11.437  67.277  1.00  0.00    -0.227 C  
HETATM   30  N   UNL     1     -10.333   9.981  67.609  1.00  0.00    -0.207 NA 
HETATM   31  C   UNL     1      -8.846   9.679  67.662  1.00  0.00    -0.125 C  
HETATM   32  C   UNL     1     -11.212   9.125  66.857  1.00  0.00     0.915 C  
HETATM   33  C   UNL     1      -8.327   8.341  68.402  1.00  0.00    -0.132 C  
HETATM   34  C   UNL     1      -7.242   8.600  69.455  1.00  0.00    -0.057 A  
HETATM   35  C   UNL     1      -6.749   7.952  70.564  1.00  0.00    -0.038 A  
HETATM   36 BR   UNL     1      -7.250   6.261  71.167  1.00  0.00    -0.080 Br 
HETATM   37  N   UNL     1      -5.887   8.788  71.240  1.00  0.00    -0.040 NA 
HETATM   38  C   UNL     1      -5.793  10.006  70.602  1.00  0.00    -0.087 A  
HETATM   39  H   UNL     1      -5.389   8.540  72.095  1.00  0.00     0.000 HD 
HETATM   40  C   UNL     1      -5.242  11.250  70.954  1.00  0.00    -0.121 A  
HETATM   41  C   UNL     1      -5.421  12.323  70.056  1.00  0.00    -0.111 A  
HETATM   42  C   UNL     1      -6.190  12.182  68.910  1.00  0.00    -0.077 A  
HETATM   43  C   UNL     1      -6.867  10.980  68.727  1.00  0.00    -0.073 A  
HETATM   44  C   UNL     1      -6.565   9.848  69.471  1.00  0.00    -0.051 A  
HETATM   45  C   UNL     1      -8.261  10.920  68.332  1.00  0.00    -0.133 C  
HETATM   46  C   UNL     1      -9.078  11.551  69.218  1.00  0.00     0.412 C  
ENDBRANCH  27  28
ENDBRANCH  14  24
TORSDOF 3
ENDMDL
MODEL      133
REMARK 921   NORMALIZED FREE ENERGY PREDICTED BY IDOCK:    9.26 KCAL/MOL
REMARK 922        TOTAL FREE ENERGY PREDICTED BY IDOCK:   11.35 KCAL/MOL
REMARK 923 INTER-LIGAND FREE ENERGY PREDICTED BY IDOCK:    9.89 KCAL/MOL
REMARK 924 INTRA-LIGAND FREE ENERGY PREDICTED BY IDOCK:    1.47 KCAL/MOL
REMARK 927      BINDING AFFINITY PREDICTED BY RF-SCORE:    0.00 PKD
ROOT
HETATM    1  C   UNL     1      -9.410  19.659  70.258  1.00  0.00     1.119 C  
HETATM    2  C   UNL     1     -10.280  20.136  71.418  1.00  0.00     2.719 C  
HETATM    3  C   UNL     1      -9.315  21.053  72.227  1.00  0.00     3.168 C  
HETATM    4  C   UNL     1      -7.921  20.828  71.644  1.00  0.00     2.798 C  
HETATM    5  N   UNL     1      -8.063  19.680  70.786  1.00  0.00     1.661 N  
HETATM    6  C   UNL     1      -7.027  19.380  69.939  1.00  0.00     0.006 C  
HETATM    7  O   UNL     1      -5.857  19.429  70.308  1.00  0.00    -0.241 OA 
HETATM    8  C   UNL     1      -7.465  18.859  68.557  1.00  0.00    -0.307 C  
HETATM    9  N   UNL     1      -8.901  19.226  68.074  1.00  0.00    -0.307 N  
HETATM   10  C   UNL     1      -9.433  16.588  64.606  1.00  0.00     3.158 C  
HETATM   11  C   UNL     1      -9.448  18.670  66.930  1.00  0.00    -0.301 C  
HETATM   12  C   UNL     1      -7.244  16.999  65.491  1.00  0.00     1.244 C  
HETATM   13  O   UNL     1      -9.875  19.316  65.977  1.00  0.00    -0.384 OA 
HETATM   14  C   UNL     1      -9.594  17.172  67.184  1.00  0.00    -0.255 C  
HETATM   15  C   UNL     1      -9.741  18.666  69.055  1.00  0.00    -0.259 C  
HETATM   16  O   UNL     1     -11.144  18.829  68.835  1.00  0.00     0.353 OA 
HETATM   17  H   UNL     1     -11.342  18.237  68.118  1.00  0.00     0.000 HD 
HETATM   18  C   UNL     1      -8.632  16.522  65.959  1.00  0.00    -0.241 C  
HETATM   19  O   UNL     1      -9.399  17.314  68.714  1.00  0.00    -0.264 OA 
ENDROOT
BRANCH   8  20
HETATM   20  C   UNL     1      -6.390  19.129  67.563  1.00  0.00    -0.208 C  
HETATM   21  C   UNL     1      -7.546  20.939  66.276  1.00  0.00     0.182 C  
HETATM   22  C   UNL     1      -6.250  20.494  66.948  1.00  0.00    -0.252 C  
HETATM   23  C   UNL     1      -5.136  20.327  65.910  1.00  0.00    -0.188 C  
ENDBRANCH   8  20
BRANCH  14  24
HETATM   24  N   UNL     1     -10.785  16.335  67.147  1.00  0.00    -0.288 N  
HETATM   25  H   UNL     1     -11.725  16.684  66.959  1.00  0.00     0.000 HD 
HETATM   26  O   UNL     1      -9.402  14.741  67.939  1.00  0.00    -0.188 OA 
HETATM   27  C   UNL     1     -10.483  15.009  67.399  1.00  0.00    -0.257 C  
BRANCH  27  28
HETATM   28  C   UNL     1     -11.466  13.901  67.038  1.00  0.00    -0.367 C  
HETATM   29  C   UNL     1     -11.866  13.685  65.560  1.00  0.00    -0.362 C  
HETATM   30  N   UNL     1     -12.139  12.214  65.376  1.00  0.00    -0.484 NA 
HETATM   31  C   UNL     1     -10.825  11.458  65.308  1.00  0.00    -0.233 C  
HETATM   32  C   UNL     1     -13.157  11.974  64.387  1.00  0.00     0.323 C  
HETATM   33  C   UNL     1     -10.807   9.860  65.544  1.00  0.00     0.831 C  
HETATM   34  C   UNL     1      -9.804   9.405  66.611  1.00  0.00    -0.309 A  
HETATM   35  C   UNL     1      -9.640   8.311  67.430  1.00  0.00    -0.160 A  
HETATM   36 BR   UNL     1     -10.683   6.766  67.427  1.00  0.00    -0.429 Br 
HETATM   37  N   UNL     1      -8.638   8.564  68.341  1.00  0.00    -0.138 NA 
HETATM   38  C   UNL     1      -8.119   9.827  68.154  1.00  0.00    -0.108 A  
HETATM   39  H   UNL     1      -8.324   7.908  69.055  1.00  0.00     0.000 HD 
HETATM   40  C   UNL     1      -7.258  10.647  68.902  1.00  0.00    -0.090 A  
HETATM   41  C   UNL     1      -7.016  11.952  68.424  1.00  0.00    -0.078 A  
HETATM   42  C   UNL     1      -7.676  12.442  67.306  1.00  0.00    -0.158 A  
HETATM   43  C   UNL     1      -8.662  11.645  66.732  1.00  0.00    -0.189 A  
HETATM   44  C   UNL     1      -8.788  10.299  67.045  1.00  0.00    -0.143 A  
HETATM   45  C   UNL     1      -9.963  12.161  66.355  1.00  0.00    -0.243 C  
HETATM   46  C   UNL     1     -10.636  12.693  67.410  1.00  0.00    -0.240 C  
ENDBRANCH  27  28
ENDBRANCH  14  24
TORSDOF 3
ENDMDL
MODEL      134
REMARK 921   NORMALIZED FREE ENERGY PREDICTED BY IDOCK:    9.81 KCAL/MOL
REMARK 922        TOTAL FREE ENERGY PREDICTED BY IDOCK:   12.00 KCAL/MOL
REMARK 923 INTER-LIGAND FREE ENERGY PREDICTED BY IDOCK:   10.51 KCAL/MOL
REMARK 924 INTRA-LIGAND FREE ENERGY PREDICTED BY IDOCK:    1.49 KCAL/MOL
REMARK 927      BINDING AFFINITY PREDICTED BY RF-SCORE:    0.00 PKD
ROOT
HETATM    1  C   UNL     1      -9.601   5.624  67.971  1.00  0.00    -0.120 C  
HETATM    2  C   UNL     1     -10.562   5.135  69.053  1.00  0.00    -0.061 C  
HETATM    3  C   UNL     1     -10.984   3.727  68.537  1.00  0.00     4.232 C  
HETATM    4  C   UNL     1     -10.465   3.623  67.103  1.00  0.00     1.622 C  
HETATM    5  N   UNL     1     -10.047   4.959  66.767  1.00  0.00    -0.222 N  
HETATM    6  C   UNL     1      -9.316   5.132  65.618  1.00  0.00    -0.138 C  
HETATM    7  O   UNL     1      -9.609   4.557  64.574  1.00  0.00    -0.140 OA 
HETATM    8  C   UNL     1      -8.204   6.193  65.726  1.00  0.00    -0.138 C  
HETATM    9  N   UNL     1      -7.673   6.534  67.151  1.00  0.00    -0.099 N  
HETATM   10  C   UNL     1      -5.310  10.163  66.435  1.00  0.00    -0.046 C  
HETATM   11  C   UNL     1      -6.801   7.587  67.370  1.00  0.00    -0.071 C  
HETATM   12  C   UNL     1      -5.934   8.744  64.608  1.00  0.00    -0.065 C  
HETATM   13  O   UNL     1      -5.701   7.480  67.906  1.00  0.00    -0.032 OA 
HETATM   14  C   UNL     1      -7.547   8.870  67.016  1.00  0.00    -0.094 C  
HETATM   15  C   UNL     1      -8.812   7.003  67.833  1.00  0.00    -0.124 C  
HETATM   16  O   UNL     1      -8.597   7.426  69.182  1.00  0.00    -0.135 OA 
HETATM   17  H   UNL     1      -8.127   8.247  69.100  1.00  0.00     0.000 HD 
HETATM   18  C   UNL     1      -6.580   9.499  65.784  1.00  0.00    -0.075 C  
HETATM   19  O   UNL     1      -8.934   8.179  67.019  1.00  0.00    -0.134 OA 
ENDROOT
BRANCH   8  20
HETATM   20  C   UNL     1      -7.143   5.900  64.724  1.00  0.00    -0.060 C  
HETATM   21  C   UNL     1      -8.331   6.759  62.694  1.00  0.00     0.073 C  
HETATM   22  C   UNL     1      -7.023   6.736  63.479  1.00  0.00    -0.056 C  
HETATM   23  C   UNL     1      -5.920   6.048  62.670  1.00  0.00    -0.026 C  
ENDBRANCH   8  20
BRANCH  14  24
HETATM   24  N   UNL     1      -7.832  10.036  67.840  1.00  0.00    -0.090 N  
HETATM   25  H   UNL     1      -7.254  10.340  68.624  1.00  0.00     0.000 HD 
HETATM   26  O   UNL     1      -9.783  10.063  66.711  1.00  0.00    -0.174 OA 
HETATM   27  C   UNL     1      -8.985  10.681  67.429  1.00  0.00    -0.136 C  
BRANCH  27  28
HETATM   28  C   UNL     1      -9.279  12.111  67.864  1.00  0.00    -0.188 C  
HETATM   29  C   UNL     1      -8.133  13.149  67.904  1.00  0.00    -0.159 C  
HETATM   30  N   UNL     1      -8.731  14.495  67.586  1.00  0.00    -0.173 NA 
HETATM   31  C   UNL     1      -8.996  14.595  66.095  1.00  0.00     0.025 C  
HETATM   32  C   UNL     1      -8.045  15.564  68.265  1.00  0.00    -0.133 C  
HETATM   33  C   UNL     1     -10.007  15.722  65.534  1.00  0.00    -0.341 C  
HETATM   34  C   UNL     1     -11.111  15.165  64.628  1.00  0.00    -0.338 A  
HETATM   35  C   UNL     1     -12.363  15.563  64.215  1.00  0.00     0.004 A  
HETATM   36 BR   UNL     1     -13.189  17.187  64.605  1.00  0.00     9.726 Br 
HETATM   37  N   UNL     1     -12.974  14.527  63.542  1.00  0.00    -0.106 NA 
HETATM   38  C   UNL     1     -12.151  13.423  63.497  1.00  0.00    -0.432 A  
HETATM   39  H   UNL     1     -13.908  14.572  63.134  1.00  0.00     0.000 HD 
HETATM   40  C   UNL     1     -12.342  12.080  63.133  1.00  0.00    -0.394 A  
HETATM   41  C   UNL     1     -11.260  11.193  63.309  1.00  0.00     0.178 A  
HETATM   42  C   UNL     1     -10.078  11.609  63.905  1.00  0.00    -0.395 A  
HETATM   43  C   UNL     1     -10.031  12.901  64.420  1.00  0.00    -0.159 A  
HETATM   44  C   UNL     1     -10.987  13.854  64.097  1.00  0.00    -0.084 A  
HETATM   45  C   UNL     1      -9.503  13.199  65.738  1.00  0.00     0.028 C  
HETATM   46  C   UNL     1     -10.173  12.546  66.724  1.00  0.00    -0.243 C  
ENDBRANCH  27  28
ENDBRANCH  14  24
TORSDOF 3
ENDMDL
MODEL      135
REMARK 921   NORMALIZED FREE ENERGY PREDICTED BY IDOCK:   10.04 KCAL/MOL
REMARK 922        TOTAL FREE ENERGY PREDICTED BY IDOCK:   12.27 KCAL/MOL
REMARK 923 INTER-LIGAND FREE ENERGY PREDICTED BY IDOCK:    3.32 KCAL/MOL
REMARK 924 INTRA-LIGAND FREE ENERGY PREDICTED BY IDOCK:    8.95 KCAL/MOL
REMARK 927      BINDING AFFINITY PREDICTED BY RF-SCORE:    0.00 PKD
ROOT
HETATM    1  C   UNL     1     -10.301   7.107  69.061  1.00  0.00    -0.199 C  
HETATM    2  C   UNL     1     -11.728   6.828  68.598  1.00  0.00     0.533 C  
HETATM    3  C   UNL     1     -11.785   5.272  68.551  1.00  0.00     3.661 C  
HETATM    4  C   UNL     1     -10.347   4.786  68.721  1.00  0.00     0.099 C  
HETATM    5  N   UNL     1      -9.541   5.971  68.587  1.00  0.00    -0.123 N  
HETATM    6  C   UNL     1      -8.214   5.887  68.927  1.00  0.00    -0.103 C  
HETATM    7  O   UNL     1      -7.524   4.926  68.601  1.00  0.00    -0.068 OA 
HETATM    8  C   UNL     1      -7.655   7.143  69.622  1.00  0.00    -0.104 C  
HETATM    9  N   UNL     1      -8.674   8.084  70.333  1.00  0.00    -0.135 N  
HETATM   10  C   UNL     1      -6.257  11.659  71.136  1.00  0.00     1.042 C  
HETATM   11  C   UNL     1      -8.297   9.317  70.838  1.00  0.00    -0.145 C  
HETATM   12  C   UNL     1      -5.199   9.577  70.598  1.00  0.00    -0.033 C  
HETATM   13  O   UNL     1      -8.445   9.667  72.005  1.00  0.00     0.563 OA 
HETATM   14  C   UNL     1      -7.874  10.179  69.650  1.00  0.00    -0.175 C  
HETATM   15  C   UNL     1      -9.539   8.488  69.298  1.00  0.00    -0.170 C  
HETATM   16  O   UNL     1     -10.571   9.403  69.675  1.00  0.00    -0.210 OA 
HETATM   17  H   UNL     1     -10.118  10.226  69.816  1.00  0.00     0.000 HD 
HETATM   18  C   UNL     1      -6.270  10.531  70.038  1.00  0.00    -0.102 C  
HETATM   19  O   UNL     1      -8.524   9.233  68.609  1.00  0.00    -0.120 OA 
ENDROOT
BRANCH   8  20
HETATM   20  C   UNL     1      -6.478   6.765  70.452  1.00  0.00    -0.043 C  
HETATM   21  C   UNL     1      -7.672   6.449  72.631  1.00  0.00    -0.104 C  
HETATM   22  C   UNL     1      -6.650   5.876  71.653  1.00  0.00    -0.054 C  
HETATM   23  C   UNL     1      -5.258   5.832  72.291  1.00  0.00    -0.021 C  
ENDBRANCH   8  20
BRANCH  14  24
HETATM   24  N   UNL     1      -8.396  11.462  69.203  1.00  0.00    -0.377 N  
HETATM   25  H   UNL     1      -8.404  12.308  69.772  1.00  0.00     0.000 HD 
HETATM   26  O   UNL     1      -9.137  10.276  67.434  1.00  0.00    -0.138 OA 
HETATM   27  C   UNL     1      -8.880  11.391  67.908  1.00  0.00    -0.149 C  
BRANCH  27  28
HETATM   28  C   UNL     1      -9.112  12.655  67.089  1.00  0.00    -0.210 C  
HETATM   29  C   UNL     1     -10.483  13.367  67.156  1.00  0.00    -0.249 C  
HETATM   30  N   UNL     1     -10.236  14.842  66.963  1.00  0.00    -0.251 NA 
HETATM   31  C   UNL     1      -9.676  15.435  68.243  1.00  0.00    -0.209 C  
HETATM   32  C   UNL     1     -11.333  15.490  66.293  1.00  0.00    -0.004 C  
HETATM   33  C   UNL     1      -8.926  16.864  68.203  1.00  0.00    -0.227 C  
HETATM   34  C   UNL     1      -7.532  16.849  68.841  1.00  0.00    -0.238 A  
HETATM   35  C   UNL     1      -6.385  17.605  68.760  1.00  0.00    -0.200 A  
HETATM   36 BR   UNL     1      -6.166  19.175  67.780  1.00  0.00    -0.228 Br 
HETATM   37  N   UNL     1      -5.367  16.971  69.439  1.00  0.00    -0.140 NA 
HETATM   38  C   UNL     1      -5.810  15.783  69.979  1.00  0.00    -0.159 A  
HETATM   39  H   UNL     1      -4.417  17.331  69.529  1.00  0.00     0.000 HD 
HETATM   40  C   UNL     1      -5.167  14.681  70.568  1.00  0.00    -0.116 A  
HETATM   41  C   UNL     1      -5.963  13.575  70.931  1.00  0.00    -0.077 A  
HETATM   42  C   UNL     1      -7.318  13.536  70.635  1.00  0.00     2.367 A  
HETATM   43  C   UNL     1      -7.847  14.575  69.875  1.00  0.00     0.389 A  
HETATM   44  C   UNL     1      -7.153  15.760  69.672  1.00  0.00    -0.150 A  
HETATM   45  C   UNL     1      -8.725  14.349  68.744  1.00  0.00    -0.129 C  
HETATM   46  C   UNL     1      -8.142  13.588  67.779  1.00  0.00    -0.177 C  
ENDBRANCH  27  28
ENDBRANCH  14  24
TORSDOF 3
ENDMDL
MODEL      136
REMARK 921   NORMALIZED FREE ENERGY PREDICTED BY IDOCK:   11.04 KCAL/MOL
REMARK 922        TOTAL FREE ENERGY PREDICTED BY IDOCK:   13.45 KCAL/MOL
REMARK 923 INTER-LIGAND FREE ENERGY PREDICTED BY IDOCK:    6.22 KCAL/MOL
REMARK 924 INTRA-LIGAND FREE ENERGY PREDICTED BY IDOCK:    7.23 KCAL/MOL
REMARK 927      BINDING AFFINITY PREDICTED BY RF-SCORE:    0.00 PKD
ROOT
HETATM    1  C   UNL     1      -7.352   9.341  64.768  1.00  0.00    -0.103 C  
HETATM    2  C   UNL     1      -6.277   9.876  63.825  1.00  0.00    -0.125 C  
HETATM    3  C   UNL     1      -5.660   8.578  63.223  1.00  0.00    -0.072 C  
HETATM    4  C   UNL     1      -6.222   7.417  64.042  1.00  0.00    -0.048 C  
HETATM    5  N   UNL     1      -6.863   8.041  65.171  1.00  0.00    -0.058 N  
HETATM    6  C   UNL     1      -7.665   7.261  65.965  1.00  0.00    -0.095 C  
HETATM    7  O   UNL     1      -7.333   6.128  66.302  1.00  0.00    -0.081 OA 
HETATM    8  C   UNL     1      -8.925   7.974  66.491  1.00  0.00    -0.157 C  
HETATM    9  N   UNL     1      -9.437   9.210  65.693  1.00  0.00    -0.256 N  
HETATM   10  C   UNL     1     -12.377  10.959  68.443  1.00  0.00     0.610 C  
HETATM   11  C   UNL     1     -10.454  10.017  66.174  1.00  0.00    -0.086 C  
HETATM   12  C   UNL     1     -11.621   8.707  68.750  1.00  0.00     1.157 C  
HETATM   13  O   UNL     1     -11.497  10.257  65.571  1.00  0.00     1.050 OA 
HETATM   14  C   UNL     1      -9.939  10.679  67.449  1.00  0.00    -0.181 C  
HETATM   15  C   UNL     1      -8.356  10.112  65.738  1.00  0.00    -0.145 C  
HETATM   16  O   UNL     1      -8.573  11.372  65.097  1.00  0.00    -0.386 OA 
HETATM   17  H   UNL     1      -9.171  11.831  65.675  1.00  0.00     0.000 HD 
HETATM   18  C   UNL     1     -11.050  10.128  68.593  1.00  0.00    -0.254 C  
HETATM   19  O   UNL     1      -8.461  10.318  67.155  1.00  0.00    -0.125 OA 
ENDROOT
BRANCH   8  20
HETATM   20  C   UNL     1      -9.972   6.961  66.802  1.00  0.00    -0.248 C  
HETATM   21  C   UNL     1      -8.465   5.142  67.632  1.00  0.00    -0.105 C  
HETATM   22  C   UNL     1      -9.742   5.939  67.881  1.00  0.00    -0.128 C  
HETATM   23  C   UNL     1     -10.970   5.027  67.802  1.00  0.00     0.753 C  
ENDBRANCH   8  20
BRANCH  14  24
HETATM   24  N   UNL     1      -9.805  12.092  67.773  1.00  0.00    -0.194 N  
HETATM   25  H   UNL     1      -9.743  12.460  68.722  1.00  0.00     0.000 HD 
HETATM   26  O   UNL     1     -10.188  12.390  65.571  1.00  0.00    -0.265 OA 
HETATM   27  C   UNL     1      -9.772  12.875  66.632  1.00  0.00    -0.254 C  
BRANCH  27  28
HETATM   28  C   UNL     1      -9.256  14.308  66.681  1.00  0.00    -0.276 C  
HETATM   29  C   UNL     1      -9.729  15.327  65.618  1.00  0.00    -0.325 C  
HETATM   30  N   UNL     1      -9.754  16.684  66.274  1.00  0.00    -0.288 NA 
HETATM   31  C   UNL     1     -10.976  16.794  67.167  1.00  0.00    -0.001 C  
HETATM   32  C   UNL     1      -9.450  17.739  65.342  1.00  0.00     1.141 C  
HETATM   33  C   UNL     1     -11.037  17.940  68.303  1.00  0.00     0.245 C  
HETATM   34  C   UNL     1     -11.362  17.405  69.703  1.00  0.00     1.327 A  
HETATM   35  C   UNL     1     -11.182  17.823  71.002  1.00  0.00     2.600 A  
HETATM   36 BR   UNL     1     -10.472  19.459  71.545  1.00  0.00     3.915 Br 
HETATM   37  N   UNL     1     -11.513  16.801  71.864  1.00  0.00    -0.308 NA 
HETATM   38  C   UNL     1     -11.913  15.684  71.163  1.00  0.00    -0.409 A  
HETATM   39  H   UNL     1     -11.468  16.862  72.881  1.00  0.00     0.000 HD 
HETATM   40  C   UNL     1     -12.152  14.346  71.517  1.00  0.00    -0.373 A  
HETATM   41  C   UNL     1     -12.469  13.441  70.482  1.00  0.00    -0.350 A  
HETATM   42  C   UNL     1     -12.456  13.836  69.152  1.00  0.00     0.061 A  
HETATM   43  C   UNL     1     -12.018  15.125  68.862  1.00  0.00    -0.284 A  
HETATM   44  C   UNL     1     -11.890  16.094  69.847  1.00  0.00    -0.128 A  
HETATM   45  C   UNL     1     -11.069  15.408  67.803  1.00  0.00    -0.320 C  
HETATM   46  C   UNL     1      -9.886  14.762  67.979  1.00  0.00    -0.218 C  
ENDBRANCH  27  28
ENDBRANCH  14  24
TORSDOF 3
ENDMDL
MODEL      137
REMARK 921   NORMALIZED FREE ENERGY PREDICTED BY IDOCK:   11.28 KCAL/MOL
REMARK 922        TOTAL FREE ENERGY PREDICTED BY IDOCK:   13.72 KCAL/MOL
REMARK 923 INTER-LIGAND FREE ENERGY PREDICTED BY IDOCK:   11.78 KCAL/MOL
REMARK 924 INTRA-LIGAND FREE ENERGY PREDICTED BY IDOCK:    1.94 KCAL/MOL
REMARK 927      BINDING AFFINITY PREDICTED BY RF-SCORE:    0.00 PKD
ROOT
HETATM    1  C   UNL     1      -9.692  17.024  67.376  1.00  0.00    -0.252 C  
HETATM    2  C   UNL     1     -10.719  17.653  66.438  1.00  0.00    -0.093 C  
HETATM    3  C   UNL     1     -10.836  19.112  66.972  1.00  0.00    -0.479 C  
HETATM    4  C   UNL     1     -10.095  19.140  68.308  1.00  0.00    -0.416 C  
HETATM    5  N   UNL     1      -9.841  17.756  68.615  1.00  0.00    -0.344 N  
HETATM    6  C   UNL     1      -8.980  17.475  69.645  1.00  0.00     0.906 C  
HETATM    7  O   UNL     1      -9.018  18.093  70.705  1.00  0.00     4.110 OA 
HETATM    8  C   UNL     1      -8.074  16.253  69.402  1.00  0.00    -0.048 C  
HETATM    9  N   UNL     1      -7.825  15.827  67.924  1.00  0.00    -0.134 N  
HETATM   10  C   UNL     1      -5.969  11.876  68.379  1.00  0.00    -0.049 C  
HETATM   11  C   UNL     1      -7.169  14.650  67.606  1.00  0.00    -0.186 C  
HETATM   12  C   UNL     1      -6.081  13.383  70.238  1.00  0.00    -0.099 C  
HETATM   13  O   UNL     1      -6.161  14.581  66.909  1.00  0.00     0.301 OA 
HETATM   14  C   UNL     1      -8.042  13.500  68.103  1.00  0.00    -0.154 C  
HETATM   15  C   UNL     1      -9.114  15.539  67.433  1.00  0.00    -0.199 C  
HETATM   16  O   UNL     1      -9.174  15.082  66.080  1.00  0.00    -0.347 OA 
HETATM   17  H   UNL     1      -8.829  14.197  66.114  1.00  0.00     0.000 HD 
HETATM   18  C   UNL     1      -7.007  12.733  69.194  1.00  0.00    -0.015 C  
HETATM   19  O   UNL     1      -9.289  14.400  68.288  1.00  0.00    -0.193 OA 
ENDROOT
BRANCH   8  20
HETATM   20  C   UNL     1      -6.840  16.381  70.225  1.00  0.00     0.775 C  
HETATM   21  C   UNL     1      -7.669  15.215  72.282  1.00  0.00     5.673 C  
HETATM   22  C   UNL     1      -6.524  15.358  71.282  1.00  0.00     1.012 C  
HETATM   23  C   UNL     1      -5.271  15.906  71.972  1.00  0.00     0.272 C  
ENDBRANCH   8  20
BRANCH  14  24
HETATM   24  N   UNL     1      -8.625  12.390  67.364  1.00  0.00    -0.172 N  
HETATM   25  H   UNL     1      -8.457  12.209  66.374  1.00  0.00     0.000 HD 
HETATM   26  O   UNL     1      -9.842  12.091  69.238  1.00  0.00     0.212 OA 
HETATM   27  C   UNL     1      -9.436  11.612  68.171  1.00  0.00    -0.191 C  
BRANCH  27  28
HETATM   28  C   UNL     1      -9.839  10.204  67.748  1.00  0.00    -0.190 C  
HETATM   29  C   UNL     1      -9.120   9.527  66.559  1.00  0.00    -0.151 C  
HETATM   30  N   UNL     1      -9.096   8.044  66.829  1.00  0.00    -0.147 NA 
HETATM   31  C   UNL     1      -8.034   7.734  67.867  1.00  0.00    -0.125 C  
HETATM   32  C   UNL     1      -9.159   7.274  65.614  1.00  0.00     0.131 C  
HETATM   33  C   UNL     1      -8.071   6.325  68.655  1.00  0.00    -0.109 C  
HETATM   34  C   UNL     1      -8.024   6.469  70.181  1.00  0.00    -0.112 A  
HETATM   35  C   UNL     1      -8.382   5.708  71.270  1.00  0.00    -0.127 A  
HETATM   36 BR   UNL     1      -9.042   3.965  71.229  1.00  0.00    -0.192 Br 
HETATM   37  N   UNL     1      -8.279   6.467  72.415  1.00  0.00    -0.105 NA 
HETATM   38  C   UNL     1      -7.857   7.744  72.115  1.00  0.00    -0.106 A  
HETATM   39  H   UNL     1      -8.486   6.130  73.355  1.00  0.00     0.000 HD 
HETATM   40  C   UNL     1      -7.786   8.943  72.844  1.00  0.00     0.372 A  
HETATM   41  C   UNL     1      -7.375  10.105  72.157  1.00  0.00     3.053 A  
HETATM   42  C   UNL     1      -7.137  10.086  70.790  1.00  0.00     0.106 A  
HETATM   43  C   UNL     1      -7.419   8.911  70.099  1.00  0.00    -0.065 A  
HETATM   44  C   UNL     1      -7.632   7.707  70.756  1.00  0.00    -0.080 A  
HETATM   45  C   UNL     1      -8.155   8.897  68.849  1.00  0.00    -0.112 C  
HETATM   46  C   UNL     1      -9.398   9.434  68.974  1.00  0.00    -0.153 C  
ENDBRANCH  27  28
ENDBRANCH  14  24
TORSDOF 3
ENDMDL
MODEL      138
REMARK 921   NORMALIZED FREE ENERGY PREDICTED BY IDOCK:   12.54 KCAL/MOL
REMARK 922        TOTAL FREE ENERGY PREDICTED BY IDOCK:   15.20 KCAL/MOL
REMARK 923 INTER-LIGAND FREE ENERGY PREDICTED BY IDOCK:   14.29 KCAL/MOL
REMARK 924 INTRA-LIGAND FREE ENERGY PREDICTED BY IDOCK:    0.91 KCAL/MOL
REMARK 927      BINDING AFFINITY PREDICTED BY RF-SCORE:    0.00 PKD
ROOT
HETATM    1  C   UNL     1     -11.966  15.918  71.888  1.00  0.00    -0.504 C  
HETATM    2  C   UNL     1     -12.653  16.408  73.160  1.00  0.00    -0.396 C  
HETATM    3  C   UNL     1     -12.147  17.876  73.289  1.00  0.00     2.358 C  
HETATM    4  C   UNL     1     -11.025  18.034  72.264  1.00  0.00     2.947 C  
HETATM    5  N   UNL     1     -10.747  16.694  71.815  1.00  0.00     1.525 N  
HETATM    6  C   UNL     1      -9.941  16.540  70.715  1.00  0.00     1.950 C  
HETATM    7  O   UNL     1      -8.920  17.205  70.565  1.00  0.00     2.854 OA 
HETATM    8  C   UNL     1     -10.358  15.390  69.778  1.00  0.00    -0.286 C  
HETATM    9  N   UNL     1     -11.840  14.915  69.840  1.00  0.00    -0.292 N  
HETATM   10  C   UNL     1     -11.724  11.166  67.559  1.00  0.00    -0.102 C  
HETATM   11  C   UNL     1     -12.270  13.784  69.166  1.00  0.00    -0.250 C  
HETATM   12  C   UNL     1      -9.934  12.748  67.381  1.00  0.00    -0.212 C  
HETATM   13  O   UNL     1     -13.183  13.768  68.344  1.00  0.00     1.939 OA 
HETATM   14  C   UNL     1     -11.549  12.590  69.785  1.00  0.00    -0.221 C  
HETATM   15  C   UNL     1     -12.005  14.493  71.173  1.00  0.00    -0.339 C  
HETATM   16  O   UNL     1     -13.293  13.966  71.501  1.00  0.00    -0.344 OA 
HETATM   17  H   UNL     1     -13.316  13.117  71.075  1.00  0.00     0.000 HD 
HETATM   18  C   UNL     1     -10.712  11.970  68.458  1.00  0.00    -0.261 C  
HETATM   19  O   UNL     1     -11.101  13.387  71.036  1.00  0.00     1.403 OA 
ENDROOT
BRANCH   8  20
HETATM   20  C   UNL     1      -9.851  15.665  68.405  1.00  0.00    -0.206 C  
HETATM   21  C   UNL     1     -10.908  17.913  68.084  1.00  0.00    -0.178 C  
HETATM   22  C   UNL     1      -9.636  17.080  67.944  1.00  0.00    -0.249 C  
HETATM   23  C   UNL     1      -9.243  16.940  66.470  1.00  0.00    -0.295 C  
ENDBRANCH   8  20
BRANCH  14  24
HETATM   24  N   UNL     1     -12.099  11.398  70.415  1.00  0.00    -0.366 N  
HETATM   25  H   UNL     1     -13.096  11.188  70.473  1.00  0.00     0.000 HD 
HETATM   26  O   UNL     1      -9.979  11.075  71.109  1.00  0.00     2.917 OA 
HETATM   27  C   UNL     1     -11.102  10.587  70.926  1.00  0.00     0.158 C  
BRANCH  27  28
HETATM   28  C   UNL     1     -11.382   9.130  71.276  1.00  0.00    -0.406 C  
HETATM   29  C   UNL     1     -11.979   8.188  70.205  1.00  0.00     0.305 C  
HETATM   30  N   UNL     1     -11.449   6.802  70.476  1.00  0.00    -0.338 NA 
HETATM   31  C   UNL     1     -10.011   6.707  70.000  1.00  0.00    -0.172 C  
HETATM   32  C   UNL     1     -12.395   5.782  70.108  1.00  0.00     2.777 C  
HETATM   33  C   UNL     1      -9.068   5.511  70.537  1.00  0.00    -0.171 C  
HETATM   34  C   UNL     1      -7.737   5.991  71.127  1.00  0.00    -0.109 A  
HETATM   35  C   UNL     1      -6.794   5.501  72.002  1.00  0.00    -0.071 A  
HETATM   36 BR   UNL     1      -6.789   3.809  72.783  1.00  0.00    -0.040 Br 
HETATM   37  N   UNL     1      -5.889   6.495  72.305  1.00  0.00    -0.037 NA 
HETATM   38  C   UNL     1      -6.210   7.662  71.647  1.00  0.00    -0.035 A  
HETATM   39  H   UNL     1      -5.091   6.381  72.931  1.00  0.00     0.000 HD 
HETATM   40  C   UNL     1      -5.767   8.992  71.751  1.00  0.00    -0.063 A  
HETATM   41  C   UNL     1      -6.409   9.960  70.951  1.00  0.00    -0.056 A  
HETATM   42  C   UNL     1      -7.500   9.631  70.159  1.00  0.00    -0.157 A  
HETATM   43  C   UNL     1      -8.007   8.339  70.258  1.00  0.00    -0.102 A  
HETATM   44  C   UNL     1      -7.295   7.317  70.871  1.00  0.00    -0.074 A  
HETATM   45  C   UNL     1      -9.425   8.063  70.389  1.00  0.00    -0.166 C  
HETATM   46  C   UNL     1      -9.966   8.643  71.493  1.00  0.00    -0.344 C  
ENDBRANCH  27  28
ENDBRANCH  14  24
TORSDOF 3
ENDMDL
MODEL      139
REMARK 921   NORMALIZED FREE ENERGY PREDICTED BY IDOCK:   14.15 KCAL/MOL
REMARK 922        TOTAL FREE ENERGY PREDICTED BY IDOCK:   17.10 KCAL/MOL
REMARK 923 INTER-LIGAND FREE ENERGY PREDICTED BY IDOCK:    8.38 KCAL/MOL
REMARK 924 INTRA-LIGAND FREE ENERGY PREDICTED BY IDOCK:    8.72 KCAL/MOL
REMARK 927      BINDING AFFINITY PREDICTED BY RF-SCORE:    0.00 PKD
ROOT
HETATM    1  C   UNL     1     -11.597  13.153  64.581  1.00  0.00    -0.345 C  
HETATM    2  C   UNL     1     -11.776  13.038  63.069  1.00  0.00     0.151 C  
HETATM    3  C   UNL     1     -12.247  14.466  62.662  1.00  0.00     2.709 C  
HETATM    4  C   UNL     1     -12.560  15.202  63.964  1.00  0.00     0.330 C  
HETATM    5  N   UNL     1     -12.536  14.179  64.978  1.00  0.00    -0.436 N  
HETATM    6  C   UNL     1     -12.550  14.576  66.291  1.00  0.00     0.023 C  
HETATM    7  O   UNL     1     -13.286  15.477  66.685  1.00  0.00     3.014 OA 
HETATM    8  C   UNL     1     -11.677  13.717  67.225  1.00  0.00    -0.380 C  
HETATM    9  N   UNL     1     -10.513  12.908  66.577  1.00  0.00    -0.262 N  
HETATM   10  C   UNL     1      -9.313  10.212  69.826  1.00  0.00    -0.183 C  
HETATM   11  C   UNL     1      -9.781  11.980  67.298  1.00  0.00    -0.185 C  
HETATM   12  C   UNL     1     -10.647  12.148  70.288  1.00  0.00     1.888 C  
HETATM   13  O   UNL     1      -8.561  12.008  67.433  1.00  0.00    -0.156 OA 
HETATM   14  C   UNL     1     -10.740  10.859  67.691  1.00  0.00    -0.242 C  
HETATM   15  C   UNL     1     -11.161  12.060  65.658  1.00  0.00    -0.327 C  
HETATM   16  O   UNL     1     -10.312  11.167  64.934  1.00  0.00    -0.279 OA 
HETATM   17  H   UNL     1     -10.052  10.516  65.576  1.00  0.00     0.000 HD 
HETATM   18  C   UNL     1     -10.651  10.908  69.375  1.00  0.00    -0.233 C  
HETATM   19  O   UNL     1     -11.826  11.303  66.679  1.00  0.00    -0.311 OA 
ENDROOT
BRANCH   8  20
HETATM   20  C   UNL     1     -11.284  14.523  68.414  1.00  0.00    -0.290 C  
HETATM   21  C   UNL     1     -13.579  15.193  69.158  1.00  0.00     2.991 C  
HETATM   22  C   UNL     1     -12.218  14.652  69.585  1.00  0.00    -0.325 C  
HETATM   23  C   UNL     1     -11.514  15.641  70.520  1.00  0.00    -0.380 C  
ENDBRANCH   8  20
BRANCH  14  24
HETATM   24  N   UNL     1     -10.672   9.435  67.397  1.00  0.00    -0.353 N  
HETATM   25  H   UNL     1     -10.597   9.046  66.457  1.00  0.00     0.000 HD 
HETATM   26  O   UNL     1     -11.149   9.202  69.588  1.00  0.00    -0.196 OA 
HETATM   27  C   UNL     1     -10.723   8.674  68.552  1.00  0.00    -0.043 C  
BRANCH  27  28
HETATM   28  C   UNL     1     -10.285   7.214  68.547  1.00  0.00    -0.189 C  
HETATM   29  C   UNL     1      -8.903   6.833  67.968  1.00  0.00    -0.119 C  
HETATM   30  N   UNL     1      -8.407   5.633  68.735  1.00  0.00    -0.103 NA 
HETATM   31  C   UNL     1      -7.903   6.074  70.097  1.00  0.00    -0.101 C  
HETATM   32  C   UNL     1      -7.599   4.767  67.918  1.00  0.00    -0.082 C  
HETATM   33  C   UNL     1      -7.720   4.984  71.274  1.00  0.00    -0.092 C  
HETATM   34  C   UNL     1      -8.428   5.360  72.581  1.00  0.00    -0.114 A  
HETATM   35  C   UNL     1      -8.897   4.698  73.693  1.00  0.00    -0.105 A  
HETATM   36 BR   UNL     1      -8.699   2.881  74.059  1.00  0.00    -0.076 Br 
HETATM   37  N   UNL     1      -9.637   5.565  74.466  1.00  0.00    -0.154 NA 
HETATM   38  C   UNL     1      -9.682   6.815  73.887  1.00  0.00    -0.258 A  
HETATM   39  H   UNL     1     -10.090   5.316  75.346  1.00  0.00     0.000 HD 
HETATM   40  C   UNL     1     -10.438   7.974  74.130  1.00  0.00     2.166 A  
HETATM   41  C   UNL     1     -10.270   9.063  73.248  1.00  0.00     2.257 A  
HETATM   42  C   UNL     1      -9.457   8.962  72.129  1.00  0.00    -0.182 A  
HETATM   43  C   UNL     1      -8.896   7.721  71.843  1.00  0.00    -0.155 A  
HETATM   44  C   UNL     1      -8.875   6.695  72.777  1.00  0.00    -0.129 A  
HETATM   45  C   UNL     1      -8.913   7.142  70.514  1.00  0.00    -0.155 C  
HETATM   46  C   UNL     1     -10.175   6.976  70.037  1.00  0.00    -0.206 C  
ENDBRANCH  27  28
ENDBRANCH  14  24
TORSDOF 3
ENDMDL
MODEL      140
REMARK 921   NORMALIZED FREE ENERGY PREDICTED BY IDOCK:   15.31 KCAL/MOL
REMARK 922        TOTAL FREE ENERGY PREDICTED BY IDOCK:   18.46 KCAL/MOL
REMARK 923 INTER-LIGAND FREE ENERGY PREDICTED BY IDOCK:    5.63 KCAL/MOL
REMARK 924 INTRA-LIGAND FREE ENERGY PREDICTED BY IDOCK:   12.83 KCAL/MOL
REMARK 927      BINDING AFFINITY PREDICTED BY RF-SCORE:    0.00 PKD
ROOT
HETATM    1  C   UNL     1      -9.764  18.152  67.631  1.00  0.00    -0.292 C  
HETATM    2  C   UNL     1      -9.232  18.951  66.443  1.00  0.00    -0.324 C  
HETATM    3  C   UNL     1      -8.815  20.306  67.089  1.00  0.00    -0.446 C  
HETATM    4  C   UNL     1      -9.372  20.291  68.512  1.00  0.00     0.120 C  
HETATM    5  N   UNL     1     -10.258  19.156  68.548  1.00  0.00    -0.397 N  
HETATM    6  C   UNL     1     -10.728  18.747  69.770  1.00  0.00     1.596 C  
HETATM    7  O   UNL     1     -11.115  19.550  70.614  1.00  0.00     2.564 OA 
HETATM    8  C   UNL     1     -10.848  17.219  69.926  1.00  0.00     0.492 C  
HETATM    9  N   UNL     1      -9.971  16.331  68.994  1.00  0.00    -0.243 N  
HETATM   10  C   UNL     1     -11.695  12.339  69.595  1.00  0.00    -0.386 C  
HETATM   11  C   UNL     1     -10.128  14.956  68.938  1.00  0.00    -0.236 C  
HETATM   12  C   UNL     1     -12.152  14.103  71.151  1.00  0.00    -0.392 C  
HETATM   13  O   UNL     1      -9.233  14.143  69.150  1.00  0.00     0.020 OA 
HETATM   14  C   UNL     1     -11.523  14.686  68.379  1.00  0.00    -0.311 C  
HETATM   15  C   UNL     1     -10.388  16.686  67.697  1.00  0.00    -0.305 C  
HETATM   16  O   UNL     1      -9.755  15.981  66.627  1.00  0.00    -0.225 OA 
HETATM   17  H   UNL     1     -10.126  15.108  66.666  1.00  0.00     0.000 HD 
HETATM   18  C   UNL     1     -12.233  13.818  69.640  1.00  0.00    -0.359 C  
HETATM   19  O   UNL     1     -11.703  16.136  67.866  1.00  0.00    -0.099 OA 
ENDROOT
BRANCH   8  20
HETATM   20  C   UNL     1     -10.774  16.863  71.370  1.00  0.00     1.589 C  
HETATM   21  C   UNL     1     -13.167  16.198  71.691  1.00  0.00     0.410 C  
HETATM   22  C   UNL     1     -11.707  15.834  71.947  1.00  0.00    -0.572 C  
HETATM   23  C   UNL     1     -11.403  15.850  73.448  1.00  0.00     0.640 C  
ENDBRANCH   8  20
BRANCH  14  24
HETATM   24  N   UNL     1     -11.920  13.936  67.197  1.00  0.00    -0.414 N  
HETATM   25  H   UNL     1     -12.468  14.324  66.429  1.00  0.00     0.000 HD 
HETATM   26  O   UNL     1     -11.110  12.168  68.336  1.00  0.00    -0.213 OA 
HETATM   27  C   UNL     1     -11.460  12.632  67.243  1.00  0.00    -0.342 C  
BRANCH  27  28
HETATM   28  C   UNL     1     -11.405  11.776  65.983  1.00  0.00    -0.335 C  
HETATM   29  C   UNL     1     -10.107  11.737  65.143  1.00  0.00    -0.259 C  
HETATM   30  N   UNL     1     -10.016  10.369  64.516  1.00  0.00    -0.343 NA 
HETATM   31  C   UNL     1      -9.571   9.361  65.560  1.00  0.00    -0.258 C  
HETATM   32  C   UNL     1      -9.365  10.405  63.233  1.00  0.00    -0.304 C  
HETATM   33  C   UNL     1      -9.797   7.784  65.299  1.00  0.00     1.598 C  
HETATM   34  C   UNL     1     -10.529   7.067  66.440  1.00  0.00     0.121 A  
HETATM   35  C   UNL     1     -11.268   5.916  66.589  1.00  0.00     0.166 A  
HETATM   36 BR   UNL     1     -11.574   4.625  65.280  1.00  0.00     1.760 Br 
HETATM   37  N   UNL     1     -11.848   5.900  67.839  1.00  0.00     0.916 NA 
HETATM   38  C   UNL     1     -11.514   7.036  68.543  1.00  0.00     0.388 A  
HETATM   39  H   UNL     1     -12.443   5.151  68.193  1.00  0.00     0.000 HD 
HETATM   40  C   UNL     1     -11.977   7.612  69.738  1.00  0.00     0.657 A  
HETATM   41  C   UNL     1     -11.445   8.865  70.111  1.00  0.00    -0.047 A  
HETATM   42  C   UNL     1     -10.565   9.547  69.283  1.00  0.00    -0.236 A  
HETATM   43  C   UNL     1     -10.305   9.009  68.027  1.00  0.00    -0.275 A  
HETATM   44  C   UNL     1     -10.645   7.702  67.706  1.00  0.00    -0.265 A  
HETATM   45  C   UNL     1     -10.320   9.805  66.816  1.00  0.00    -0.289 C  
HETATM   46  C   UNL     1     -11.523  10.402  66.602  1.00  0.00     0.758 C  
ENDBRANCH  27  28
ENDBRANCH  14  24
TORSDOF 3
ENDMDL
MODEL      141
REMARK 921   NORMALIZED FREE ENERGY PREDICTED BY IDOCK:   16.22 KCAL/MOL
REMARK 922        TOTAL FREE ENERGY PREDICTED BY IDOCK:   19.53 KCAL/MOL
REMARK 923 INTER-LIGAND FREE ENERGY PREDICTED BY IDOCK:   16.35 KCAL/MOL
REMARK 924 INTRA-LIGAND FREE ENERGY PREDICTED BY IDOCK:    3.17 KCAL/MOL
REMARK 927      BINDING AFFINITY PREDICTED BY RF-SCORE:    0.00 PKD
ROOT
HETATM    1  C   UNL     1     -10.302   7.107  69.062  1.00  0.00    -0.199 C  
HETATM    2  C   UNL     1     -11.730   6.833  68.597  1.00  0.00     0.533 C  
HETATM    3  C   UNL     1     -11.788   5.277  68.536  1.00  0.00     4.490 C  
HETATM    4  C   UNL     1     -10.349   4.789  68.702  1.00  0.00     0.103 C  
HETATM    5  N   UNL     1      -9.543   5.975  68.578  1.00  0.00    -0.119 N  
HETATM    6  C   UNL     1      -8.216   5.887  68.918  1.00  0.00    -0.103 C  
HETATM    7  O   UNL     1      -7.526   4.928  68.583  1.00  0.00    -0.068 OA 
HETATM    8  C   UNL     1      -7.657   7.137  69.624  1.00  0.00    -0.104 C  
HETATM    9  N   UNL     1      -8.675   8.072  70.343  1.00  0.00    -0.135 N  
HETATM   10  C   UNL     1      -6.257  11.638  71.178  1.00  0.00     1.042 C  
HETATM   11  C   UNL     1      -8.297   9.300  70.859  1.00  0.00    -0.145 C  
HETATM   12  C   UNL     1      -5.200   9.561  70.622  1.00  0.00    -0.033 C  
HETATM   13  O   UNL     1      -8.446   9.640  72.029  1.00  0.00     0.563 OA 
HETATM   14  C   UNL     1      -7.875  10.172  69.679  1.00  0.00    -0.175 C  
HETATM   15  C   UNL     1      -9.540   8.486  69.311  1.00  0.00    -0.170 C  
HETATM   16  O   UNL     1     -10.572   9.397  69.696  1.00  0.00    -0.210 OA 
HETATM   17  H   UNL     1     -10.118  10.218  69.845  1.00  0.00     0.000 HD 
HETATM   18  C   UNL     1      -6.270  10.520  70.070  1.00  0.00    -0.102 C  
HETATM   19  O   UNL     1      -8.524   9.236  68.630  1.00  0.00    -0.120 OA 
ENDROOT
BRANCH   8  20
HETATM   20  C   UNL     1      -6.480   6.751  70.451  1.00  0.00    -0.043 C  
HETATM   21  C   UNL     1      -7.674   6.416  72.627  1.00  0.00    -0.104 C  
HETATM   22  C   UNL     1      -6.653   5.851  71.644  1.00  0.00    -0.054 C  
HETATM   23  C   UNL     1      -5.261   5.801  72.282  1.00  0.00    -0.021 C  
ENDBRANCH   8  20
BRANCH  14  24
HETATM   24  N   UNL     1      -8.395  11.459  69.242  1.00  0.00    -0.369 N  
HETATM   25  H   UNL     1      -8.118  11.928  68.379  1.00  0.00     0.000 HD 
HETATM   26  O   UNL     1      -9.329  11.511  71.294  1.00  0.00     6.970 OA 
HETATM   27  C   UNL     1      -9.313  11.969  70.143  1.00  0.00     3.612 C  
BRANCH  27  28
HETATM   28  C   UNL     1     -10.271  13.083  69.739  1.00  0.00     1.305 C  
HETATM   29  C   UNL     1      -9.848  14.559  69.922  1.00  0.00     0.522 C  
HETATM   30  N   UNL     1     -10.506  15.358  68.826  1.00  0.00    -0.225 NA 
HETATM   31  C   UNL     1      -9.768  15.132  67.519  1.00  0.00    -0.205 C  
HETATM   32  C   UNL     1     -10.821  16.697  69.249  1.00  0.00    -0.310 C  
HETATM   33  C   UNL     1     -10.485  15.504  66.121  1.00  0.00    -0.323 C  
HETATM   34  C   UNL     1     -10.485  14.357  65.103  1.00  0.00    -0.437 A  
HETATM   35  C   UNL     1     -11.219  14.001  63.994  1.00  0.00     0.064 A  
HETATM   36 BR   UNL     1     -12.581  15.001  63.207  1.00  0.00     2.289 Br 
HETATM   37  N   UNL     1     -10.868  12.729  63.599  1.00  0.00    -0.514 NA 
HETATM   38  C   UNL     1      -9.902  12.210  64.434  1.00  0.00    -0.128 A  
HETATM   39  H   UNL     1     -11.269  12.239  62.799  1.00  0.00     0.000 HD 
HETATM   40  C   UNL     1      -9.355  10.928  64.611  1.00  0.00    -0.256 A  
HETATM   41  C   UNL     1      -8.422  10.753  65.655  1.00  0.00    -0.163 A  
HETATM   42  C   UNL     1      -8.124  11.785  66.534  1.00  0.00    -0.035 A  
HETATM   43  C   UNL     1      -8.851  12.966  66.419  1.00  0.00     0.061 A  
HETATM   44  C   UNL     1      -9.623  13.245  65.300  1.00  0.00     0.138 A  
HETATM   45  C   UNL     1      -9.427  13.644  67.564  1.00  0.00    -0.222 C  
HETATM   46  C   UNL     1     -10.306  12.859  68.243  1.00  0.00    -0.248 C  
ENDBRANCH  27  28
ENDBRANCH  14  24
TORSDOF 3
ENDMDL
MODEL      142
REMARK 921   NORMALIZED FREE ENERGY PREDICTED BY IDOCK:   16.27 KCAL/MOL
REMARK 922        TOTAL FREE ENERGY PREDICTED BY IDOCK:   19.59 KCAL/MOL
REMARK 923 INTER-LIGAND FREE ENERGY PREDICTED BY IDOCK:   18.09 KCAL/MOL
REMARK 924 INTRA-LIGAND FREE ENERGY PREDICTED BY IDOCK:    1.50 KCAL/MOL
REMARK 927      BINDING AFFINITY PREDICTED BY RF-SCORE:    0.00 PKD
ROOT
HETATM    1  C   UNL     1      -9.742  15.704  70.959  1.00  0.00     1.784 C  
HETATM    2  C   UNL     1     -10.832  15.680  72.028  1.00  0.00     0.455 C  
HETATM    3  C   UNL     1     -11.305  17.164  72.080  1.00  0.00     1.052 C  
HETATM    4  C   UNL     1     -10.296  17.964  71.257  1.00  0.00     3.367 C  
HETATM    5  N   UNL     1      -9.212  17.048  71.014  1.00  0.00     4.953 N  
HETATM    6  C   UNL     1      -8.258  17.411  70.096  1.00  0.00     2.512 C  
HETATM    7  O   UNL     1      -7.803  18.550  70.055  1.00  0.00     0.921 OA 
HETATM    8  C   UNL     1      -7.731  16.248  69.235  1.00  0.00    -0.186 C  
HETATM    9  N   UNL     1      -8.641  14.992  69.088  1.00  0.00    -0.201 N  
HETATM   10  C   UNL     1      -5.918  12.055  67.293  1.00  0.00    -0.146 C  
HETATM   11  C   UNL     1      -8.191  13.833  68.478  1.00  0.00    -0.124 C  
HETATM   12  C   UNL     1      -5.377  14.389  67.256  1.00  0.00     0.626 C  
HETATM   13  O   UNL     1      -8.733  13.296  67.517  1.00  0.00    -0.178 OA 
HETATM   14  C   UNL     1      -7.060  13.281  69.343  1.00  0.00     0.152 C  
HETATM   15  C   UNL     1      -8.804  14.536  70.410  1.00  0.00     1.853 C  
HETATM   16  O   UNL     1      -9.586  13.350  70.564  1.00  0.00     3.158 OA 
HETATM   17  H   UNL     1      -9.028  12.654  70.238  1.00  0.00     0.000 HD 
HETATM   18  C   UNL     1      -5.767  13.288  68.260  1.00  0.00    -0.095 C  
HETATM   19  O   UNL     1      -7.424  14.173  70.557  1.00  0.00     0.779 OA 
ENDROOT
BRANCH   8  20
HETATM   20  C   UNL     1      -7.205  16.786  67.949  1.00  0.00    -0.159 C  
HETATM   21  C   UNL     1      -9.313  17.859  67.129  1.00  0.00    -0.265 C  
HETATM   22  C   UNL     1      -7.810  18.020  67.338  1.00  0.00    -0.223 C  
HETATM   23  C   UNL     1      -7.091  18.165  65.994  1.00  0.00    -0.318 C  
ENDBRANCH   8  20
BRANCH  14  24
HETATM   24  N   UNL     1      -6.939  11.986  69.995  1.00  0.00    -0.190 N  
HETATM   25  H   UNL     1      -7.641  11.247  69.940  1.00  0.00     0.000 HD 
HETATM   26  O   UNL     1      -5.141  12.918  70.985  1.00  0.00    -0.122 OA 
HETATM   27  C   UNL     1      -5.752  11.880  70.700  1.00  0.00    -0.125 C  
BRANCH  27  28
HETATM   28  C   UNL     1      -5.218  10.520  71.133  1.00  0.00    -0.091 C  
HETATM   29  C   UNL     1      -5.651   9.928  72.494  1.00  0.00     0.260 C  
HETATM   30  N   UNL     1      -5.674   8.427  72.348  1.00  0.00    -0.049 NA 
HETATM   31  C   UNL     1      -6.916   8.011  71.581  1.00  0.00    -0.066 C  
HETATM   32  C   UNL     1      -5.333   7.760  73.577  1.00  0.00    -0.045 C  
HETATM   33  C   UNL     1      -6.989   6.544  70.911  1.00  0.00    -0.068 C  
HETATM   34  C   UNL     1      -7.355   6.562  69.422  1.00  0.00    -0.092 A  
HETATM   35  C   UNL     1      -7.202   5.722  68.342  1.00  0.00    -0.079 A  
HETATM   36 BR   UNL     1      -6.483   4.003  68.376  1.00  0.00    -0.038 Br 
HETATM   37  N   UNL     1      -7.568   6.384  67.190  1.00  0.00    -0.094 NA 
HETATM   38  C   UNL     1      -7.965   7.672  67.475  1.00  0.00    -0.120 A  
HETATM   39  H   UNL     1      -7.547   5.976  66.255  1.00  0.00     0.000 HD 
HETATM   40  C   UNL     1      -8.231   8.805  66.688  1.00  0.00    -0.107 A  
HETATM   41  C   UNL     1      -8.535  10.010  67.356  1.00  0.00    -0.121 A  
HETATM   42  C   UNL     1      -8.484  10.098  68.740  1.00  0.00    -0.131 A  
HETATM   43  C   UNL     1      -8.021   8.990  69.444  1.00  0.00    -0.100 A  
HETATM   44  C   UNL     1      -7.904   7.741  68.850  1.00  0.00    -0.122 A  
HETATM   45  C   UNL     1      -7.043   9.093  70.510  1.00  0.00    -0.088 C  
HETATM   46  C   UNL     1      -5.874   9.644  70.088  1.00  0.00    -0.044 C  
ENDBRANCH  27  28
ENDBRANCH  14  24
TORSDOF 3
ENDMDL
MODEL      143
REMARK 921   NORMALIZED FREE ENERGY PREDICTED BY IDOCK:   16.39 KCAL/MOL
REMARK 922        TOTAL FREE ENERGY PREDICTED BY IDOCK:   19.73 KCAL/MOL
REMARK 923 INTER-LIGAND FREE ENERGY PREDICTED BY IDOCK:   16.05 KCAL/MOL
REMARK 924 INTRA-LIGAND FREE ENERGY PREDICTED BY IDOCK:    3.68 KCAL/MOL
REMARK 927      BINDING AFFINITY PREDICTED BY RF-SCORE:    0.00 PKD
ROOT
HETATM    1  C   UNL     1      -8.563  18.478  69.310  1.00  0.00     0.236 C  
HETATM    2  C   UNL     1      -7.689  18.477  70.562  1.00  0.00     2.860 C  
HETATM    3  C   UNL     1      -7.088  19.915  70.573  1.00  0.00     0.389 C  
HETATM    4  C   UNL     1      -7.433  20.533  69.218  1.00  0.00     0.634 C  
HETATM    5  N   UNL     1      -7.929  19.434  68.429  1.00  0.00    -0.330 N  
HETATM    6  C   UNL     1      -8.540  19.726  67.236  1.00  0.00    -0.321 C  
HETATM    7  O   UNL     1      -8.082  20.564  66.465  1.00  0.00    -0.186 OA 
HETATM    8  C   UNL     1      -9.746  18.828  66.903  1.00  0.00    -0.316 C  
HETATM    9  N   UNL     1     -10.460  18.116  68.091  1.00  0.00    -0.372 N  
HETATM   10  C   UNL     1     -13.041  15.217  66.042  1.00  0.00     1.606 C  
HETATM   11  C   UNL     1     -11.442  17.161  67.884  1.00  0.00     0.438 C  
HETATM   12  C   UNL     1     -12.095  17.059  64.838  1.00  0.00     2.745 C  
HETATM   13  O   UNL     1     -12.581  17.223  68.339  1.00  0.00     2.139 OA 
HETATM   14  C   UNL     1     -10.777  15.978  67.185  1.00  0.00    -0.283 C  
HETATM   15  C   UNL     1      -9.451  17.320  68.666  1.00  0.00    -0.278 C  
HETATM   16  O   UNL     1      -9.851  16.518  69.779  1.00  0.00    -0.081 OA 
HETATM   17  H   UNL     1     -10.380  15.829  69.395  1.00  0.00     0.000 HD 
HETATM   18  C   UNL     1     -11.653  15.896  65.745  1.00  0.00     0.467 C  
HETATM   19  O   UNL     1      -9.344  16.460  67.522  1.00  0.00    -0.212 OA 
ENDROOT
BRANCH   8  20
HETATM   20  C   UNL     1     -10.659  19.551  65.975  1.00  0.00    -0.589 C  
HETATM   21  C   UNL     1      -8.957  21.036  64.895  1.00  0.00     2.204 C  
HETATM   22  C   UNL     1     -10.140  20.098  64.674  1.00  0.00     2.305 C  
HETATM   23  C   UNL     1     -11.331  20.862  64.087  1.00  0.00     3.272 C  
ENDBRANCH   8  20
BRANCH  14  24
HETATM   24  N   UNL     1     -10.690  14.585  67.599  1.00  0.00    -0.252 N  
HETATM   25  H   UNL     1     -10.993  14.236  68.509  1.00  0.00     0.000 HD 
HETATM   26  O   UNL     1      -9.509  14.340  65.695  1.00  0.00    -0.165 OA 
HETATM   27  C   UNL     1     -10.146  13.792  66.605  1.00  0.00    -0.277 C  
BRANCH  27  28
HETATM   28  C   UNL     1     -10.306  12.277  66.636  1.00  0.00    -0.237 C  
HETATM   29  C   UNL     1      -9.838  11.433  65.428  1.00  0.00    -0.236 C  
HETATM   30  N   UNL     1      -9.378  10.099  65.960  1.00  0.00    -0.161 NA 
HETATM   31  C   UNL     1      -8.011  10.251  66.600  1.00  0.00    -0.116 C  
HETATM   32  C   UNL     1      -9.616   9.033  65.021  1.00  0.00     0.290 C  
HETATM   33  C   UNL     1      -7.470   9.115  67.613  1.00  0.00    -0.084 C  
HETATM   34  C   UNL     1      -7.003   9.666  68.965  1.00  0.00    -0.058 A  
HETATM   35  C   UNL     1      -6.822   9.174  70.238  1.00  0.00    -0.055 A  
HETATM   36 BR   UNL     1      -7.024   7.401  70.775  1.00  0.00    -0.056 Br 
HETATM   37  N   UNL     1      -6.565  10.217  71.101  1.00  0.00    -0.320 NA 
HETATM   38  C   UNL     1      -6.573  11.419  70.427  1.00  0.00     0.346 A  
HETATM   39  H   UNL     1      -6.393  10.113  72.101  1.00  0.00     0.000 HD 
HETATM   40  C   UNL     1      -6.576  12.764  70.834  1.00  0.00     1.643 A  
HETATM   41  C   UNL     1      -6.682  13.751  69.832  1.00  0.00     0.078 A  
HETATM   42  C   UNL     1      -6.869  13.408  68.501  1.00  0.00    -0.099 A  
HETATM   43  C   UNL     1      -7.056  12.062  68.197  1.00  0.00    -0.086 A  
HETATM   44  C   UNL     1      -6.765  11.059  69.111  1.00  0.00    -0.084 A  
HETATM   45  C   UNL     1      -8.107  11.598  67.313  1.00  0.00    -0.160 C  
HETATM   46  C   UNL     1      -9.346  11.942  67.756  1.00  0.00    -0.184 C  
ENDBRANCH  27  28
ENDBRANCH  14  24
TORSDOF 3
ENDMDL
MODEL      144
REMARK 921   NORMALIZED FREE ENERGY PREDICTED BY IDOCK:   17.53 KCAL/MOL
REMARK 922        TOTAL FREE ENERGY PREDICTED BY IDOCK:   21.07 KCAL/MOL
REMARK 923 INTER-LIGAND FREE ENERGY PREDICTED BY IDOCK:   20.10 KCAL/MOL
REMARK 924 INTRA-LIGAND FREE ENERGY PREDICTED BY IDOCK:    0.97 KCAL/MOL
REMARK 927      BINDING AFFINITY PREDICTED BY RF-SCORE:    0.00 PKD
ROOT
HETATM    1  C   UNL     1      -9.250  16.391  67.545  1.00  0.00    -0.198 C  
HETATM    2  C   UNL     1      -9.892  17.009  66.306  1.00  0.00    -0.310 C  
HETATM    3  C   UNL     1     -10.539  18.314  66.859  1.00  0.00    -0.356 C  
HETATM    4  C   UNL     1     -10.459  18.220  68.382  1.00  0.00    -0.269 C  
HETATM    5  N   UNL     1     -10.064  16.860  68.645  1.00  0.00    -0.273 N  
HETATM    6  C   UNL     1      -9.681  16.539  69.922  1.00  0.00     0.417 C  
HETATM    7  O   UNL     1     -10.297  16.946  70.903  1.00  0.00     1.134 OA 
HETATM    8  C   UNL     1      -8.515  15.535  70.003  1.00  0.00     0.412 C  
HETATM    9  N   UNL     1      -7.578  15.421  68.763  1.00  0.00    -0.133 N  
HETATM   10  C   UNL     1      -5.278  11.789  69.647  1.00  0.00    -0.067 C  
HETATM   11  C   UNL     1      -6.610  14.435  68.670  1.00  0.00    -0.088 C  
HETATM   12  C   UNL     1      -6.491  12.907  71.384  1.00  0.00     2.206 C  
HETATM   13  O   UNL     1      -5.414  14.648  68.498  1.00  0.00    -0.090 OA 
HETATM   14  C   UNL     1      -7.338  13.095  68.616  1.00  0.00    -0.102 C  
HETATM   15  C   UNL     1      -8.441  15.028  67.722  1.00  0.00    -0.156 C  
HETATM   16  O   UNL     1      -7.822  14.814  66.451  1.00  0.00    -0.114 OA 
HETATM   17  H   UNL     1      -7.341  14.002  66.557  1.00  0.00     0.000 HD 
HETATM   18  C   UNL     1      -6.722  12.317  69.981  1.00  0.00     0.327 C  
HETATM   19  O   UNL     1      -8.710  13.742  68.301  1.00  0.00    -0.172 OA 
ENDROOT
BRANCH   8  20
HETATM   20  C   UNL     1      -7.806  15.705  71.301  1.00  0.00     3.787 C  
HETATM   21  C   UNL     1      -5.954  17.187  70.498  1.00  0.00     0.240 C  
HETATM   22  C   UNL     1      -7.011  16.952  71.574  1.00  0.00     5.190 C  
HETATM   23  C   UNL     1      -6.350  16.687  72.930  1.00  0.00     4.756 C  
ENDBRANCH   8  20
BRANCH  14  24
HETATM   24  N   UNL     1      -7.297  12.056  67.597  1.00  0.00    -0.111 N  
HETATM   25  H   UNL     1      -6.830  12.155  66.695  1.00  0.00     0.000 HD 
HETATM   26  O   UNL     1      -8.775  11.010  68.940  1.00  0.00    -0.164 OA 
HETATM   27  C   UNL     1      -7.971  10.918  68.003  1.00  0.00    -0.109 C  
BRANCH  27  28
HETATM   28  C   UNL     1      -7.746   9.584  67.301  1.00  0.00    -0.091 C  
HETATM   29  C   UNL     1      -6.393   8.852  67.465  1.00  0.00    -0.056 C  
HETATM   30  N   UNL     1      -6.668   7.372  67.392  1.00  0.00    -0.067 NA 
HETATM   31  C   UNL     1      -7.273   6.902  68.702  1.00  0.00    -0.088 C  
HETATM   32  C   UNL     1      -5.569   6.647  66.809  1.00  0.00    -0.014 C  
HETATM   33  C   UNL     1      -8.052   5.490  68.764  1.00  0.00    -0.099 C  
HETATM   34  C   UNL     1      -9.462   5.587  69.361  1.00  0.00    -0.176 A  
HETATM   35  C   UNL     1     -10.623   4.850  69.313  1.00  0.00     0.270 A  
HETATM   36 BR   UNL     1     -10.851   3.206  68.465  1.00  0.00     5.678 Br 
HETATM   37  N   UNL     1     -11.643   5.560  69.908  1.00  0.00     0.860 NA 
HETATM   38  C   UNL     1     -11.188   6.780  70.357  1.00  0.00    -0.328 A  
HETATM   39  H   UNL     1     -12.602   5.227  70.002  1.00  0.00     0.000 HD 
HETATM   40  C   UNL     1     -11.821   7.941  70.832  1.00  0.00    -0.242 A  
HETATM   41  C   UNL     1     -11.010   9.059  71.121  1.00  0.00    -0.371 A  
HETATM   42  C   UNL     1      -9.647   9.045  70.859  1.00  0.00    -0.328 A  
HETATM   43  C   UNL     1      -9.122   7.934  70.205  1.00  0.00    -0.152 A  
HETATM   44  C   UNL     1      -9.837   6.750  70.085  1.00  0.00    -0.187 A  
HETATM   45  C   UNL     1      -8.212   8.046  69.082  1.00  0.00    -0.130 C  
HETATM   46  C   UNL     1      -8.753   8.733  68.041  1.00  0.00    -0.141 C  
ENDBRANCH  27  28
ENDBRANCH  14  24
TORSDOF 3
ENDMDL
MODEL      145
REMARK 921   NORMALIZED FREE ENERGY PREDICTED BY IDOCK:   18.20 KCAL/MOL
REMARK 922        TOTAL FREE ENERGY PREDICTED BY IDOCK:   21.86 KCAL/MOL
REMARK 923 INTER-LIGAND FREE ENERGY PREDICTED BY IDOCK:   11.12 KCAL/MOL
REMARK 924 INTRA-LIGAND FREE ENERGY PREDICTED BY IDOCK:   10.74 KCAL/MOL
REMARK 927      BINDING AFFINITY PREDICTED BY RF-SCORE:    0.00 PKD
ROOT
HETATM    1  C   UNL     1      -7.044  18.470  65.747  1.00  0.00    -0.220 C  
HETATM    2  C   UNL     1      -5.524  18.548  65.622  1.00  0.00    -0.207 C  
HETATM    3  C   UNL     1      -5.279  20.040  65.247  1.00  0.00    -0.187 C  
HETATM    4  C   UNL     1      -6.650  20.632  64.924  1.00  0.00    -0.239 C  
HETATM    5  N   UNL     1      -7.531  19.496  64.850  1.00  0.00     0.686 N  
HETATM    6  C   UNL     1      -8.882  19.733  64.806  1.00  0.00     2.850 C  
HETATM    7  O   UNL     1      -9.358  20.622  64.106  1.00  0.00     2.291 OA 
HETATM    8  C   UNL     1      -9.733  18.718  65.592  1.00  0.00     0.479 C  
HETATM    9  N   UNL     1      -9.030  17.924  66.734  1.00  0.00    -0.254 N  
HETATM   10  C   UNL     1     -11.965  14.793  67.653  1.00  0.00    -0.244 C  
HETATM   11  C   UNL     1      -9.657  16.875  67.384  1.00  0.00    -0.241 C  
HETATM   12  C   UNL     1     -12.615  16.735  66.410  1.00  0.00     4.766 C  
HETATM   13  O   UNL     1      -9.834  16.813  68.598  1.00  0.00    -0.239 OA 
HETATM   14  C   UNL     1      -9.878  15.774  66.350  1.00  0.00    -0.276 C  
HETATM   15  C   UNL     1      -7.994  17.233  66.078  1.00  0.00    -0.161 C  
HETATM   16  O   UNL     1      -7.195  16.383  66.904  1.00  0.00    -0.198 OA 
HETATM   17  H   UNL     1      -7.761  15.646  67.102  1.00  0.00     0.000 HD 
HETATM   18  C   UNL     1     -11.558  15.615  66.374  1.00  0.00     0.305 C  
HETATM   19  O   UNL     1      -8.893  16.399  65.332  1.00  0.00    -0.128 OA 
ENDROOT
BRANCH   8  20
HETATM   20  C   UNL     1     -11.023  19.351  65.981  1.00  0.00    -0.255 C  
HETATM   21  C   UNL     1     -10.814  19.079  68.462  1.00  0.00     0.371 C  
HETATM   22  C   UNL     1     -11.165  20.026  67.318  1.00  0.00     0.280 C  
HETATM   23  C   UNL     1     -12.642  20.426  67.382  1.00  0.00     4.727 C  
ENDBRANCH   8  20
BRANCH  14  24
HETATM   24  N   UNL     1      -9.416  14.394  66.351  1.00  0.00    -0.329 N  
HETATM   25  H   UNL     1      -8.452  14.111  66.529  1.00  0.00     0.000 HD 
HETATM   26  O   UNL     1     -11.477  13.952  65.552  1.00  0.00    -0.307 OA 
HETATM   27  C   UNL     1     -10.447  13.512  66.079  1.00  0.00    -0.299 C  
BRANCH  27  28
HETATM   28  C   UNL     1     -10.313  12.028  66.402  1.00  0.00    -0.246 C  
HETATM   29  C   UNL     1      -8.939  11.460  66.827  1.00  0.00    -0.176 C  
HETATM   30  N   UNL     1      -9.196  10.319  67.778  1.00  0.00    -0.141 NA 
HETATM   31  C   UNL     1      -9.579  10.869  69.139  1.00  0.00    -0.106 C  
HETATM   32  C   UNL     1      -8.190   9.294  67.676  1.00  0.00    -0.115 C  
HETATM   33  C   UNL     1     -10.315   9.912  70.212  1.00  0.00    -0.339 C  
HETATM   34  C   UNL     1     -11.614  10.501  70.775  1.00  0.00    -0.432 A  
HETATM   35  C   UNL     1     -12.755  10.018  71.375  1.00  0.00    -0.415 A  
HETATM   36 BR   UNL     1     -13.086   8.246  71.849  1.00  0.00    -0.371 Br 
HETATM   37  N   UNL     1     -13.681  11.032  71.485  1.00  0.00     0.245 NA 
HETATM   38  C   UNL     1     -13.182  12.205  70.960  1.00  0.00     0.244 A  
HETATM   39  H   UNL     1     -14.608  10.930  71.897  1.00  0.00     0.000 HD 
HETATM   40  C   UNL     1     -13.753  13.447  70.635  1.00  0.00     0.947 A  
HETATM   41  C   UNL     1     -12.925  14.405  70.013  1.00  0.00     0.084 A  
HETATM   42  C   UNL     1     -11.621  14.103  69.650  1.00  0.00    -0.349 A  
HETATM   43  C   UNL     1     -11.187  12.791  69.822  1.00  0.00     0.010 A  
HETATM   44  C   UNL     1     -11.891  11.883  70.601  1.00  0.00    -0.142 A  
HETATM   45  C   UNL     1     -10.466  12.065  68.795  1.00  0.00    -0.207 C  
HETATM   46  C   UNL     1     -11.176  11.957  67.641  1.00  0.00    -0.340 C  
ENDBRANCH  27  28
ENDBRANCH  14  24
TORSDOF 3
ENDMDL
MODEL      146
REMARK 921   NORMALIZED FREE ENERGY PREDICTED BY IDOCK:   18.48 KCAL/MOL
REMARK 922        TOTAL FREE ENERGY PREDICTED BY IDOCK:   22.19 KCAL/MOL
REMARK 923 INTER-LIGAND FREE ENERGY PREDICTED BY IDOCK:   11.31 KCAL/MOL
REMARK 924 INTRA-LIGAND FREE ENERGY PREDICTED BY IDOCK:   10.88 KCAL/MOL
REMARK 927      BINDING AFFINITY PREDICTED BY RF-SCORE:    0.00 PKD
ROOT
HETATM    1  C   UNL     1     -11.842  14.565  66.048  1.00  0.00    -0.334 C  
HETATM    2  C   UNL     1     -12.276  14.882  64.619  1.00  0.00    -0.351 C  
HETATM    3  C   UNL     1     -12.249  16.439  64.581  1.00  0.00     1.191 C  
HETATM    4  C   UNL     1     -12.070  16.900  66.027  1.00  0.00     3.072 C  
HETATM    5  N   UNL     1     -12.269  15.713  66.817  1.00  0.00     0.884 N  
HETATM    6  C   UNL     1     -11.939  15.765  68.148  1.00  0.00     0.123 C  
HETATM    7  O   UNL     1     -12.226  16.732  68.847  1.00  0.00     0.527 OA 
HETATM    8  C   UNL     1     -11.310  14.471  68.698  1.00  0.00    -0.276 C  
HETATM    9  N   UNL     1     -10.634  13.509  67.675  1.00  0.00    -0.239 N  
HETATM   10  C   UNL     1     -10.026   9.872  70.055  1.00  0.00    -0.302 C  
HETATM   11  C   UNL     1     -10.192  12.249  68.041  1.00  0.00    -0.206 C  
HETATM   12  C   UNL     1     -10.475  11.964  71.133  1.00  0.00     5.721 C  
HETATM   13  O   UNL     1      -9.041  11.846  67.899  1.00  0.00    -0.169 OA 
HETATM   14  C   UNL     1     -11.423  11.440  68.442  1.00  0.00    -0.299 C  
HETATM   15  C   UNL     1     -11.678  13.165  66.794  1.00  0.00    -0.385 C  
HETATM   16  O   UNL     1     -11.335  12.246  65.755  1.00  0.00    -0.326 OA 
HETATM   17  H   UNL     1     -11.237  11.412  66.199  1.00  0.00     0.000 HD 
HETATM   18  C   UNL     1     -11.069  11.050  70.045  1.00  0.00    -0.236 C  
HETATM   19  O   UNL     1     -12.412  12.442  67.794  1.00  0.00    -0.082 OA 
ENDROOT
BRANCH   8  20
HETATM   20  C   UNL     1     -10.474  14.794  69.888  1.00  0.00    -0.040 C  
HETATM   21  C   UNL     1      -8.303  15.174  68.700  1.00  0.00    -0.160 C  
HETATM   22  C   UNL     1      -9.277  15.695  69.752  1.00  0.00    -0.076 C  
HETATM   23  C   UNL     1      -8.632  15.674  71.141  1.00  0.00     3.650 C  
ENDBRANCH   8  20
BRANCH  14  24
HETATM   24  N   UNL     1     -11.926  10.186  67.900  1.00  0.00     0.545 N  
HETATM   25  H   UNL     1     -12.422  10.102  67.012  1.00  0.00     0.000 HD 
HETATM   26  O   UNL     1     -11.358   9.360  69.919  1.00  0.00    -0.202 OA 
HETATM   27  C   UNL     1     -11.649   9.122  68.739  1.00  0.00     0.874 C  
BRANCH  27  28
HETATM   28  C   UNL     1     -11.718   7.686  68.231  1.00  0.00     1.602 C  
HETATM   29  C   UNL     1     -10.825   7.250  67.047  1.00  0.00    -0.280 C  
HETATM   30  N   UNL     1     -10.488   5.794  67.247  1.00  0.00    -0.238 NA 
HETATM   31  C   UNL     1      -9.422   5.662  68.320  1.00  0.00    -0.114 C  
HETATM   32  C   UNL     1     -10.335   5.099  65.996  1.00  0.00    -0.188 C  
HETATM   33  C   UNL     1      -9.181   4.236  69.038  1.00  0.00    -0.207 C  
HETATM   34  C   UNL     1      -9.224   4.300  70.569  1.00  0.00    -0.192 A  
HETATM   35  C   UNL     1      -9.447   3.418  71.602  1.00  0.00    -0.149 A  
HETATM   36 BR   UNL     1      -9.708   1.579  71.446  1.00  0.00    -0.198 Br 
HETATM   37  N   UNL     1      -9.555   4.115  72.786  1.00  0.00    -0.125 NA 
HETATM   38  C   UNL     1      -9.412   5.468  72.567  1.00  0.00    -0.145 A  
HETATM   39  H   UNL     1      -9.718   3.688  73.698  1.00  0.00     0.000 HD 
HETATM   40  C   UNL     1      -9.631   6.610  73.356  1.00  0.00    -0.183 A  
HETATM   41  C   UNL     1      -9.458   7.871  72.746  1.00  0.00    -0.304 A  
HETATM   42  C   UNL     1      -9.171   7.982  71.393  1.00  0.00    -0.180 A  
HETATM   43  C   UNL     1      -9.164   6.816  70.633  1.00  0.00    -0.155 A  
HETATM   44  C   UNL     1      -9.133   5.559  71.221  1.00  0.00    -0.158 A  
HETATM   45  C   UNL     1      -9.832   6.714  69.350  1.00  0.00    -0.160 C  
HETATM   46  C   UNL     1     -11.166   6.962  69.439  1.00  0.00    -0.215 C  
ENDBRANCH  27  28
ENDBRANCH  14  24
TORSDOF 3
ENDMDL
MODEL      147
REMARK 921   NORMALIZED FREE ENERGY PREDICTED BY IDOCK:   20.59 KCAL/MOL
REMARK 922        TOTAL FREE ENERGY PREDICTED BY IDOCK:   24.67 KCAL/MOL
REMARK 923 INTER-LIGAND FREE ENERGY PREDICTED BY IDOCK:   16.93 KCAL/MOL
REMARK 924 INTRA-LIGAND FREE ENERGY PREDICTED BY IDOCK:    7.74 KCAL/MOL
REMARK 927      BINDING AFFINITY PREDICTED BY RF-SCORE:    0.00 PKD
ROOT
HETATM    1  C   UNL     1     -10.870   8.874  70.031  1.00  0.00    -0.227 C  
HETATM    2  C   UNL     1     -11.337  10.167  70.695  1.00  0.00    -0.433 C  
HETATM    3  C   UNL     1     -12.671   9.747  71.383  1.00  0.00    -0.483 C  
HETATM    4  C   UNL     1     -13.005   8.353  70.854  1.00  0.00     0.211 C  
HETATM    5  N   UNL     1     -12.091   8.147  69.761  1.00  0.00     0.886 N  
HETATM    6  C   UNL     1     -11.993   6.883  69.235  1.00  0.00     0.639 C  
HETATM    7  O   UNL     1     -12.986   6.191  69.029  1.00  0.00     4.943 OA 
HETATM    8  C   UNL     1     -10.568   6.477  68.815  1.00  0.00    -0.243 C  
HETATM    9  N   UNL     1      -9.380   7.232  69.484  1.00  0.00    -0.152 N  
HETATM   10  C   UNL     1      -5.969   6.010  67.006  1.00  0.00    -0.018 C  
HETATM   11  C   UNL     1      -8.074   7.061  69.055  1.00  0.00    -0.121 C  
HETATM   12  C   UNL     1      -8.022   4.778  66.933  1.00  0.00    -0.103 C  
HETATM   13  O   UNL     1      -7.146   6.700  69.772  1.00  0.00    -0.064 OA 
HETATM   14  C   UNL     1      -7.998   7.594  67.626  1.00  0.00    -0.121 C  
HETATM   15  C   UNL     1      -9.590   8.578  69.128  1.00  0.00    -0.167 C  
HETATM   16  O   UNL     1      -8.604   9.503  69.593  1.00  0.00    -0.150 OA 
HETATM   17  H   UNL     1      -7.842   9.326  69.054  1.00  0.00     0.000 HD 
HETATM   18  C   UNL     1      -7.511   6.221  66.775  1.00  0.00    -0.087 C  
HETATM   19  O   UNL     1      -9.349   8.346  67.732  1.00  0.00    -0.134 OA 
ENDROOT
BRANCH   8  20
HETATM   20  C   UNL     1     -10.450   4.993  68.837  1.00  0.00    -0.061 C  
HETATM   21  C   UNL     1      -8.756   4.802  70.671  1.00  0.00    -0.134 C  
HETATM   22  C   UNL     1     -10.074   4.280  70.107  1.00  0.00    -0.078 C  
HETATM   23  C   UNL     1      -9.938   2.813  69.688  1.00  0.00     0.548 C  
ENDBRANCH   8  20
BRANCH  14  24
HETATM   24  N   UNL     1      -7.156   8.644  67.071  1.00  0.00    -0.074 N  
HETATM   25  H   UNL     1      -6.204   8.498  66.735  1.00  0.00     0.000 HD 
HETATM   26  O   UNL     1      -8.801  10.012  67.779  1.00  0.00    -0.125 OA 
HETATM   27  C   UNL     1      -7.807   9.865  67.056  1.00  0.00    -0.102 C  
BRANCH  27  28
HETATM   28  C   UNL     1      -7.302  11.010  66.187  1.00  0.00    -0.060 C  
HETATM   29  C   UNL     1      -7.366  10.886  64.647  1.00  0.00     0.470 C  
HETATM   30  N   UNL     1      -7.576  12.271  64.090  1.00  0.00     4.313 NA 
HETATM   31  C   UNL     1      -9.023  12.683  64.285  1.00  0.00     1.695 C  
HETATM   32  C   UNL     1      -6.951  12.436  62.803  1.00  0.00     5.059 C  
HETATM   33  C   UNL     1      -9.434  14.241  64.184  1.00  0.00     3.532 C  
HETATM   34  C   UNL     1     -10.222  14.752  65.396  1.00  0.00    -0.415 A  
HETATM   35  C   UNL     1     -10.478  15.971  65.983  1.00  0.00    -0.345 A  
HETATM   36 BR   UNL     1      -9.951  17.638  65.337  1.00  0.00     0.793 Br 
HETATM   37  N   UNL     1     -11.104  15.775  67.194  1.00  0.00    -0.241 NA 
HETATM   38  C   UNL     1     -11.273  14.430  67.442  1.00  0.00    -0.325 A  
HETATM   39  H   UNL     1     -11.401  16.523  67.821  1.00  0.00     0.000 HD 
HETATM   40  C   UNL     1     -11.650  13.688  68.574  1.00  0.00    -0.371 A  
HETATM   41  C   UNL     1     -11.624  12.281  68.473  1.00  0.00    -0.359 A  
HETATM   42  C   UNL     1     -11.156  11.650  67.330  1.00  0.00    -0.346 A  
HETATM   43  C   UNL     1     -10.614  12.446  66.325  1.00  0.00    -0.277 A  
HETATM   44  C   UNL     1     -10.800  13.821  66.300  1.00  0.00    -0.283 A  
HETATM   45  C   UNL     1      -9.359  12.133  65.671  1.00  0.00    -0.040 C  
HETATM   46  C   UNL     1      -8.320  12.070  66.546  1.00  0.00    -0.024 C  
ENDBRANCH  27  28
ENDBRANCH  14  24
TORSDOF 3
ENDMDL
MODEL      148
REMARK 921   NORMALIZED FREE ENERGY PREDICTED BY IDOCK:   22.81 KCAL/MOL
REMARK 922        TOTAL FREE ENERGY PREDICTED BY IDOCK:   27.27 KCAL/MOL
REMARK 923 INTER-LIGAND FREE ENERGY PREDICTED BY IDOCK:   22.22 KCAL/MOL
REMARK 924 INTRA-LIGAND FREE ENERGY PREDICTED BY IDOCK:    5.06 KCAL/MOL
REMARK 927      BINDING AFFINITY PREDICTED BY RF-SCORE:    0.00 PKD
ROOT
HETATM    1  C   UNL     1     -10.981   9.087  70.130  1.00  0.00    -0.233 C  
HETATM    2  C   UNL     1     -12.456   9.473  70.061  1.00  0.00     0.514 C  
HETATM    3  C   UNL     1     -13.145   8.151  69.609  1.00  0.00     3.665 C  
HETATM    4  C   UNL     1     -12.020   7.201  69.197  1.00  0.00     1.023 C  
HETATM    5  N   UNL     1     -10.841   8.026  69.156  1.00  0.00    -0.095 N  
HETATM    6  C   UNL     1      -9.624   7.401  69.044  1.00  0.00    -0.148 C  
HETATM    7  O   UNL     1      -9.451   6.460  68.275  1.00  0.00    -0.123 OA 
HETATM    8  C   UNL     1      -8.493   8.061  69.855  1.00  0.00    -0.126 C  
HETATM    9  N   UNL     1      -8.903   8.948  71.068  1.00  0.00    -0.212 N  
HETATM   10  C   UNL     1      -5.147  10.995  72.053  1.00  0.00     0.112 C  
HETATM   11  C   UNL     1      -7.977   9.717  71.754  1.00  0.00     1.413 C  
HETATM   12  C   UNL     1      -5.133   9.037  70.673  1.00  0.00    -0.020 C  
HETATM   13  O   UNL     1      -7.765   9.640  72.961  1.00  0.00     1.245 OA 
HETATM   14  C   UNL     1      -7.457  10.770  70.779  1.00  0.00     1.863 C  
HETATM   15  C   UNL     1      -9.697   9.960  70.496  1.00  0.00    -0.012 C  
HETATM   16  O   UNL     1     -10.188  10.951  71.402  1.00  0.00     2.209 OA 
HETATM   17  H   UNL     1      -9.423  11.471  71.620  1.00  0.00     0.000 HD 
HETATM   18  C   UNL     1      -5.807  10.420  70.746  1.00  0.00    -0.093 C  
HETATM   19  O   UNL     1      -8.605  10.537  69.765  1.00  0.00    -0.065 OA 
ENDROOT
BRANCH   8  20
HETATM   20  C   UNL     1      -7.444   7.048  70.154  1.00  0.00    -0.086 C  
HETATM   21  C   UNL     1      -8.483   6.064  72.209  1.00  0.00    -0.117 C  
HETATM   22  C   UNL     1      -7.800   5.777  70.875  1.00  0.00    -0.105 C  
HETATM   23  C   UNL     1      -6.454   5.081  71.096  1.00  0.00    -0.023 C  
ENDBRANCH   8  20
BRANCH  14  24
HETATM   24  N   UNL     1      -7.485  12.222  70.879  1.00  0.00     3.899 N  
HETATM   25  H   UNL     1      -6.800  12.775  71.396  1.00  0.00     0.000 HD 
HETATM   26  O   UNL     1      -9.499  12.016  69.887  1.00  0.00     1.703 OA 
HETATM   27  C   UNL     1      -8.555  12.760  70.186  1.00  0.00     4.106 C  
BRANCH  27  28
HETATM   28  C   UNL     1      -8.584  14.238  69.816  1.00  0.00     0.864 C  
HETATM   29  C   UNL     1      -7.294  14.926  69.315  1.00  0.00    -0.175 C  
HETATM   30  N   UNL     1      -7.704  16.004  68.344  1.00  0.00    -0.142 NA 
HETATM   31  C   UNL     1      -8.084  15.373  67.017  1.00  0.00    -0.230 C  
HETATM   32  C   UNL     1      -6.803  17.126  68.372  1.00  0.00    -0.191 C  
HETATM   33  C   UNL     1      -8.956  16.216  65.950  1.00  0.00    -0.241 C  
HETATM   34  C   UNL     1     -10.211  15.483  65.461  1.00  0.00    -0.415 A  
HETATM   35  C   UNL     1     -11.419  15.830  64.899  1.00  0.00    -0.193 A  
HETATM   36 BR   UNL     1     -11.946  17.543  64.389  1.00  0.00     5.264 Br 
HETATM   37  N   UNL     1     -12.241  14.725  64.859  1.00  0.00    -0.346 NA 
HETATM   38  C   UNL     1     -11.605  13.626  65.395  1.00  0.00    -0.321 A  
HETATM   39  H   UNL     1     -13.190  14.721  64.485  1.00  0.00     0.000 HD 
HETATM   40  C   UNL     1     -12.033  12.344  65.780  1.00  0.00    -0.437 A  
HETATM   41  C   UNL     1     -11.089  11.494  66.392  1.00  0.00    -0.328 A  
HETATM   42  C   UNL     1      -9.808  11.938  66.688  1.00  0.00    -0.219 A  
HETATM   43  C   UNL     1      -9.516  13.279  66.460  1.00  0.00    -0.251 A  
HETATM   44  C   UNL     1     -10.339  14.086  65.687  1.00  0.00    -0.342 A  
HETATM   45  C   UNL     1      -8.831  14.107  67.433  1.00  0.00    -0.211 C  
HETATM   46  C   UNL     1      -9.501  14.181  68.614  1.00  0.00    -0.163 C  
ENDBRANCH  27  28
ENDBRANCH  14  24
TORSDOF 3
ENDMDL
MODEL      149
REMARK 921   NORMALIZED FREE ENERGY PREDICTED BY IDOCK:   24.77 KCAL/MOL
REMARK 922        TOTAL FREE ENERGY PREDICTED BY IDOCK:   29.58 KCAL/MOL
REMARK 923 INTER-LIGAND FREE ENERGY PREDICTED BY IDOCK:   19.27 KCAL/MOL
REMARK 924 INTRA-LIGAND FREE ENERGY PREDICTED BY IDOCK:   10.31 KCAL/MOL
REMARK 927      BINDING AFFINITY PREDICTED BY RF-SCORE:    0.00 PKD
ROOT
HETATM    1  C   UNL     1     -11.294  14.296  65.426  1.00  0.00    -0.329 C  
HETATM    2  C   UNL     1     -12.651  14.585  64.789  1.00  0.00    -0.232 C  
HETATM    3  C   UNL     1     -12.603  16.122  64.542  1.00  0.00     1.289 C  
HETATM    4  C   UNL     1     -11.369  16.637  65.282  1.00  0.00     0.258 C  
HETATM    5  N   UNL     1     -10.942  15.529  66.096  1.00  0.00    -0.290 N  
HETATM    6  C   UNL     1      -9.712  15.613  66.701  1.00  0.00    -0.249 C  
HETATM    7  O   UNL     1      -9.330  16.646  67.243  1.00  0.00    -0.225 OA 
HETATM    8  C   UNL     1      -8.936  14.283  66.750  1.00  0.00    -0.227 C  
HETATM    9  N   UNL     1      -9.315  13.191  65.706  1.00  0.00     0.060 N  
HETATM   10  C   UNL     1      -7.248   9.643  67.257  1.00  0.00    -0.087 C  
HETATM   11  C   UNL     1      -8.797  11.908  65.773  1.00  0.00     0.128 C  
HETATM   12  C   UNL     1      -6.638  11.831  68.020  1.00  0.00    -0.060 C  
HETATM   13  O   UNL     1      -8.176  11.359  64.868  1.00  0.00     0.374 OA 
HETATM   14  C   UNL     1      -9.320  11.280  67.063  1.00  0.00    -0.172 C  
HETATM   15  C   UNL     1     -10.674  12.930  65.967  1.00  0.00    -0.277 C  
HETATM   16  O   UNL     1     -11.278  11.920  65.156  1.00  0.00    -0.311 OA 
HETATM   17  H   UNL     1     -10.908  11.106  65.478  1.00  0.00     0.000 HD 
HETATM   18  C   UNL     1      -7.885  10.939  67.883  1.00  0.00    -0.109 C  
HETATM   19  O   UNL     1     -10.415  12.359  67.258  1.00  0.00    -0.220 OA 
ENDROOT
BRANCH   8  20
HETATM   20  C   UNL     1      -7.477  14.567  66.849  1.00  0.00     0.429 C  
HETATM   21  C   UNL     1      -7.407  16.571  65.348  1.00  0.00     2.957 C  
HETATM   22  C   UNL     1      -6.964  15.971  66.679  1.00  0.00     0.139 C  
HETATM   23  C   UNL     1      -5.440  15.821  66.723  1.00  0.00     0.917 C  
ENDBRANCH   8  20
BRANCH  14  24
HETATM   24  N   UNL     1     -10.106  10.070  67.254  1.00  0.00    -0.197 N  
HETATM   25  H   UNL     1     -11.075   9.961  66.953  1.00  0.00     0.000 HD 
HETATM   26  O   UNL     1      -8.353   9.414  68.511  1.00  0.00    -0.116 OA 
HETATM   27  C   UNL     1      -9.376   9.085  67.894  1.00  0.00    -0.141 C  
BRANCH  27  28
HETATM   28  C   UNL     1      -9.827   7.630  67.861  1.00  0.00    -0.190 C  
HETATM   29  C   UNL     1     -11.313   7.297  67.594  1.00  0.00     0.374 C  
HETATM   30  N   UNL     1     -11.357   5.977  66.867  1.00  0.00     0.003 NA 
HETATM   31  C   UNL     1     -10.967   6.184  65.415  1.00  0.00     2.808 C  
HETATM   32  C   UNL     1     -12.539   5.221  67.191  1.00  0.00    10.044 C  
HETATM   33  C   UNL     1     -10.515   4.919  64.518  1.00  0.00     0.644 C  
HETATM   34  C   UNL     1      -9.167   5.112  63.814  1.00  0.00     0.282 A  
HETATM   35  C   UNL     1      -8.190   4.301  63.281  1.00  0.00    -0.091 A  
HETATM   36 BR   UNL     1      -8.256   2.444  63.137  1.00  0.00    -0.074 Br 
HETATM   37  N   UNL     1      -7.089   5.062  62.953  1.00  0.00    -0.041 NA 
HETATM   38  C   UNL     1      -7.305   6.388  63.263  1.00  0.00    -0.065 A  
HETATM   39  H   UNL     1      -6.233   4.696  62.538  1.00  0.00     0.000 HD 
HETATM   40  C   UNL     1      -6.476   7.520  63.330  1.00  0.00    -0.054 A  
HETATM   41  C   UNL     1      -7.049   8.725  63.787  1.00  0.00    -0.092 A  
HETATM   42  C   UNL     1      -8.359   8.773  64.241  1.00  0.00    -0.158 A  
HETATM   43  C   UNL     1      -9.058   7.573  64.332  1.00  0.00     1.206 A  
HETATM   44  C   UNL     1      -8.607   6.414  63.716  1.00  0.00     0.390 A  
HETATM   45  C   UNL     1      -9.837   7.208  65.499  1.00  0.00     1.147 C  
HETATM   46  C   UNL     1      -9.084   7.160  66.631  1.00  0.00    -0.175 C  
ENDBRANCH  27  28
ENDBRANCH  14  24
TORSDOF 3
ENDMDL
MODEL      150
REMARK 921   NORMALIZED FREE ENERGY PREDICTED BY IDOCK:   26.31 KCAL/MOL
REMARK 922        TOTAL FREE ENERGY PREDICTED BY IDOCK:   31.39 KCAL/MOL
REMARK 923 INTER-LIGAND FREE ENERGY PREDICTED BY IDOCK:   25.00 KCAL/MOL
REMARK 924 INTRA-LIGAND FREE ENERGY PREDICTED BY IDOCK:    6.39 KCAL/MOL
REMARK 927      BINDING AFFINITY PREDICTED BY RF-SCORE:    0.00 PKD
ROOT
HETATM    1  C   UNL     1     -11.208   5.099  71.846  1.00  0.00     0.111 C  
HETATM    2  C   UNL     1     -12.557   4.413  71.652  1.00  0.00     5.535 C  
HETATM    3  C   UNL     1     -12.815   3.746  73.036  1.00  0.00     1.486 C  
HETATM    4  C   UNL     1     -11.508   3.863  73.818  1.00  0.00    -0.001 C  
HETATM    5  N   UNL     1     -10.537   4.297  72.847  1.00  0.00    -0.182 N  
HETATM    6  C   UNL     1      -9.314   4.717  73.306  1.00  0.00    -0.120 C  
HETATM    7  O   UNL     1      -8.715   4.112  74.190  1.00  0.00    -0.096 OA 
HETATM    8  C   UNL     1      -8.720   5.909  72.532  1.00  0.00    -0.123 C  
HETATM    9  N   UNL     1      -9.710   6.821  71.747  1.00  0.00    -0.161 N  
HETATM   10  C   UNL     1      -7.008   9.232  69.266  1.00  0.00    -0.053 C  
HETATM   11  C   UNL     1      -9.263   7.811  70.888  1.00  0.00    -0.152 C  
HETATM   12  C   UNL     1      -6.165   8.030  71.159  1.00  0.00    -0.034 C  
HETATM   13  O   UNL     1      -9.564   8.998  70.977  1.00  0.00    -0.231 OA 
HETATM   14  C   UNL     1      -8.528   7.117  69.745  1.00  0.00    -0.137 C  
HETATM   15  C   UNL     1     -10.319   5.945  70.827  1.00  0.00    -0.232 C  
HETATM   16  O   UNL     1     -11.267   6.541  69.939  1.00  0.00    -0.329 OA 
HETATM   17  H   UNL     1     -10.738   7.045  69.332  1.00  0.00     0.000 HD 
HETATM   18  C   UNL     1      -6.983   7.782  69.878  1.00  0.00    -0.050 C  
HETATM   19  O   UNL     1      -9.108   5.722  70.090  1.00  0.00    -0.137 OA 
ENDROOT
BRANCH   8  20
HETATM   20  C   UNL     1      -7.768   6.643  73.411  1.00  0.00    -0.090 C  
HETATM   21  C   UNL     1      -5.646   5.618  72.563  1.00  0.00    -0.026 C  
HETATM   22  C   UNL     1      -6.361   6.909  72.950  1.00  0.00    -0.058 C  
HETATM   23  C   UNL     1      -5.685   7.556  74.163  1.00  0.00    -0.064 C  
ENDBRANCH   8  20
BRANCH  14  24
HETATM   24  N   UNL     1      -8.784   7.162  68.313  1.00  0.00    -0.128 N  
HETATM   25  H   UNL     1      -9.664   7.470  67.897  1.00  0.00     0.000 HD 
HETATM   26  O   UNL     1      -6.816   6.073  68.165  1.00  0.00    -0.065 OA 
HETATM   27  C   UNL     1      -7.688   6.734  67.585  1.00  0.00    -0.111 C  
BRANCH  27  28
HETATM   28  C   UNL     1      -7.563   7.050  66.100  1.00  0.00    -0.095 C  
HETATM   29  C   UNL     1      -8.653   6.556  65.119  1.00  0.00     0.013 C  
HETATM   30  N   UNL     1      -8.748   7.566  64.004  1.00  0.00     0.466 NA 
HETATM   31  C   UNL     1      -9.501   8.790  64.490  1.00  0.00     0.887 C  
HETATM   32  C   UNL     1      -9.107   6.953  62.751  1.00  0.00     1.227 C  
HETATM   33  C   UNL     1      -9.385  10.178  63.673  1.00  0.00    -0.336 C  
HETATM   34  C   UNL     1      -8.986  11.376  64.544  1.00  0.00     0.173 A  
HETATM   35  C   UNL     1      -8.414  12.612  64.346  1.00  0.00     3.339 A  
HETATM   36 BR   UNL     1      -7.971  13.371  62.702  1.00  0.00    13.849 Br 
HETATM   37  N   UNL     1      -8.114  13.181  65.564  1.00  0.00     2.130 NA 
HETATM   38  C   UNL     1      -8.473  12.338  66.595  1.00  0.00    -0.056 A  
HETATM   39  H   UNL     1      -7.686  14.098  65.687  1.00  0.00     0.000 HD 
HETATM   40  C   UNL     1      -8.216  12.325  67.976  1.00  0.00    -0.163 A  
HETATM   41  C   UNL     1      -8.685  11.221  68.719  1.00  0.00    -0.105 A  
HETATM   42  C   UNL     1      -9.298  10.143  68.097  1.00  0.00    -0.140 A  
HETATM   43  C   UNL     1      -9.341  10.135  66.705  1.00  0.00    -0.190 A  
HETATM   44  C   UNL     1      -9.075  11.274  65.958  1.00  0.00    -0.221 A  
HETATM   45  C   UNL     1      -8.992   8.969  65.919  1.00  0.00    -0.233 C  
HETATM   46  C   UNL     1      -7.717   8.554  66.145  1.00  0.00    -0.093 C  
ENDBRANCH  27  28
ENDBRANCH  14  24
TORSDOF 3
ENDMDL
MODEL      151
REMARK 921   NORMALIZED FREE ENERGY PREDICTED BY IDOCK:   26.69 KCAL/MOL
REMARK 922        TOTAL FREE ENERGY PREDICTED BY IDOCK:   31.84 KCAL/MOL
REMARK 923 INTER-LIGAND FREE ENERGY PREDICTED BY IDOCK:   30.74 KCAL/MOL
REMARK 924 INTRA-LIGAND FREE ENERGY PREDICTED BY IDOCK:    1.10 KCAL/MOL
REMARK 927      BINDING AFFINITY PREDICTED BY RF-SCORE:    0.00 PKD
ROOT
HETATM    1  C   UNL     1     -12.261  16.678  71.382  1.00  0.00     0.864 C  
HETATM    2  C   UNL     1     -13.235  16.279  72.487  1.00  0.00     0.037 C  
HETATM    3  C   UNL     1     -12.971  17.347  73.591  1.00  0.00     2.221 C  
HETATM    4  C   UNL     1     -11.710  18.098  73.166  1.00  0.00     2.542 C  
HETATM    5  N   UNL     1     -11.171  17.324  72.078  1.00  0.00     0.985 N  
HETATM    6  C   UNL     1     -10.160  17.880  71.334  1.00  0.00     4.531 C  
HETATM    7  O   UNL     1      -9.231  18.486  71.859  1.00  0.00     7.796 OA 
HETATM    8  C   UNL     1     -10.231  17.562  69.829  1.00  0.00     0.333 C  
HETATM    9  N   UNL     1     -11.618  17.161  69.243  1.00  0.00     0.827 N  
HETATM   10  C   UNL     1     -10.560  15.634  65.267  1.00  0.00    -0.448 C  
HETATM   11  C   UNL     1     -11.754  16.695  67.946  1.00  0.00     0.493 C  
HETATM   12  C   UNL     1      -9.005  16.973  66.503  1.00  0.00    -0.298 C  
HETATM   13  O   UNL     1     -12.486  17.198  67.099  1.00  0.00     3.012 OA 
HETATM   14  C   UNL     1     -11.003  15.369  67.864  1.00  0.00    -0.310 C  
HETATM   15  C   UNL     1     -11.969  16.004  69.966  1.00  0.00    -0.182 C  
HETATM   16  O   UNL     1     -13.209  15.396  69.598  1.00  0.00    -0.240 OA 
HETATM   17  H   UNL     1     -13.035  14.995  68.755  1.00  0.00     0.000 HD 
HETATM   18  C   UNL     1      -9.855  15.700  66.672  1.00  0.00    -0.258 C  
HETATM   19  O   UNL     1     -10.910  15.215  69.403  1.00  0.00    -0.239 OA 
ENDROOT
BRANCH   8  20
HETATM   20  C   UNL     1      -9.520  18.625  69.066  1.00  0.00    -0.226 C  
HETATM   21  C   UNL     1     -11.079  20.519  69.570  1.00  0.00     1.535 C  
HETATM   22  C   UNL     1      -9.625  20.064  69.493  1.00  0.00     0.162 C  
HETATM   23  C   UNL     1      -8.876  20.835  68.402  1.00  0.00     0.628 C  
ENDBRANCH   8  20
BRANCH  14  24
HETATM   24  N   UNL     1     -11.490  14.048  67.496  1.00  0.00    -0.324 N  
HETATM   25  H   UNL     1     -12.093  13.861  66.695  1.00  0.00     0.000 HD 
HETATM   26  O   UNL     1     -10.602  13.429  69.474  1.00  0.00     0.100 OA 
HETATM   27  C   UNL     1     -11.032  13.076  68.368  1.00  0.00    -0.262 C  
BRANCH  27  28
HETATM   28  C   UNL     1     -11.074  11.600  67.987  1.00  0.00    -0.299 C  
HETATM   29  C   UNL     1     -11.652  11.182  66.615  1.00  0.00     0.332 C  
HETATM   30  N   UNL     1     -10.915   9.943  66.173  1.00  0.00     0.302 NA 
HETATM   31  C   UNL     1      -9.536  10.326  65.666  1.00  0.00    -0.232 C  
HETATM   32  C   UNL     1     -11.749   9.068  65.391  1.00  0.00     8.397 C  
HETATM   33  C   UNL     1      -8.389   9.198  65.535  1.00  0.00    -0.138 C  
HETATM   34  C   UNL     1      -7.078   9.565  66.241  1.00  0.00    -0.092 A  
HETATM   35  C   UNL     1      -5.989   8.891  66.745  1.00  0.00    -0.053 A  
HETATM   36 BR   UNL     1      -5.672   7.059  66.621  1.00  0.00    -0.023 Br 
HETATM   37  N   UNL     1      -5.198   9.765  67.458  1.00  0.00    -0.036 NA 
HETATM   38  C   UNL     1      -5.742  11.031  67.449  1.00  0.00    -0.048 A  
HETATM   39  H   UNL     1      -4.329   9.510  67.928  1.00  0.00     0.000 HD 
HETATM   40  C   UNL     1      -5.473  12.212  68.162  1.00  0.00    -0.054 A  
HETATM   41  C   UNL     1      -6.323  13.317  67.944  1.00  0.00    -0.144 A  
HETATM   42  C   UNL     1      -7.438  13.216  67.125  1.00  0.00     0.023 A  
HETATM   43  C   UNL     1      -7.754  11.962  66.610  1.00  0.00     0.018 A  
HETATM   44  C   UNL     1      -6.849  10.910  66.637  1.00  0.00    -0.127 A  
HETATM   45  C   UNL     1      -9.099  11.421  66.637  1.00  0.00    -0.187 C  
HETATM   46  C   UNL     1      -9.590  11.317  67.900  1.00  0.00    -0.182 C  
ENDBRANCH  27  28
ENDBRANCH  14  24
TORSDOF 3
ENDMDL
MODEL      152
REMARK 921   NORMALIZED FREE ENERGY PREDICTED BY IDOCK:   30.37 KCAL/MOL
REMARK 922        TOTAL FREE ENERGY PREDICTED BY IDOCK:   36.17 KCAL/MOL
REMARK 923 INTER-LIGAND FREE ENERGY PREDICTED BY IDOCK:   28.09 KCAL/MOL
REMARK 924 INTRA-LIGAND FREE ENERGY PREDICTED BY IDOCK:    8.08 KCAL/MOL
REMARK 927      BINDING AFFINITY PREDICTED BY RF-SCORE:    0.00 PKD
ROOT
HETATM    1  C   UNL     1     -11.539   6.859  68.262  1.00  0.00     0.607 C  
HETATM    2  C   UNL     1     -12.954   6.327  68.477  1.00  0.00     9.271 C  
HETATM    3  C   UNL     1     -12.835   4.832  68.057  1.00  0.00    17.926 C  
HETATM    4  C   UNL     1     -11.468   4.682  67.390  1.00  0.00     4.199 C  
HETATM    5  N   UNL     1     -11.001   6.031  67.205  1.00  0.00    -0.312 N  
HETATM    6  C   UNL     1      -9.690   6.212  66.840  1.00  0.00    -0.149 C  
HETATM    7  O   UNL     1      -9.156   5.510  65.987  1.00  0.00    -0.151 OA 
HETATM    8  C   UNL     1      -9.012   7.434  67.488  1.00  0.00    -0.126 C  
HETATM    9  N   UNL     1      -9.624   7.975  68.815  1.00  0.00    -0.148 N  
HETATM   10  C   UNL     1      -7.601  11.842  69.280  1.00  0.00     0.209 C  
HETATM   11  C   UNL     1      -9.195   9.162  69.384  1.00  0.00    -0.156 C  
HETATM   12  C   UNL     1      -6.727  10.190  67.781  1.00  0.00    -0.071 C  
HETATM   13  O   UNL     1      -8.762   9.271  70.527  1.00  0.00    -0.201 OA 
HETATM   14  C   UNL     1      -9.557  10.282  68.411  1.00  0.00    -0.149 C  
HETATM   15  C   UNL     1     -10.942   8.324  68.462  1.00  0.00     0.217 C  
HETATM   16  O   UNL     1     -11.734   8.892  69.508  1.00  0.00    -0.226 OA 
HETATM   17  H   UNL     1     -11.378   9.764  69.627  1.00  0.00     0.000 HD 
HETATM   18  C   UNL     1      -8.041  10.939  68.068  1.00  0.00    -0.119 C  
HETATM   19  O   UNL     1     -10.529   9.392  67.597  1.00  0.00    -0.238 OA 
ENDROOT
BRANCH   8  20
HETATM   20  C   UNL     1      -7.539   7.217  67.529  1.00  0.00    -0.109 C  
HETATM   21  C   UNL     1      -7.005   8.009  65.214  1.00  0.00    -0.063 C  
HETATM   22  C   UNL     1      -6.624   8.067  66.690  1.00  0.00    -0.056 C  
HETATM   23  C   UNL     1      -5.237   7.459  66.914  1.00  0.00    -0.023 C  
ENDBRANCH   8  20
BRANCH  14  24
HETATM   24  N   UNL     1     -10.388  11.459  68.618  1.00  0.00    -0.198 N  
HETATM   25  H   UNL     1     -10.890  11.662  69.483  1.00  0.00     0.000 HD 
HETATM   26  O   UNL     1     -10.064  11.785  66.411  1.00  0.00    -0.203 OA 
HETATM   27  C   UNL     1     -10.413  12.268  67.496  1.00  0.00    -0.213 C  
BRANCH  27  28
HETATM   28  C   UNL     1     -10.878  13.717  67.587  1.00  0.00    -0.264 C  
HETATM   29  C   UNL     1     -11.627  14.202  68.850  1.00  0.00    -0.310 C  
HETATM   30  N   UNL     1     -11.282  15.656  69.049  1.00  0.00    -0.283 NA 
HETATM   31  C   UNL     1      -9.884  15.772  69.628  1.00  0.00    -0.275 C  
HETATM   32  C   UNL     1     -12.368  16.391  69.645  1.00  0.00     0.890 C  
HETATM   33  C   UNL     1      -9.097  17.180  69.545  1.00  0.00     0.476 C  
HETATM   34  C   UNL     1      -7.697  17.070  68.929  1.00  0.00    -0.231 A  
HETATM   35  C   UNL     1      -6.806  17.916  68.310  1.00  0.00    -0.212 A  
HETATM   36 BR   UNL     1      -7.008  19.755  68.081  1.00  0.00    -0.332 Br 
HETATM   37  N   UNL     1      -5.766  17.183  67.782  1.00  0.00    -0.114 NA 
HETATM   38  C   UNL     1      -5.944  15.839  68.031  1.00  0.00    -0.139 A  
HETATM   39  H   UNL     1      -4.975  17.579  67.275  1.00  0.00     0.000 HD 
HETATM   40  C   UNL     1      -5.322  14.670  67.559  1.00  0.00     0.194 A  
HETATM   41  C   UNL     1      -5.850  13.432  67.982  1.00  0.00    -0.124 A  
HETATM   42  C   UNL     1      -6.996  13.366  68.760  1.00  0.00    -0.103 A  
HETATM   43  C   UNL     1      -7.671  14.554  69.024  1.00  0.00    -0.113 A  
HETATM   44  C   UNL     1      -7.087  15.793  68.799  1.00  0.00    -0.131 A  
HETATM   45  C   UNL     1      -9.108  14.684  68.887  1.00  0.00    -0.148 C  
HETATM   46  C   UNL     1      -9.536  14.414  67.625  1.00  0.00    -0.214 C  
ENDBRANCH  27  28
ENDBRANCH  14  24
TORSDOF 3
ENDMDL
MODEL      153
REMARK 921   NORMALIZED FREE ENERGY PREDICTED BY IDOCK:   33.35 KCAL/MOL
REMARK 922        TOTAL FREE ENERGY PREDICTED BY IDOCK:   39.67 KCAL/MOL
REMARK 923 INTER-LIGAND FREE ENERGY PREDICTED BY IDOCK:   31.77 KCAL/MOL
REMARK 924 INTRA-LIGAND FREE ENERGY PREDICTED BY IDOCK:    7.90 KCAL/MOL
REMARK 927      BINDING AFFINITY PREDICTED BY RF-SCORE:    0.00 PKD
ROOT
HETATM    1  C   UNL     1      -7.505   8.179  70.389  1.00  0.00    -0.067 C  
HETATM    2  C   UNL     1      -6.706   9.331  70.994  1.00  0.00    -0.093 C  
HETATM    3  C   UNL     1      -5.337   8.668  71.334  1.00  0.00    -0.035 C  
HETATM    4  C   UNL     1      -5.535   7.163  71.158  1.00  0.00    -0.027 C  
HETATM    5  N   UNL     1      -6.957   6.994  71.012  1.00  0.00    -0.064 N  
HETATM    6  C   UNL     1      -7.420   5.769  70.602  1.00  0.00    -0.086 C  
HETATM    7  O   UNL     1      -6.963   4.723  71.052  1.00  0.00    -0.041 OA 
HETATM    8  C   UNL     1      -8.628   5.833  69.648  1.00  0.00    -0.116 C  
HETATM    9  N   UNL     1      -8.842   7.153  68.847  1.00  0.00    -0.131 N  
HETATM   10  C   UNL     1     -12.887   6.628  67.226  1.00  0.00     9.625 C  
HETATM   11  C   UNL     1      -9.984   7.371  68.096  1.00  0.00    -0.166 C  
HETATM   12  C   UNL     1     -11.665   4.746  68.066  1.00  0.00     5.996 C  
HETATM   13  O   UNL     1      -9.990   7.636  66.897  1.00  0.00    -0.210 OA 
HETATM   14  C   UNL     1     -11.159   7.421  69.070  1.00  0.00     0.096 C  
HETATM   15  C   UNL     1      -9.004   8.132  69.846  1.00  0.00    -0.143 C  
HETATM   16  O   UNL     1      -9.255   9.459  69.379  1.00  0.00    -0.150 OA 
HETATM   17  H   UNL     1     -10.148   9.431  69.055  1.00  0.00     0.000 HD 
HETATM   18  C   UNL     1     -12.118   6.148  68.512  1.00  0.00     2.737 C  
HETATM   19  O   UNL     1     -10.248   7.588  70.311  1.00  0.00    -0.200 OA 
ENDROOT
BRANCH   8  20
HETATM   20  C   UNL     1      -8.670   4.594  68.822  1.00  0.00    -0.113 C  
HETATM   21  C   UNL     1      -9.109   2.958  70.667  1.00  0.00    -0.192 C  
HETATM   22  C   UNL     1      -9.495   3.417  69.264  1.00  0.00    -0.212 C  
HETATM   23  C   UNL     1      -9.177   2.328  68.234  1.00  0.00    -0.243 C  
ENDBRANCH   8  20
BRANCH  14  24
HETATM   24  N   UNL     1     -12.125   8.484  69.306  1.00  0.00     1.101 N  
HETATM   25  H   UNL     1     -13.122   8.329  69.461  1.00  0.00     0.000 HD 
HETATM   26  O   UNL     1     -10.406   9.841  68.773  1.00  0.00    -0.192 OA 
HETATM   27  C   UNL     1     -11.524   9.730  69.295  1.00  0.00     0.072 C  
BRANCH  27  28
HETATM   28  C   UNL     1     -12.227  10.943  69.892  1.00  0.00    -0.408 C  
HETATM   29  C   UNL     1     -11.535  11.752  71.013  1.00  0.00     1.302 C  
HETATM   30  N   UNL     1     -11.973  13.188  70.870  1.00  0.00    -0.117 NA 
HETATM   31  C   UNL     1     -11.230  13.833  69.715  1.00  0.00    -0.059 C  
HETATM   32  C   UNL     1     -12.042  13.860  72.142  1.00  0.00     0.405 C  
HETATM   33  C   UNL     1     -11.792  15.200  69.065  1.00  0.00    -0.331 C  
HETATM   34  C   UNL     1     -11.965  15.135  67.542  1.00  0.00     0.012 A  
HETATM   35  C   UNL     1     -12.700  15.801  66.589  1.00  0.00     2.600 A  
HETATM   36 BR   UNL     1     -13.803  17.276  66.878  1.00  0.00    13.061 Br 
HETATM   37  N   UNL     1     -12.583  15.150  65.380  1.00  0.00     0.335 NA 
HETATM   38  C   UNL     1     -11.777  14.039  65.503  1.00  0.00    -0.350 A  
HETATM   39  H   UNL     1     -13.032  15.448  64.514  1.00  0.00     0.000 HD 
HETATM   40  C   UNL     1     -11.498  12.941  64.672  1.00  0.00    -0.369 A  
HETATM   41  C   UNL     1     -10.669  11.923  65.187  1.00  0.00    -0.339 A  
HETATM   42  C   UNL     1     -10.219  11.957  66.499  1.00  0.00    -0.232 A  
HETATM   43  C   UNL     1     -10.697  12.971  67.323  1.00  0.00    -0.261 A  
HETATM   44  C   UNL     1     -11.345  14.087  66.811  1.00  0.00    -0.346 A  
HETATM   45  C   UNL     1     -11.186  12.723  68.666  1.00  0.00    -0.322 C  
HETATM   46  C   UNL     1     -12.232  11.854  68.684  1.00  0.00     0.043 C  
ENDBRANCH  27  28
ENDBRANCH  14  24
TORSDOF 3
ENDMDL
MODEL      154
REMARK 921   NORMALIZED FREE ENERGY PREDICTED BY IDOCK:   37.93 KCAL/MOL
REMARK 922        TOTAL FREE ENERGY PREDICTED BY IDOCK:   45.05 KCAL/MOL
REMARK 923 INTER-LIGAND FREE ENERGY PREDICTED BY IDOCK:   17.75 KCAL/MOL
REMARK 924 INTRA-LIGAND FREE ENERGY PREDICTED BY IDOCK:   27.30 KCAL/MOL
REMARK 927      BINDING AFFINITY PREDICTED BY RF-SCORE:    0.00 PKD
ROOT
HETATM    1  C   UNL     1     -12.101  11.340  69.959  1.00  0.00    -0.348 C  
HETATM    2  C   UNL     1     -13.419  12.001  70.352  1.00  0.00     1.556 C  
HETATM    3  C   UNL     1     -14.187  10.853  71.073  1.00  0.00     2.411 C  
HETATM    4  C   UNL     1     -13.392   9.575  70.810  1.00  0.00     0.035 C  
HETATM    5  N   UNL     1     -12.434   9.941  69.800  1.00  0.00     0.325 N  
HETATM    6  C   UNL     1     -11.420   9.057  69.527  1.00  0.00     0.315 C  
HETATM    7  O   UNL     1     -11.624   7.851  69.430  1.00  0.00     0.357 OA 
HETATM    8  C   UNL     1     -10.062   9.720  69.228  1.00  0.00    -0.198 C  
HETATM    9  N   UNL     1      -9.831  11.162  69.772  1.00  0.00     0.436 N  
HETATM   10  C   UNL     1      -6.187  12.397  67.660  1.00  0.00    -0.132 C  
HETATM   11  C   UNL     1      -8.718  11.905  69.417  1.00  0.00     0.950 C  
HETATM   12  C   UNL     1      -6.798  10.083  67.770  1.00  0.00    -0.076 C  
HETATM   13  O   UNL     1      -7.917  12.385  70.214  1.00  0.00     2.394 OA 
HETATM   14  C   UNL     1      -8.813  12.165  67.915  1.00  0.00    -0.177 C  
HETATM   15  C   UNL     1     -10.848  11.921  69.161  1.00  0.00    -0.147 C  
HETATM   16  O   UNL     1     -10.848  13.317  69.467  1.00  0.00    -0.450 OA 
HETATM   17  H   UNL     1     -10.102  13.663  68.992  1.00  0.00     0.000 HD 
HETATM   18  C   UNL     1      -7.397  11.438  67.353  1.00  0.00    -0.119 C  
HETATM   19  O   UNL     1     -10.306  11.761  67.841  1.00  0.00    -0.185 OA 
ENDROOT
BRANCH   8  20
HETATM   20  C   UNL     1      -8.966   8.760  69.535  1.00  0.00    -0.145 C  
HETATM   21  C   UNL     1      -7.069  10.065  68.549  1.00  0.00    -0.071 C  
HETATM   22  C   UNL     1      -7.561   9.254  69.744  1.00  0.00    -0.082 C  
HETATM   23  C   UNL     1      -6.733   7.975  69.905  1.00  0.00    -0.037 C  
ENDBRANCH   8  20
BRANCH  14  24
HETATM   24  N   UNL     1      -8.845  13.428  67.193  1.00  0.00    -0.217 N  
HETATM   25  H   UNL     1      -9.695  13.962  67.007  1.00  0.00     0.000 HD 
HETATM   26  O   UNL     1      -6.683  12.963  66.757  1.00  0.00     0.118 OA 
HETATM   27  C   UNL     1      -7.580  13.816  66.788  1.00  0.00     0.755 C  
BRANCH  27  28
HETATM   28  C   UNL     1      -7.299  15.254  66.369  1.00  0.00     1.333 C  
HETATM   29  C   UNL     1      -8.460  16.144  65.867  1.00  0.00     0.103 C  
HETATM   30  N   UNL     1      -8.145  17.564  66.264  1.00  0.00    -0.404 NA 
HETATM   31  C   UNL     1      -8.419  17.750  67.745  1.00  0.00    -0.236 C  
HETATM   32  C   UNL     1      -8.658  18.517  65.314  1.00  0.00     1.907 C  
HETATM   33  C   UNL     1      -7.781  19.011  68.526  1.00  0.00    -0.368 C  
HETATM   34  C   UNL     1      -7.005  18.625  69.791  1.00  0.00     0.153 A  
HETATM   35  C   UNL     1      -6.018  19.185  70.570  1.00  0.00    -0.092 A  
HETATM   36 BR   UNL     1      -5.275  20.881  70.358  1.00  0.00    -0.224 Br 
HETATM   37  N   UNL     1      -5.574  18.257  71.487  1.00  0.00     0.073 NA 
HETATM   38  C   UNL     1      -6.248  17.065  71.335  1.00  0.00     2.156 A  
HETATM   39  H   UNL     1      -4.847  18.429  72.181  1.00  0.00     0.000 HD 
HETATM   40  C   UNL     1      -6.060  15.768  71.844  1.00  0.00     1.534 A  
HETATM   41  C   UNL     1      -6.922  14.752  71.382  1.00  0.00     1.456 A  
HETATM   42  C   UNL     1      -7.863  15.001  70.393  1.00  0.00     0.836 A  
HETATM   43  C   UNL     1      -7.859  16.257  69.794  1.00  0.00     0.445 A  
HETATM   44  C   UNL     1      -7.172  17.329  70.348  1.00  0.00     2.165 A  
HETATM   45  C   UNL     1      -7.929  16.440  68.358  1.00  0.00    -0.178 C  
HETATM   46  C   UNL     1      -6.899  15.836  67.707  1.00  0.00    -0.177 C  
ENDBRANCH  27  28
ENDBRANCH  14  24
TORSDOF 3
ENDMDL
MODEL      155
REMARK 921   NORMALIZED FREE ENERGY PREDICTED BY IDOCK:   39.19 KCAL/MOL
REMARK 922        TOTAL FREE ENERGY PREDICTED BY IDOCK:   46.53 KCAL/MOL
REMARK 923 INTER-LIGAND FREE ENERGY PREDICTED BY IDOCK:   33.56 KCAL/MOL
REMARK 924 INTRA-LIGAND FREE ENERGY PREDICTED BY IDOCK:   12.97 KCAL/MOL
REMARK 927      BINDING AFFINITY PREDICTED BY RF-SCORE:    0.00 PKD
ROOT
HETATM    1  C   UNL     1     -11.852  17.434  68.258  1.00  0.00     1.524 C  
HETATM    2  C   UNL     1     -12.344  18.330  69.392  1.00  0.00     9.142 C  
HETATM    3  C   UNL     1     -11.967  19.759  68.900  1.00  0.00     4.957 C  
HETATM    4  C   UNL     1     -11.066  19.568  67.681  1.00  0.00    -0.050 C  
HETATM    5  N   UNL     1     -10.747  18.164  67.677  1.00  0.00    -0.399 N  
HETATM    6  C   UNL     1     -10.140  17.647  66.559  1.00  0.00    -0.350 C  
HETATM    7  O   UNL     1      -9.231  18.240  65.987  1.00  0.00    -0.508 OA 
HETATM    8  C   UNL     1     -10.606  16.228  66.183  1.00  0.00    -0.267 C  
HETATM    9  N   UNL     1     -12.001  15.768  66.702  1.00  0.00     0.682 N  
HETATM   10  C   UNL     1     -11.938  11.455  65.887  1.00  0.00     0.867 C  
HETATM   11  C   UNL     1     -12.435  14.460  66.563  1.00  0.00    -0.118 C  
HETATM   12  C   UNL     1     -10.368  12.914  64.815  1.00  0.00    -0.345 C  
HETATM   13  O   UNL     1     -13.474  14.128  66.000  1.00  0.00    -0.019 OA 
HETATM   14  C   UNL     1     -11.504  13.586  67.398  1.00  0.00    -0.336 C  
HETATM   15  C   UNL     1     -11.883  15.847  68.103  1.00  0.00     0.006 C  
HETATM   16  O   UNL     1     -13.034  15.440  68.846  1.00  0.00     0.063 OA 
HETATM   17  H   UNL     1     -13.053  14.494  68.754  1.00  0.00     0.000 HD 
HETATM   18  C   UNL     1     -10.863  12.553  66.227  1.00  0.00    -0.299 C  
HETATM   19  O   UNL     1     -10.917  14.789  68.178  1.00  0.00    -0.254 OA 
ENDROOT
BRANCH   8  20
HETATM   20  C   UNL     1     -10.383  16.005  64.727  1.00  0.00     0.232 C  
HETATM   21  C   UNL     1      -9.211  13.797  64.885  1.00  0.00     1.470 C  
HETATM   22  C   UNL     1     -10.294  14.608  64.178  1.00  0.00     1.221 C  
HETATM   23  C   UNL     1      -9.941  14.806  62.701  1.00  0.00    13.577 C  
ENDBRANCH   8  20
BRANCH  14  24
HETATM   24  N   UNL     1     -11.815  12.685  68.499  1.00  0.00    -0.317 N  
HETATM   25  H   UNL     1     -12.399  11.853  68.412  1.00  0.00     0.000 HD 
HETATM   26  O   UNL     1     -10.827  14.269  69.763  1.00  0.00    -0.143 OA 
HETATM   27  C   UNL     1     -11.221  13.098  69.678  1.00  0.00    -0.019 C  
BRANCH  27  28
HETATM   28  C   UNL     1     -11.071  12.141  70.855  1.00  0.00     2.408 C  
HETATM   29  C   UNL     1     -12.120  11.026  71.072  1.00  0.00    -0.301 C  
HETATM   30  N   UNL     1     -11.410   9.853  71.697  1.00  0.00    -0.197 NA 
HETATM   31  C   UNL     1     -10.605   9.123  70.637  1.00  0.00    -0.246 C  
HETATM   32  C   UNL     1     -12.269   9.110  72.582  1.00  0.00     0.089 C  
HETATM   33  C   UNL     1      -9.427   8.111  71.080  1.00  0.00    -0.192 C  
HETATM   34  C   UNL     1      -8.080   8.398  70.406  1.00  0.00    -0.109 A  
HETATM   35  C   UNL     1      -6.755   8.133  70.664  1.00  0.00    -0.037 A  
HETATM   36 BR   UNL     1      -6.089   7.103  72.068  1.00  0.00    -0.037 Br 
HETATM   37  N   UNL     1      -5.965   8.833  69.779  1.00  0.00    -0.028 NA 
HETATM   38  C   UNL     1      -6.742   9.580  68.920  1.00  0.00    -0.051 A  
HETATM   39  H   UNL     1      -4.945   8.803  69.761  1.00  0.00     0.000 HD 
HETATM   40  C   UNL     1      -6.466  10.599  67.994  1.00  0.00    -0.062 A  
HETATM   41  C   UNL     1      -7.560  11.209  67.344  1.00  0.00    -0.113 A  
HETATM   42  C   UNL     1      -8.867  10.879  67.674  1.00  0.00    -0.133 A  
HETATM   43  C   UNL     1      -9.067  10.006  68.740  1.00  0.00    -0.148 A  
HETATM   44  C   UNL     1      -8.033   9.244  69.266  1.00  0.00    -0.098 A  
HETATM   45  C   UNL     1     -10.040  10.258  69.785  1.00  0.00    -0.244 C  
HETATM   46  C   UNL     1      -9.804  11.425  70.442  1.00  0.00     2.743 C  
ENDBRANCH  27  28
ENDBRANCH  14  24
TORSDOF 3
ENDMDL
MODEL      156
REMARK 921   NORMALIZED FREE ENERGY PREDICTED BY IDOCK:   40.33 KCAL/MOL
REMARK 922        TOTAL FREE ENERGY PREDICTED BY IDOCK:   47.88 KCAL/MOL
REMARK 923 INTER-LIGAND FREE ENERGY PREDICTED BY IDOCK:   40.69 KCAL/MOL
REMARK 924 INTRA-LIGAND FREE ENERGY PREDICTED BY IDOCK:    7.19 KCAL/MOL
REMARK 927      BINDING AFFINITY PREDICTED BY RF-SCORE:    0.00 PKD
ROOT
HETATM    1  C   UNL     1      -7.501   8.196  70.339  1.00  0.00    -0.067 C  
HETATM    2  C   UNL     1      -6.475   9.133  70.971  1.00  0.00    -0.081 C  
HETATM    3  C   UNL     1      -5.524   8.156  71.725  1.00  0.00    -0.035 C  
HETATM    4  C   UNL     1      -6.206   6.789  71.699  1.00  0.00    -0.038 C  
HETATM    5  N   UNL     1      -7.540   7.054  71.226  1.00  0.00    -0.085 N  
HETATM    6  C   UNL     1      -8.321   5.982  70.874  1.00  0.00    -0.126 C  
HETATM    7  O   UNL     1      -8.361   4.961  71.555  1.00  0.00    -0.109 OA 
HETATM    8  C   UNL     1      -9.222   6.227  69.648  1.00  0.00    -0.141 C  
HETATM    9  N   UNL     1      -8.796   7.351  68.657  1.00  0.00    -0.127 N  
HETATM   10  C   UNL     1     -12.374   7.814  66.158  1.00  0.00     9.949 C  
HETATM   11  C   UNL     1      -9.621   7.761  67.623  1.00  0.00    -0.146 C  
HETATM   12  C   UNL     1     -12.087   5.858  67.511  1.00  0.00     3.866 C  
HETATM   13  O   UNL     1      -9.303   7.761  66.437  1.00  0.00    -0.182 OA 
HETATM   14  C   UNL     1     -10.863   8.380  68.258  1.00  0.00     0.083 C  
HETATM   15  C   UNL     1      -8.786   8.515  69.450  1.00  0.00    -0.141 C  
HETATM   16  O   UNL     1      -8.454   9.727  68.768  1.00  0.00    -0.114 OA 
HETATM   17  H   UNL     1      -9.220   9.917  68.238  1.00  0.00     0.000 HD 
HETATM   18  C   UNL     1     -12.087   7.391  67.647  1.00  0.00     3.490 C  
HETATM   19  O   UNL     1     -10.206   8.503  69.655  1.00  0.00    -0.198 OA 
ENDROOT
BRANCH   8  20
HETATM   20  C   UNL     1      -9.545   4.923  69.004  1.00  0.00    -0.224 C  
HETATM   21  C   UNL     1     -10.901   3.939  70.865  1.00  0.00     1.644 C  
HETATM   22  C   UNL     1     -10.809   4.192  69.363  1.00  0.00     2.522 C  
HETATM   23  C   UNL     1     -10.708   2.869  68.599  1.00  0.00     4.064 C  
ENDBRANCH   8  20
BRANCH  14  24
HETATM   24  N   UNL     1     -11.414   9.719  68.107  1.00  0.00    -0.456 N  
HETATM   25  H   UNL     1     -12.412   9.928  68.066  1.00  0.00     0.000 HD 
HETATM   26  O   UNL     1      -9.267  10.304  67.745  1.00  0.00    -0.140 OA 
HETATM   27  C   UNL     1     -10.415  10.673  68.025  1.00  0.00    -0.196 C  
BRANCH  27  28
HETATM   28  C   UNL     1     -10.723  12.149  68.253  1.00  0.00    -0.248 C  
HETATM   29  C   UNL     1      -9.649  13.063  68.887  1.00  0.00     0.229 C  
HETATM   30  N   UNL     1      -9.837  14.445  68.314  1.00  0.00    -0.222 NA 
HETATM   31  C   UNL     1      -9.283  14.489  66.902  1.00  0.00    -0.250 C  
HETATM   32  C   UNL     1      -9.480  15.474  69.256  1.00  0.00    -0.263 C  
HETATM   33  C   UNL     1      -9.722  15.681  65.905  1.00  0.00    -0.388 C  
HETATM   34  C   UNL     1     -10.258  15.192  64.555  1.00  0.00     0.469 A  
HETATM   35  C   UNL     1     -11.062  15.692  63.556  1.00  0.00     2.503 A  
HETATM   36 BR   UNL     1     -11.776  17.412  63.472  1.00  0.00     8.544 Br 
HETATM   37  N   UNL     1     -11.356  14.689  62.657  1.00  0.00     2.865 NA 
HETATM   38  C   UNL     1     -10.762  13.506  63.038  1.00  0.00     2.802 A  
HETATM   39  H   UNL     1     -11.934  14.807  61.825  1.00  0.00     0.000 HD 
HETATM   40  C   UNL     1     -10.893  12.171  62.620  1.00  0.00     1.155 A  
HETATM   41  C   UNL     1     -10.167  11.189  63.325  1.00  0.00    -0.403 A  
HETATM   42  C   UNL     1      -9.422  11.514  64.449  1.00  0.00    -0.100 A  
HETATM   43  C   UNL     1      -9.497  12.820  64.922  1.00  0.00     0.349 A  
HETATM   44  C   UNL     1     -10.032  13.847  64.156  1.00  0.00     1.187 A  
HETATM   45  C   UNL     1      -9.692  13.135  66.324  1.00  0.00    -0.269 C  
HETATM   46  C   UNL     1     -10.845  12.609  66.818  1.00  0.00    -0.279 C  
ENDBRANCH  27  28
ENDBRANCH  14  24
TORSDOF 3
ENDMDL
MODEL      157
REMARK 921   NORMALIZED FREE ENERGY PREDICTED BY IDOCK:   42.40 KCAL/MOL
REMARK 922        TOTAL FREE ENERGY PREDICTED BY IDOCK:   50.31 KCAL/MOL
REMARK 923 INTER-LIGAND FREE ENERGY PREDICTED BY IDOCK:   34.15 KCAL/MOL
REMARK 924 INTRA-LIGAND FREE ENERGY PREDICTED BY IDOCK:   16.16 KCAL/MOL
REMARK 927      BINDING AFFINITY PREDICTED BY RF-SCORE:    0.00 PKD
ROOT
HETATM    1  C   UNL     1     -10.940  14.539  70.200  1.00  0.00    -0.014 C  
HETATM    2  C   UNL     1     -11.890  13.457  70.707  1.00  0.00    -0.065 C  
HETATM    3  C   UNL     1     -11.713  13.530  72.253  1.00  0.00     2.073 C  
HETATM    4  C   UNL     1     -10.507  14.434  72.504  1.00  0.00     4.147 C  
HETATM    5  N   UNL     1      -9.904  14.609  71.208  1.00  0.00     2.288 N  
HETATM    6  C   UNL     1      -8.932  15.568  71.077  1.00  0.00     2.817 C  
HETATM    7  O   UNL     1      -8.053  15.716  71.922  1.00  0.00     5.171 OA 
HETATM    8  C   UNL     1      -8.967  16.331  69.739  1.00  0.00     0.446 C  
HETATM    9  N   UNL     1     -10.317  16.354  68.961  1.00  0.00    -0.259 N  
HETATM   10  C   UNL     1      -9.121  17.919  65.039  1.00  0.00     3.143 C  
HETATM   11  C   UNL     1     -10.409  16.865  67.677  1.00  0.00    -0.317 C  
HETATM   12  C   UNL     1      -7.677  18.169  66.934  1.00  0.00    -0.244 C  
HETATM   13  O   UNL     1     -11.170  17.768  67.340  1.00  0.00    -0.030 OA 
HETATM   14  C   UNL     1      -9.562  15.970  66.776  1.00  0.00    -0.232 C  
HETATM   15  C   UNL     1     -10.588  14.995  68.713  1.00  0.00    -0.240 C  
HETATM   16  O   UNL     1     -11.778  14.726  67.968  1.00  0.00    -0.333 OA 
HETATM   17  H   UNL     1     -11.568  14.997  67.082  1.00  0.00     0.000 HD 
HETATM   18  C   UNL     1      -8.433  17.067  66.169  1.00  0.00    -0.262 C  
HETATM   19  O   UNL     1      -9.470  14.835  67.827  1.00  0.00    -0.200 OA 
ENDROOT
BRANCH   8  20
HETATM   20  C   UNL     1      -8.331  17.666  69.915  1.00  0.00     1.688 C  
HETATM   21  C   UNL     1      -6.319  17.288  68.471  1.00  0.00    -0.163 C  
HETATM   22  C   UNL     1      -7.458  18.239  68.832  1.00  0.00    -0.255 C  
HETATM   23  C   UNL     1      -6.908  19.533  69.439  1.00  0.00    -0.365 C  
ENDBRANCH   8  20
BRANCH  14  24
HETATM   24  N   UNL     1      -9.949  15.207  65.598  1.00  0.00    -0.341 N  
HETATM   25  H   UNL     1      -9.664  15.439  64.646  1.00  0.00     0.000 HD 
HETATM   26  O   UNL     1     -11.310  14.127  67.034  1.00  0.00    -0.306 OA 
HETATM   27  C   UNL     1     -10.751  14.130  65.929  1.00  0.00    -0.298 C  
BRANCH  27  28
HETATM   28  C   UNL     1     -10.959  12.980  64.951  1.00  0.00    -0.329 C  
HETATM   29  C   UNL     1      -9.761  12.445  64.134  1.00  0.00     0.001 C  
HETATM   30  N   UNL     1      -9.991  10.972  63.905  1.00  0.00    -0.309 NA 
HETATM   31  C   UNL     1      -9.682  10.206  65.178  1.00  0.00    -0.304 C  
HETATM   32  C   UNL     1      -9.442  10.529  62.651  1.00  0.00    -0.296 C  
HETATM   33  C   UNL     1     -10.237   8.701  65.363  1.00  0.00     1.493 C  
HETATM   34  C   UNL     1     -11.012   8.485  66.668  1.00  0.00     0.601 A  
HETATM   35  C   UNL     1     -11.954   7.598  67.139  1.00  0.00     3.778 A  
HETATM   36 BR   UNL     1     -12.606   6.102  66.238  1.00  0.00     7.879 Br 
HETATM   37  N   UNL     1     -12.432   8.037  68.354  1.00  0.00     4.096 NA 
HETATM   38  C   UNL     1     -11.827   9.222  68.715  1.00  0.00     1.334 A  
HETATM   39  H   UNL     1     -13.137   7.553  68.909  1.00  0.00     0.000 HD 
HETATM   40  C   UNL     1     -12.077  10.178  69.713  1.00  0.00    -0.047 A  
HETATM   41  C   UNL     1     -11.280  11.342  69.719  1.00  0.00    -0.266 A  
HETATM   42  C   UNL     1     -10.344  11.578  68.723  1.00  0.00    -0.213 A  
HETATM   43  C   UNL     1     -10.289  10.684  67.658  1.00  0.00    -0.246 A  
HETATM   44  C   UNL     1     -10.906   9.442  67.713  1.00  0.00    -0.223 A  
HETATM   45  C   UNL     1     -10.233  11.116  66.275  1.00  0.00    -0.286 C  
HETATM   46  C   UNL     1     -11.305  11.876  65.926  1.00  0.00    -0.365 C  
ENDBRANCH  27  28
ENDBRANCH  14  24
TORSDOF 3
ENDMDL
MODEL      158
REMARK 921   NORMALIZED FREE ENERGY PREDICTED BY IDOCK:   44.35 KCAL/MOL
REMARK 922        TOTAL FREE ENERGY PREDICTED BY IDOCK:   52.59 KCAL/MOL
REMARK 923 INTER-LIGAND FREE ENERGY PREDICTED BY IDOCK:   45.41 KCAL/MOL
REMARK 924 INTRA-LIGAND FREE ENERGY PREDICTED BY IDOCK:    7.18 KCAL/MOL
REMARK 927      BINDING AFFINITY PREDICTED BY RF-SCORE:    0.00 PKD
ROOT
HETATM    1  C   UNL     1     -12.040   5.348  72.121  1.00  0.00     0.485 C  
HETATM    2  C   UNL     1     -13.382   4.654  71.903  1.00  0.00     4.888 C  
HETATM    3  C   UNL     1     -13.654   3.975  73.279  1.00  0.00     2.990 C  
HETATM    4  C   UNL     1     -12.359   4.095  74.080  1.00  0.00     2.534 C  
HETATM    5  N   UNL     1     -11.378   4.544  73.126  1.00  0.00    -0.254 N  
HETATM    6  C   UNL     1     -10.164   4.970  73.604  1.00  0.00    -0.198 C  
HETATM    7  O   UNL     1      -9.573   4.363  74.492  1.00  0.00    -0.114 OA 
HETATM    8  C   UNL     1      -9.569   6.172  72.848  1.00  0.00    -0.154 C  
HETATM    9  N   UNL     1     -10.554   7.082  72.055  1.00  0.00    -0.209 N  
HETATM   10  C   UNL     1      -7.837   9.531  69.630  1.00  0.00    -0.116 C  
HETATM   11  C   UNL     1     -10.103   8.082  71.210  1.00  0.00    -0.185 C  
HETATM   12  C   UNL     1      -7.011   8.321  71.526  1.00  0.00    -0.068 C  
HETATM   13  O   UNL     1     -10.414   9.266  71.304  1.00  0.00    -0.299 OA 
HETATM   14  C   UNL     1      -9.347   7.401  70.072  1.00  0.00    -0.151 C  
HETATM   15  C   UNL     1     -11.144   6.209  71.121  1.00  0.00    -0.298 C  
HETATM   16  O   UNL     1     -12.085   6.804  70.224  1.00  0.00    -0.600 OA 
HETATM   17  H   UNL     1     -11.551   7.316  69.628  1.00  0.00     0.000 HD 
HETATM   18  C   UNL     1      -7.809   8.077  70.232  1.00  0.00    -0.088 C  
HETATM   19  O   UNL     1      -9.922   6.000  70.399  1.00  0.00    -0.174 OA 
ENDROOT
BRANCH   8  20
HETATM   20  C   UNL     1      -8.634   6.906  73.745  1.00  0.00    -0.165 C  
HETATM   21  C   UNL     1      -6.485   6.003  72.828  1.00  0.00    -0.063 C  
HETATM   22  C   UNL     1      -7.245   7.247  73.279  1.00  0.00    -0.079 C  
HETATM   23  C   UNL     1      -6.578   7.870  74.509  1.00  0.00    -0.122 C  
ENDBRANCH   8  20
BRANCH  14  24
HETATM   24  N   UNL     1      -9.584   7.455  68.637  1.00  0.00    -0.146 N  
HETATM   25  H   UNL     1      -9.194   6.793  67.966  1.00  0.00     0.000 HD 
HETATM   26  O   UNL     1     -10.546   9.438  69.110  1.00  0.00    -0.217 OA 
HETATM   27  C   UNL     1     -10.405   8.515  68.296  1.00  0.00    -0.201 C  
BRANCH  27  28
HETATM   28  C   UNL     1     -11.106   8.558  66.944  1.00  0.00     0.614 C  
HETATM   29  C   UNL     1     -10.429   9.279  65.755  1.00  0.00     0.610 C  
HETATM   30  N   UNL     1     -10.846   8.563  64.496  1.00  0.00     7.353 NA 
HETATM   31  C   UNL     1     -10.071   7.264  64.369  1.00  0.00     5.409 C  
HETATM   32  C   UNL     1     -10.935   9.457  63.371  1.00  0.00     6.983 C  
HETATM   33  C   UNL     1     -10.602   6.108  63.375  1.00  0.00     6.277 C  
HETATM   34  C   UNL     1     -10.742   4.735  64.045  1.00  0.00     0.832 A  
HETATM   35  C   UNL     1     -11.448   3.576  63.814  1.00  0.00     0.895 A  
HETATM   36 BR   UNL     1     -12.539   3.223  62.344  1.00  0.00     4.945 Br 
HETATM   37  N   UNL     1     -11.313   2.733  64.895  1.00  0.00     1.244 NA 
HETATM   38  C   UNL     1     -10.524   3.311  65.866  1.00  0.00     1.386 A  
HETATM   39  H   UNL     1     -11.739   1.809  64.967  1.00  0.00     0.000 HD 
HETATM   40  C   UNL     1     -10.240   2.995  67.205  1.00  0.00     1.569 A  
HETATM   41  C   UNL     1      -9.435   3.895  67.934  1.00  0.00    -0.227 A  
HETATM   42  C   UNL     1      -9.013   5.095  67.379  1.00  0.00    -0.109 A  
HETATM   43  C   UNL     1      -9.496   5.432  66.118  1.00  0.00    -0.171 A  
HETATM   44  C   UNL     1     -10.119   4.500  65.299  1.00  0.00    -0.179 A  
HETATM   45  C   UNL     1     -10.017   6.749  65.806  1.00  0.00     0.724 C  
HETATM   46  C   UNL     1     -11.074   7.088  66.592  1.00  0.00     0.259 C  
ENDBRANCH  27  28
ENDBRANCH  14  24
TORSDOF 3
ENDMDL
MODEL      159
REMARK 921   NORMALIZED FREE ENERGY PREDICTED BY IDOCK:   48.19 KCAL/MOL
REMARK 922        TOTAL FREE ENERGY PREDICTED BY IDOCK:   57.11 KCAL/MOL
REMARK 923 INTER-LIGAND FREE ENERGY PREDICTED BY IDOCK:   51.14 KCAL/MOL
REMARK 924 INTRA-LIGAND FREE ENERGY PREDICTED BY IDOCK:    5.97 KCAL/MOL
REMARK 927      BINDING AFFINITY PREDICTED BY RF-SCORE:    0.00 PKD
ROOT
HETATM    1  C   UNL     1     -11.149   5.102  68.083  1.00  0.00     1.046 C  
HETATM    2  C   UNL     1     -12.523   4.891  68.713  1.00  0.00    12.627 C  
HETATM    3  C   UNL     1     -13.155   3.785  67.817  1.00  0.00    27.476 C  
HETATM    4  C   UNL     1     -12.234   3.636  66.606  1.00  0.00    13.228 C  
HETATM    5  N   UNL     1     -11.335   4.758  66.690  1.00  0.00     1.498 N  
HETATM    6  C   UNL     1     -10.238   4.765  65.866  1.00  0.00    -0.258 C  
HETATM    7  O   UNL     1     -10.316   4.434  64.686  1.00  0.00    -0.123 OA 
HETATM    8  C   UNL     1      -8.962   5.339  66.510  1.00  0.00    -0.120 C  
HETATM    9  N   UNL     1      -8.876   5.331  68.065  1.00  0.00    -0.105 N  
HETATM   10  C   UNL     1      -5.415   7.918  68.835  1.00  0.00    -0.026 C  
HETATM   11  C   UNL     1      -7.853   5.974  68.742  1.00  0.00    -0.100 C  
HETATM   12  C   UNL     1      -5.778   6.997  66.653  1.00  0.00    -0.022 C  
HETATM   13  O   UNL     1      -7.095   5.429  69.539  1.00  0.00    -0.060 OA 
HETATM   14  C   UNL     1      -7.997   7.467  68.460  1.00  0.00    -0.123 C  
HETATM   15  C   UNL     1      -9.976   6.112  68.469  1.00  0.00    -0.147 C  
HETATM   16  O   UNL     1     -10.119   6.300  69.879  1.00  0.00    -0.165 OA 
HETATM   17  H   UNL     1      -9.420   6.901  70.109  1.00  0.00     0.000 HD 
HETATM   18  C   UNL     1      -6.522   7.820  67.720  1.00  0.00    -0.052 C  
HETATM   19  O   UNL     1      -9.441   7.324  67.917  1.00  0.00    -0.135 OA 
ENDROOT
BRANCH   8  20
HETATM   20  C   UNL     1      -7.766   4.780  65.820  1.00  0.00    -0.090 C  
HETATM   21  C   UNL     1      -7.028   6.867  64.649  1.00  0.00    -0.058 C  
HETATM   22  C   UNL     1      -6.598   5.667  65.488  1.00  0.00    -0.040 C  
HETATM   23  C   UNL     1      -5.654   4.762  64.691  1.00  0.00    -0.014 C  
ENDBRANCH   8  20
BRANCH  14  24
HETATM   24  N   UNL     1      -8.174   8.574  69.389  1.00  0.00    -0.112 N  
HETATM   25  H   UNL     1      -8.123   8.485  70.404  1.00  0.00     0.000 HD 
HETATM   26  O   UNL     1      -8.797   9.712  67.545  1.00  0.00    -0.125 OA 
HETATM   27  C   UNL     1      -8.421   9.762  68.724  1.00  0.00    -0.122 C  
BRANCH  27  28
HETATM   28  C   UNL     1      -8.255  11.103  69.429  1.00  0.00     0.176 C  
HETATM   29  C   UNL     1      -6.846  11.722  69.572  1.00  0.00    -0.026 C  
HETATM   30  N   UNL     1      -7.006  13.221  69.546  1.00  0.00     0.073 NA 
HETATM   31  C   UNL     1      -7.249  13.681  68.120  1.00  0.00    -0.117 C  
HETATM   32  C   UNL     1      -6.016  13.884  70.354  1.00  0.00    -0.160 C  
HETATM   33  C   UNL     1      -7.873  15.145  67.846  1.00  0.00    -0.144 C  
HETATM   34  C   UNL     1      -9.108  15.130  66.938  1.00  0.00    -0.270 A  
HETATM   35  C   UNL     1     -10.183  15.955  66.695  1.00  0.00    -0.288 A  
HETATM   36 BR   UNL     1     -10.465  17.645  67.430  1.00  0.00    -0.334 Br 
HETATM   37  N   UNL     1     -11.093  15.301  65.893  1.00  0.00    -0.320 NA 
HETATM   38  C   UNL     1     -10.648  14.032  65.591  1.00  0.00    -0.307 A  
HETATM   39  H   UNL     1     -11.973  15.700  65.569  1.00  0.00     0.000 HD 
HETATM   40  C   UNL     1     -11.248  12.904  65.006  1.00  0.00    -0.324 A  
HETATM   41  C   UNL     1     -10.488  11.717  64.940  1.00  0.00    -0.334 A  
HETATM   42  C   UNL     1      -9.227  11.638  65.513  1.00  0.00    -0.111 A  
HETATM   43  C   UNL     1      -8.778  12.732  66.248  1.00  0.00     0.219 A  
HETATM   44  C   UNL     1      -9.400  13.970  66.171  1.00  0.00    -0.143 A  
HETATM   45  C   UNL     1      -8.166  12.598  67.555  1.00  0.00    -0.178 C  
HETATM   46  C   UNL     1      -8.989  11.997  68.455  1.00  0.00    -0.153 C  
ENDBRANCH  27  28
ENDBRANCH  14  24
TORSDOF 3
ENDMDL
MODEL      160
REMARK 921   NORMALIZED FREE ENERGY PREDICTED BY IDOCK:   49.07 KCAL/MOL
REMARK 922        TOTAL FREE ENERGY PREDICTED BY IDOCK:   58.14 KCAL/MOL
REMARK 923 INTER-LIGAND FREE ENERGY PREDICTED BY IDOCK:   40.23 KCAL/MOL
REMARK 924 INTRA-LIGAND FREE ENERGY PREDICTED BY IDOCK:   17.92 KCAL/MOL
REMARK 927      BINDING AFFINITY PREDICTED BY RF-SCORE:    0.00 PKD
ROOT
HETATM    1  C   UNL     1     -10.079  12.168  68.863  1.00  0.00     0.006 C  
HETATM    2  C   UNL     1     -10.818  12.074  70.196  1.00  0.00     0.919 C  
HETATM    3  C   UNL     1     -10.648  13.502  70.794  1.00  0.00     2.904 C  
HETATM    4  C   UNL     1      -9.622  14.216  69.914  1.00  0.00     1.165 C  
HETATM    5  N   UNL     1      -9.068  13.179  69.083  1.00  0.00     0.521 N  
HETATM    6  C   UNL     1      -8.283  13.557  68.023  1.00  0.00    -0.163 C  
HETATM    7  O   UNL     1      -7.441  14.443  68.127  1.00  0.00    -0.107 OA 
HETATM    8  C   UNL     1      -8.463  12.693  66.759  1.00  0.00    -0.049 C  
HETATM    9  N   UNL     1      -9.799  11.906  66.611  1.00  0.00    -0.198 N  
HETATM   10  C   UNL     1      -8.925   9.177  63.287  1.00  0.00     0.011 C  
HETATM   11  C   UNL     1      -9.989  10.976  65.603  1.00  0.00    -0.248 C  
HETATM   12  C   UNL     1      -7.538  11.091  63.679  1.00  0.00     0.614 C  
HETATM   13  O   UNL     1     -10.900  11.015  64.782  1.00  0.00    -0.276 OA 
HETATM   14  C   UNL     1      -9.000   9.839  65.850  1.00  0.00    -0.156 C  
HETATM   15  C   UNL     1      -9.823  11.065  67.740  1.00  0.00    -0.173 C  
HETATM   16  O   UNL     1     -10.950  10.191  67.838  1.00  0.00    -0.272 OA 
HETATM   17  H   UNL     1     -10.798   9.534  67.169  1.00  0.00     0.000 HD 
HETATM   18  C   UNL     1      -8.089   9.864  64.430  1.00  0.00    -0.157 C  
HETATM   19  O   UNL     1      -8.701  10.286  67.303  1.00  0.00    -0.126 OA 
ENDROOT
BRANCH   8  20
HETATM   20  C   UNL     1      -8.074  13.486  65.560  1.00  0.00     3.762 C  
HETATM   21  C   UNL     1      -6.685  11.742  64.420  1.00  0.00     3.626 C  
HETATM   22  C   UNL     1      -7.777  12.796  64.258  1.00  0.00     7.758 C  
HETATM   23  C   UNL     1      -7.305  13.923  63.334  1.00  0.00    19.619 C  
ENDBRANCH   8  20
BRANCH  14  24
HETATM   24  N   UNL     1      -9.251   8.420  66.057  1.00  0.00    -0.274 N  
HETATM   25  H   UNL     1      -8.664   7.673  65.684  1.00  0.00     0.000 HD 
HETATM   26  O   UNL     1     -11.199   9.134  66.937  1.00  0.00     0.276 OA 
HETATM   27  C   UNL     1     -10.384   8.210  66.822  1.00  0.00    -0.291 C  
BRANCH  27  28
HETATM   28  C   UNL     1     -10.635   6.865  67.494  1.00  0.00    -0.351 C  
HETATM   29  C   UNL     1     -10.506   5.563  66.670  1.00  0.00    -0.294 C  
HETATM   30  N   UNL     1     -10.031   4.481  67.606  1.00  0.00    -0.123 NA 
HETATM   31  C   UNL     1      -8.548   4.657  67.876  1.00  0.00    -0.103 C  
HETATM   32  C   UNL     1     -10.544   3.186  67.240  1.00  0.00     3.187 C  
HETATM   33  C   UNL     1      -7.872   3.927  69.148  1.00  0.00    -0.052 C  
HETATM   34  C   UNL     1      -7.079   4.876  70.054  1.00  0.00    -0.053 A  
HETATM   35  C   UNL     1      -6.652   4.888  71.363  1.00  0.00    -0.038 A  
HETATM   36 BR   UNL     1      -6.849   3.507  72.599  1.00  0.00    -0.039 Br 
HETATM   37  N   UNL     1      -6.139   6.130  71.668  1.00  0.00    -0.039 NA 
HETATM   38  C   UNL     1      -6.216   6.968  70.577  1.00  0.00    -0.031 A  
HETATM   39  H   UNL     1      -5.755   6.392  72.576  1.00  0.00     0.000 HD 
HETATM   40  C   UNL     1      -6.037   8.350  70.397  1.00  0.00    -0.031 A  
HETATM   41  C   UNL     1      -6.298   8.883  69.117  1.00  0.00    -0.043 A  
HETATM   42  C   UNL     1      -6.800   8.089  68.096  1.00  0.00    -0.069 A  
HETATM   43  C   UNL     1      -7.140   6.775  68.403  1.00  0.00    -0.083 A  
HETATM   44  C   UNL     1      -6.721   6.165  69.577  1.00  0.00    -0.052 A  
HETATM   45  C   UNL     1      -8.391   6.173  67.986  1.00  0.00    -0.117 C  
HETATM   46  C   UNL     1      -9.474   6.843  68.463  1.00  0.00    -0.133 C  
ENDBRANCH  27  28
ENDBRANCH  14  24
TORSDOF 3
ENDMDL
MODEL      161
REMARK 921   NORMALIZED FREE ENERGY PREDICTED BY IDOCK:   49.25 KCAL/MOL
REMARK 922        TOTAL FREE ENERGY PREDICTED BY IDOCK:   58.36 KCAL/MOL
REMARK 923 INTER-LIGAND FREE ENERGY PREDICTED BY IDOCK:   46.61 KCAL/MOL
REMARK 924 INTRA-LIGAND FREE ENERGY PREDICTED BY IDOCK:   11.75 KCAL/MOL
REMARK 927      BINDING AFFINITY PREDICTED BY RF-SCORE:    0.00 PKD
ROOT
HETATM    1  C   UNL     1      -9.766  17.018  67.621  1.00  0.00    -0.257 C  
HETATM    2  C   UNL     1     -10.390  17.658  66.383  1.00  0.00    -0.345 C  
HETATM    3  C   UNL     1     -10.460  19.167  66.766  1.00  0.00    -0.524 C  
HETATM    4  C   UNL     1     -10.134  19.246  68.257  1.00  0.00    -0.425 C  
HETATM    5  N   UNL     1     -10.164  17.880  68.712  1.00  0.00    -0.376 N  
HETATM    6  C   UNL     1      -9.677  17.611  69.966  1.00  0.00     1.246 C  
HETATM    7  O   UNL     1      -9.934  18.332  70.926  1.00  0.00     2.429 OA 
HETATM    8  C   UNL     1      -8.910  16.280  70.078  1.00  0.00     1.031 C  
HETATM    9  N   UNL     1      -8.308  15.686  68.770  1.00  0.00    -0.174 N  
HETATM   10  C   UNL     1      -7.198  11.622  70.001  1.00  0.00     0.766 C  
HETATM   11  C   UNL     1      -7.750  14.419  68.735  1.00  0.00    -0.139 C  
HETATM   12  C   UNL     1      -7.636  13.309  71.645  1.00  0.00     7.716 C  
HETATM   13  O   UNL     1      -6.603  14.173  68.372  1.00  0.00    -0.089 OA 
HETATM   14  C   UNL     1      -8.873  13.426  69.023  1.00  0.00     0.418 C  
HETATM   15  C   UNL     1      -9.429  15.492  67.940  1.00  0.00    -0.201 C  
HETATM   16  O   UNL     1      -9.161  14.913  66.661  1.00  0.00    -0.252 OA 
HETATM   17  H   UNL     1      -8.960  14.004  66.850  1.00  0.00     0.000 HD 
HETATM   18  C   UNL     1      -8.303  12.663  70.417  1.00  0.00     5.200 C  
HETATM   19  O   UNL     1      -9.991  14.469  68.775  1.00  0.00    -0.230 OA 
ENDROOT
BRANCH   8  20
HETATM   20  C   UNL     1      -7.957  16.355  71.220  1.00  0.00     6.065 C  
HETATM   21  C   UNL     1      -9.118  14.750  72.752  1.00  0.00     7.970 C  
HETATM   22  C   UNL     1      -7.786  15.180  72.144  1.00  0.00     5.620 C  
HETATM   23  C   UNL     1      -6.837  15.693  73.232  1.00  0.00     5.826 C  
ENDBRANCH   8  20
BRANCH  14  24
HETATM   24  N   UNL     1      -9.362  12.317  68.216  1.00  0.00    -0.212 N  
HETATM   25  H   UNL     1      -9.055  12.122  67.263  1.00  0.00     0.000 HD 
HETATM   26  O   UNL     1     -10.845  12.060  69.895  1.00  0.00     0.174 OA 
HETATM   27  C   UNL     1     -10.297  11.562  68.902  1.00  0.00    -0.169 C  
BRANCH  27  28
HETATM   28  C   UNL     1     -10.660  10.157  68.438  1.00  0.00    -0.249 C  
HETATM   29  C   UNL     1     -11.073   9.921  66.967  1.00  0.00     0.112 C  
HETATM   30  N   UNL     1     -10.625   8.532  66.588  1.00  0.00    -0.185 NA 
HETATM   31  C   UNL     1      -9.127   8.531  66.345  1.00  0.00    -0.184 C  
HETATM   32  C   UNL     1     -11.508   7.923  65.628  1.00  0.00     6.931 C  
HETATM   33  C   UNL     1      -8.316   7.135  66.348  1.00  0.00    -0.125 C  
HETATM   34  C   UNL     1      -7.102   7.128  67.286  1.00  0.00    -0.084 A  
HETATM   35  C   UNL     1      -6.340   6.180  67.930  1.00  0.00    -0.040 A  
HETATM   36 BR   UNL     1      -6.504   4.331  67.759  1.00  0.00    -0.039 Br 
HETATM   37  N   UNL     1      -5.486   6.801  68.815  1.00  0.00    -0.016 NA 
HETATM   38  C   UNL     1      -5.664   8.167  68.784  1.00  0.00    -0.036 A  
HETATM   39  H   UNL     1      -4.815   6.316  69.411  1.00  0.00     0.000 HD 
HETATM   40  C   UNL     1      -5.223   9.225  69.597  1.00  0.00    -0.034 A  
HETATM   41  C   UNL     1      -5.695  10.520  69.299  1.00  0.00    -0.037 A  
HETATM   42  C   UNL     1      -6.633  10.732  68.299  1.00  0.00    -0.058 A  
HETATM   43  C   UNL     1      -7.172   9.615  67.668  1.00  0.00    -0.089 A  
HETATM   44  C   UNL     1      -6.599   8.357  67.790  1.00  0.00    -0.062 A  
HETATM   45  C   UNL     1      -8.595   9.459  67.436  1.00  0.00    -0.125 C  
HETATM   46  C   UNL     1      -9.314   9.482  68.589  1.00  0.00    -0.142 C  
ENDBRANCH  27  28
ENDBRANCH  14  24
TORSDOF 3
ENDMDL
MODEL      162
REMARK 921   NORMALIZED FREE ENERGY PREDICTED BY IDOCK:   51.34 KCAL/MOL
REMARK 922        TOTAL FREE ENERGY PREDICTED BY IDOCK:   60.81 KCAL/MOL
REMARK 923 INTER-LIGAND FREE ENERGY PREDICTED BY IDOCK:   54.63 KCAL/MOL
REMARK 924 INTRA-LIGAND FREE ENERGY PREDICTED BY IDOCK:    6.18 KCAL/MOL
REMARK 927      BINDING AFFINITY PREDICTED BY RF-SCORE:    0.00 PKD
ROOT
HETATM    1  C   UNL     1      -9.225  17.081  71.565  1.00  0.00     8.295 C  
HETATM    2  C   UNL     1      -8.969  16.720  73.025  1.00  0.00    16.353 C  
HETATM    3  C   UNL     1      -9.095  18.091  73.754  1.00  0.00    11.768 C  
HETATM    4  C   UNL     1      -9.142  19.155  72.659  1.00  0.00     6.756 C  
HETATM    5  N   UNL     1      -8.786  18.455  71.452  1.00  0.00     7.696 N  
HETATM    6  C   UNL     1      -8.972  19.102  70.256  1.00  0.00     1.711 C  
HETATM    7  O   UNL     1      -8.669  20.282  70.107  1.00  0.00     0.876 OA 
HETATM    8  C   UNL     1      -9.457  18.194  69.110  1.00  0.00    -0.006 C  
HETATM    9  N   UNL     1     -10.181  16.871  69.500  1.00  0.00    -0.199 N  
HETATM   10  C   UNL     1     -10.304  14.701  65.687  1.00  0.00    -0.370 C  
HETATM   11  C   UNL     1     -10.503  15.911  68.556  1.00  0.00    -0.241 C  
HETATM   12  C   UNL     1      -9.867  17.056  65.727  1.00  0.00    -0.129 C  
HETATM   13  O   UNL     1     -11.636  15.482  68.357  1.00  0.00    -0.355 OA 
HETATM   14  C   UNL     1      -9.189  15.376  67.992  1.00  0.00    -0.184 C  
HETATM   15  C   UNL     1      -9.221  16.170  70.256  1.00  0.00     1.253 C  
HETATM   16  O   UNL     1      -9.620  14.878  70.721  1.00  0.00     0.270 OA 
HETATM   17  H   UNL     1      -9.617  14.335  69.941  1.00  0.00     0.000 HD 
HETATM   18  C   UNL     1      -9.341  15.752  66.354  1.00  0.00    -0.333 C  
HETATM   19  O   UNL     1      -8.340  15.980  69.138  1.00  0.00    -0.231 OA 
ENDROOT
BRANCH   8  20
HETATM   20  C   UNL     1     -10.175  19.017  68.098  1.00  0.00    -0.472 C  
HETATM   21  C   UNL     1     -11.359  20.560  69.676  1.00  0.00     2.476 C  
HETATM   22  C   UNL     1     -10.533  20.447  68.398  1.00  0.00    -0.120 C  
HETATM   23  C   UNL     1     -11.354  20.892  67.184  1.00  0.00     3.170 C  
ENDBRANCH   8  20
BRANCH  14  24
HETATM   24  N   UNL     1      -8.673  14.015  67.972  1.00  0.00    -0.171 N  
HETATM   25  H   UNL     1      -9.197  13.208  67.631  1.00  0.00     0.000 HD 
HETATM   26  O   UNL     1      -6.973  14.894  69.162  1.00  0.00    -0.117 OA 
HETATM   27  C   UNL     1      -7.386  13.951  68.474  1.00  0.00    -0.116 C  
BRANCH  27  28
HETATM   28  C   UNL     1      -6.500  12.740  68.204  1.00  0.00    -0.085 C  
HETATM   29  C   UNL     1      -6.229  11.724  69.337  1.00  0.00    -0.103 C  
HETATM   30  N   UNL     1      -6.057  10.369  68.698  1.00  0.00    -0.044 NA 
HETATM   31  C   UNL     1      -7.415   9.820  68.300  1.00  0.00    -0.080 C  
HETATM   32  C   UNL     1      -5.135   9.540  69.429  1.00  0.00    -0.036 C  
HETATM   33  C   UNL     1      -7.508   8.613  67.230  1.00  0.00    -0.089 C  
HETATM   34  C   UNL     1      -8.450   8.902  66.055  1.00  0.00    -0.138 A  
HETATM   35  C   UNL     1      -8.614   8.444  64.767  1.00  0.00    -0.049 A  
HETATM   36 BR   UNL     1      -7.667   7.056  63.961  1.00  0.00    -0.108 Br 
HETATM   37  N   UNL     1      -9.526   9.240  64.109  1.00  0.00    -0.299 NA 
HETATM   38  C   UNL     1      -9.983  10.242  64.938  1.00  0.00    -0.323 A  
HETATM   39  H   UNL     1      -9.822   9.106  63.143  1.00  0.00     0.000 HD 
HETATM   40  C   UNL     1     -10.735  11.411  64.730  1.00  0.00    -0.362 A  
HETATM   41  C   UNL     1     -10.936  12.266  65.834  1.00  0.00    -0.338 A  
HETATM   42  C   UNL     1     -10.337  12.011  67.059  1.00  0.00    -0.235 A  
HETATM   43  C   UNL     1      -9.447  10.944  67.138  1.00  0.00    -0.178 A  
HETATM   44  C   UNL     1      -9.376   9.976  66.146  1.00  0.00    -0.220 A  
HETATM   45  C   UNL     1      -8.151  11.052  67.778  1.00  0.00    -0.116 C  
HETATM   46  C   UNL     1      -7.368  12.006  67.206  1.00  0.00    -0.151 C  
ENDBRANCH  27  28
ENDBRANCH  14  24
TORSDOF 3
ENDMDL
MODEL      163
REMARK 921   NORMALIZED FREE ENERGY PREDICTED BY IDOCK:   51.34 KCAL/MOL
REMARK 922        TOTAL FREE ENERGY PREDICTED BY IDOCK:   60.81 KCAL/MOL
REMARK 923 INTER-LIGAND FREE ENERGY PREDICTED BY IDOCK:   49.40 KCAL/MOL
REMARK 924 INTRA-LIGAND FREE ENERGY PREDICTED BY IDOCK:   11.41 KCAL/MOL
REMARK 927      BINDING AFFINITY PREDICTED BY RF-SCORE:    0.00 PKD
ROOT
HETATM    1  C   UNL     1     -13.140  12.292  66.799  1.00  0.00     4.054 C  
HETATM    2  C   UNL     1     -13.601  11.873  65.405  1.00  0.00     4.927 C  
HETATM    3  C   UNL     1     -13.948  13.233  64.727  1.00  0.00     3.212 C  
HETATM    4  C   UNL     1     -13.922  14.283  65.836  1.00  0.00     3.621 C  
HETATM    5  N   UNL     1     -13.850  13.525  67.058  1.00  0.00     6.564 N  
HETATM    6  C   UNL     1     -13.576  14.203  68.219  1.00  0.00     5.913 C  
HETATM    7  O   UNL     1     -14.105  15.280  68.478  1.00  0.00     6.013 OA 
HETATM    8  C   UNL     1     -12.669  13.439  69.202  1.00  0.00     0.750 C  
HETATM    9  N   UNL     1     -11.757  12.320  68.616  1.00  0.00    -0.313 N  
HETATM   10  C   UNL     1     -10.353  10.257  72.228  1.00  0.00     4.995 C  
HETATM   11  C   UNL     1     -11.034  11.467  69.434  1.00  0.00    -0.176 C  
HETATM   12  C   UNL     1     -11.319  12.445  72.380  1.00  0.00     6.932 C  
HETATM   13  O   UNL     1      -9.817  11.317  69.381  1.00  0.00     0.003 OA 
HETATM   14  C   UNL     1     -12.044  10.642  70.226  1.00  0.00    -0.338 C  
HETATM   15  C   UNL     1     -12.664  11.411  68.040  1.00  0.00     2.457 C  
HETATM   16  O   UNL     1     -12.083  10.247  67.448  1.00  0.00     0.425 OA 
HETATM   17  H   UNL     1     -11.800   9.722  68.187  1.00  0.00     0.000 HD 
HETATM   18  C   UNL     1     -11.648  11.051  71.815  1.00  0.00     1.686 C  
HETATM   19  O   UNL     1     -13.228  11.025  69.303  1.00  0.00     0.400 OA 
ENDROOT
BRANCH   8  20
HETATM   20  C   UNL     1     -11.967  14.412  70.084  1.00  0.00    -0.386 C  
HETATM   21  C   UNL     1     -13.982  15.625  70.944  1.00  0.00     0.221 C  
HETATM   22  C   UNL     1     -12.654  14.965  71.302  1.00  0.00    -0.402 C  
HETATM   23  C   UNL     1     -11.668  16.001  71.851  1.00  0.00    -0.594 C  
ENDBRANCH   8  20
BRANCH  14  24
HETATM   24  N   UNL     1     -12.217   9.198  70.290  1.00  0.00    -0.381 N  
HETATM   25  H   UNL     1     -12.906   8.678  69.746  1.00  0.00     0.000 HD 
HETATM   26  O   UNL     1     -10.784   9.341  72.024  1.00  0.00    -0.295 OA 
HETATM   27  C   UNL     1     -11.331   8.618  71.181  1.00  0.00    -0.275 C  
BRANCH  27  28
HETATM   28  C   UNL     1     -11.048   7.121  71.140  1.00  0.00    -0.281 C  
HETATM   29  C   UNL     1     -10.924   6.404  69.775  1.00  0.00    -0.356 C  
HETATM   30  N   UNL     1      -9.942   5.272  69.947  1.00  0.00    -0.216 NA 
HETATM   31  C   UNL     1      -8.529   5.826  69.976  1.00  0.00    -0.124 C  
HETATM   32  C   UNL     1     -10.257   4.152  69.100  1.00  0.00     0.474 C  
HETATM   33  C   UNL     1      -7.328   4.924  70.568  1.00  0.00    -0.054 C  
HETATM   34  C   UNL     1      -6.502   5.629  71.650  1.00  0.00    -0.048 A  
HETATM   35  C   UNL     1      -5.676   5.252  72.685  1.00  0.00    -0.022 A  
HETATM   36 BR   UNL     1      -5.147   3.512  73.095  1.00  0.00     0.000 Br 
HETATM   37  N   UNL     1      -5.371   6.353  73.454  1.00  0.00    -0.036 NA 
HETATM   38  C   UNL     1      -5.987   7.480  72.955  1.00  0.00    -0.047 A  
HETATM   39  H   UNL     1      -4.772   6.336  74.280  1.00  0.00     0.000 HD 
HETATM   40  C   UNL     1      -6.180   8.783  73.446  1.00  0.00    -0.053 A  
HETATM   41  C   UNL     1      -6.961   9.665  72.670  1.00  0.00     1.401 A  
HETATM   42  C   UNL     1      -7.592   9.239  71.510  1.00  0.00     0.179 A  
HETATM   43  C   UNL     1      -7.518   7.886  71.191  1.00  0.00    -0.078 A  
HETATM   44  C   UNL     1      -6.610   7.037  71.809  1.00  0.00    -0.049 A  
HETATM   45  C   UNL     1      -8.676   7.114  70.783  1.00  0.00    -0.147 C  
HETATM   46  C   UNL     1      -9.654   7.109  71.727  1.00  0.00    -0.161 C  
ENDBRANCH  27  28
ENDBRANCH  14  24
TORSDOF 3
ENDMDL
MODEL      164
REMARK 921   NORMALIZED FREE ENERGY PREDICTED BY IDOCK:   53.45 KCAL/MOL
REMARK 922        TOTAL FREE ENERGY PREDICTED BY IDOCK:   63.30 KCAL/MOL
REMARK 923 INTER-LIGAND FREE ENERGY PREDICTED BY IDOCK:   56.78 KCAL/MOL
REMARK 924 INTRA-LIGAND FREE ENERGY PREDICTED BY IDOCK:    6.51 KCAL/MOL
REMARK 927      BINDING AFFINITY PREDICTED BY RF-SCORE:    0.00 PKD
ROOT
HETATM    1  C   UNL     1     -10.818   9.545  67.207  1.00  0.00    -0.118 C  
HETATM    2  C   UNL     1     -11.980  10.479  66.880  1.00  0.00     2.136 C  
HETATM    3  C   UNL     1     -12.382  10.050  65.437  1.00  0.00     8.068 C  
HETATM    4  C   UNL     1     -11.278   9.113  64.947  1.00  0.00     6.751 C  
HETATM    5  N   UNL     1     -10.226   9.244  65.921  1.00  0.00    -0.141 N  
HETATM    6  C   UNL     1      -9.193   8.342  65.875  1.00  0.00    -0.155 C  
HETATM    7  O   UNL     1      -8.680   8.004  64.812  1.00  0.00    -0.006 OA 
HETATM    8  C   UNL     1      -8.664   7.910  67.255  1.00  0.00    -0.131 C  
HETATM    9  N   UNL     1      -9.623   8.067  68.473  1.00  0.00    -0.153 N  
HETATM   10  C   UNL     1      -6.927   7.454  71.883  1.00  0.00    -0.062 C  
HETATM   11  C   UNL     1      -9.188   7.867  69.773  1.00  0.00    -0.150 C  
HETATM   12  C   UNL     1      -6.270   6.774  69.682  1.00  0.00    -0.034 C  
HETATM   13  O   UNL     1      -9.686   7.067  70.559  1.00  0.00    -0.176 OA 
HETATM   14  C   UNL     1      -8.151   8.948  70.070  1.00  0.00    -0.116 C  
HETATM   15  C   UNL     1      -9.902   9.447  68.509  1.00  0.00    -0.156 C  
HETATM   16  O   UNL     1     -10.751   9.880  69.574  1.00  0.00    -0.216 OA 
HETATM   17  H   UNL     1     -10.206   9.821  70.350  1.00  0.00     0.000 HD 
HETATM   18  C   UNL     1      -6.785   8.022  70.422  1.00  0.00    -0.037 C  
HETATM   19  O   UNL     1      -8.555   9.808  68.847  1.00  0.00    -0.123 OA 
ENDROOT
BRANCH   8  20
HETATM   20  C   UNL     1      -8.021   6.572  67.141  1.00  0.00    -0.112 C  
HETATM   21  C   UNL     1      -9.999   5.306  66.271  1.00  0.00    -0.216 C  
HETATM   22  C   UNL     1      -8.506   5.582  66.118  1.00  0.00    -0.122 C  
HETATM   23  C   UNL     1      -7.692   4.317  66.403  1.00  0.00    -0.094 C  
ENDBRANCH   8  20
BRANCH  14  24
HETATM   24  N   UNL     1      -8.141   9.962  71.114  1.00  0.00     0.462 N  
HETATM   25  H   UNL     1      -7.732   9.829  72.040  1.00  0.00     0.000 HD 
HETATM   26  O   UNL     1      -9.504  11.082  69.711  1.00  0.00     0.303 OA 
HETATM   27  C   UNL     1      -8.755  11.129  70.696  1.00  0.00     4.128 C  
BRANCH  27  28
HETATM   28  C   UNL     1      -8.534  12.440  71.442  1.00  0.00    13.734 C  
HETATM   29  C   UNL     1      -7.412  12.537  72.501  1.00  0.00    12.518 C  
HETATM   30  N   UNL     1      -6.902  13.955  72.491  1.00  0.00     2.224 NA 
HETATM   31  C   UNL     1      -6.009  14.165  71.281  1.00  0.00    -0.145 C  
HETATM   32  C   UNL     1      -6.455  14.378  73.792  1.00  0.00     1.518 C  
HETATM   33  C   UNL     1      -5.677  15.664  70.781  1.00  0.00     0.024 C  
HETATM   34  C   UNL     1      -5.968  15.898  69.294  1.00  0.00    -0.128 A  
HETATM   35  C   UNL     1      -6.219  16.979  68.480  1.00  0.00    -0.149 A  
HETATM   36 BR   UNL     1      -6.180  18.773  68.987  1.00  0.00    -0.268 Br 
HETATM   37  N   UNL     1      -6.611  16.537  67.236  1.00  0.00    -0.163 NA 
HETATM   38  C   UNL     1      -6.635  15.160  67.195  1.00  0.00     0.256 A  
HETATM   39  H   UNL     1      -6.851  17.145  66.453  1.00  0.00     0.000 HD 
HETATM   40  C   UNL     1      -7.139  14.221  66.279  1.00  0.00     3.452 A  
HETATM   41  C   UNL     1      -7.059  12.857  66.628  1.00  0.00     0.979 A  
HETATM   42  C   UNL     1      -6.584  12.459  67.869  1.00  0.00    -0.097 A  
HETATM   43  C   UNL     1      -6.287  13.450  68.800  1.00  0.00    -0.094 A  
HETATM   44  C   UNL     1      -6.165  14.784  68.434  1.00  0.00    -0.105 A  
HETATM   45  C   UNL     1      -6.724  13.383  70.180  1.00  0.00     0.328 C  
HETATM   46  C   UNL     1      -8.077  13.312  70.293  1.00  0.00     3.365 C  
ENDBRANCH  27  28
ENDBRANCH  14  24
TORSDOF 3
ENDMDL
MODEL      165
REMARK 921   NORMALIZED FREE ENERGY PREDICTED BY IDOCK:   58.30 KCAL/MOL
REMARK 922        TOTAL FREE ENERGY PREDICTED BY IDOCK:   68.99 KCAL/MOL
REMARK 923 INTER-LIGAND FREE ENERGY PREDICTED BY IDOCK:   43.09 KCAL/MOL
REMARK 924 INTRA-LIGAND FREE ENERGY PREDICTED BY IDOCK:   25.90 KCAL/MOL
REMARK 927      BINDING AFFINITY PREDICTED BY RF-SCORE:    0.00 PKD
ROOT
HETATM    1  C   UNL     1     -10.079  12.168  68.863  1.00  0.00     0.006 C  
HETATM    2  C   UNL     1     -10.820  12.083  70.195  1.00  0.00     0.919 C  
HETATM    3  C   UNL     1     -10.656  13.518  70.781  1.00  0.00     2.904 C  
HETATM    4  C   UNL     1      -9.630  14.227  69.897  1.00  0.00     0.979 C  
HETATM    5  N   UNL     1      -9.071  13.184  69.076  1.00  0.00     0.343 N  
HETATM    6  C   UNL     1      -8.286  13.555  68.013  1.00  0.00    -0.168 C  
HETATM    7  O   UNL     1      -7.447  14.445  68.111  1.00  0.00    -0.107 OA 
HETATM    8  C   UNL     1      -8.461  12.680  66.757  1.00  0.00    -0.049 C  
HETATM    9  N   UNL     1      -9.794  11.887  66.614  1.00  0.00    -0.198 N  
HETATM   10  C   UNL     1      -8.906   9.131  63.316  1.00  0.00    -0.095 C  
HETATM   11  C   UNL     1      -9.979  10.947  65.614  1.00  0.00    -0.251 C  
HETATM   12  C   UNL     1      -7.526  11.053  63.693  1.00  0.00     0.663 C  
HETATM   13  O   UNL     1     -10.890  10.975  64.791  1.00  0.00    -0.276 OA 
HETATM   14  C   UNL     1      -8.987   9.816  65.873  1.00  0.00    -0.156 C  
HETATM   15  C   UNL     1      -9.818  11.056  67.751  1.00  0.00    -0.173 C  
HETATM   16  O   UNL     1     -10.942  10.179  67.854  1.00  0.00    -0.272 OA 
HETATM   17  H   UNL     1     -10.786   9.516  67.191  1.00  0.00     0.000 HD 
HETATM   18  C   UNL     1      -8.074   9.831  64.454  1.00  0.00    -0.150 C  
HETATM   19  O   UNL     1      -8.692  10.276  67.322  1.00  0.00    -0.126 OA 
ENDROOT
BRANCH   8  20
HETATM   20  C   UNL     1      -8.073  13.463  65.552  1.00  0.00     3.599 C  
HETATM   21  C   UNL     1      -6.676  11.713  64.430  1.00  0.00     2.992 C  
HETATM   22  C   UNL     1      -7.771  12.762  64.256  1.00  0.00     7.758 C  
HETATM   23  C   UNL     1      -7.301  13.882  63.323  1.00  0.00    19.359 C  
ENDBRANCH   8  20
BRANCH  14  24
HETATM   24  N   UNL     1      -9.233   8.398  66.092  1.00  0.00    -0.202 N  
HETATM   25  H   UNL     1      -8.643   7.650  65.727  1.00  0.00     0.000 HD 
HETATM   26  O   UNL     1     -11.186   9.113  66.962  1.00  0.00     0.219 OA 
HETATM   27  C   UNL     1     -10.367   8.190  66.858  1.00  0.00    -0.331 C  
BRANCH  27  28
HETATM   28  C   UNL     1     -10.615   6.851  67.541  1.00  0.00    -0.351 C  
HETATM   29  C   UNL     1      -9.422   6.055  68.118  1.00  0.00    -0.114 C  
HETATM   30  N   UNL     1      -9.924   5.294  69.319  1.00  0.00    -0.195 NA 
HETATM   31  C   UNL     1     -10.077   6.242  70.493  1.00  0.00    -0.189 C  
HETATM   32  C   UNL     1      -9.233   4.043  69.493  1.00  0.00    -0.151 C  
HETATM   33  C   UNL     1     -10.985   5.811  71.757  1.00  0.00    -0.317 C  
HETATM   34  C   UNL     1     -12.051   6.848  72.134  1.00  0.00    -0.278 A  
HETATM   35  C   UNL     1     -13.248   6.852  72.815  1.00  0.00     1.152 A  
HETATM   36 BR   UNL     1     -14.012   5.407  73.709  1.00  0.00     8.923 Br 
HETATM   37  N   UNL     1     -13.864   8.073  72.653  1.00  0.00    -0.439 NA 
HETATM   38  C   UNL     1     -13.099   8.902  71.861  1.00  0.00    -0.386 A  
HETATM   39  H   UNL     1     -14.763   8.328  73.062  1.00  0.00     0.000 HD 
HETATM   40  C   UNL     1     -13.335  10.134  71.228  1.00  0.00    -0.394 A  
HETATM   41  C   UNL     1     -12.315  10.652  70.402  1.00  0.00    -0.428 A  
HETATM   42  C   UNL     1     -11.158   9.929  70.148  1.00  0.00    -0.353 A  
HETATM   43  C   UNL     1     -11.080   8.633  70.649  1.00  0.00    -0.282 A  
HETATM   44  C   UNL     1     -11.959   8.167  71.617  1.00  0.00    -0.340 A  
HETATM   45  C   UNL     1     -10.631   7.511  69.848  1.00  0.00    -0.243 C  
HETATM   46  C   UNL     1     -11.403   7.320  68.744  1.00  0.00     0.285 C  
ENDBRANCH  27  28
ENDBRANCH  14  24
TORSDOF 3
ENDMDL
MODEL      166
REMARK 921   NORMALIZED FREE ENERGY PREDICTED BY IDOCK:   60.81 KCAL/MOL
REMARK 922        TOTAL FREE ENERGY PREDICTED BY IDOCK:   71.95 KCAL/MOL
REMARK 923 INTER-LIGAND FREE ENERGY PREDICTED BY IDOCK:   65.02 KCAL/MOL
REMARK 924 INTRA-LIGAND FREE ENERGY PREDICTED BY IDOCK:    6.93 KCAL/MOL
REMARK 927      BINDING AFFINITY PREDICTED BY RF-SCORE:    0.00 PKD
ROOT
HETATM    1  C   UNL     1     -12.055  12.868  66.950  1.00  0.00    -0.244 C  
HETATM    2  C   UNL     1     -13.160  11.951  67.467  1.00  0.00     4.956 C  
HETATM    3  C   UNL     1     -14.305  12.946  67.823  1.00  0.00    16.358 C  
HETATM    4  C   UNL     1     -13.696  14.345  67.744  1.00  0.00     7.126 C  
HETATM    5  N   UNL     1     -12.278  14.122  67.635  1.00  0.00    -0.291 N  
HETATM    6  C   UNL     1     -11.483  15.192  67.310  1.00  0.00    -0.279 C  
HETATM    7  O   UNL     1     -11.650  16.298  67.816  1.00  0.00    -0.079 OA 
HETATM    8  C   UNL     1     -10.307  14.850  66.376  1.00  0.00    -0.286 C  
HETATM    9  N   UNL     1     -10.435  13.568  65.499  1.00  0.00    -0.291 N  
HETATM   10  C   UNL     1      -6.348  13.043  63.987  1.00  0.00    14.282 C  
HETATM   11  C   UNL     1      -9.371  13.083  64.757  1.00  0.00     0.763 C  
HETATM   12  C   UNL     1      -7.035  15.140  64.920  1.00  0.00    13.576 C  
HETATM   13  O   UNL     1      -9.397  12.893  63.544  1.00  0.00     0.582 OA 
HETATM   14  C   UNL     1      -8.290  12.659  65.747  1.00  0.00     1.345 C  
HETATM   15  C   UNL     1     -10.583  12.529  66.438  1.00  0.00    -0.247 C  
HETATM   16  O   UNL     1     -10.690  11.212  65.894  1.00  0.00    -0.254 OA 
HETATM   17  H   UNL     1      -9.813  11.010  65.589  1.00  0.00     0.000 HD 
HETATM   18  C   UNL     1      -7.000  13.645  65.287  1.00  0.00    10.664 C  
HETATM   19  O   UNL     1      -9.254  12.681  66.959  1.00  0.00    -0.199 OA 
ENDROOT
BRANCH   8  20
HETATM   20  C   UNL     1      -9.897  16.072  65.630  1.00  0.00    -0.309 C  
HETATM   21  C   UNL     1      -9.890  17.673  67.555  1.00  0.00    -0.299 C  
HETATM   22  C   UNL     1      -9.139  17.168  66.327  1.00  0.00    -0.260 C  
HETATM   23  C   UNL     1      -9.023  18.273  65.273  1.00  0.00     1.964 C  
ENDBRANCH   8  20
BRANCH  14  24
HETATM   24  N   UNL     1      -7.661  11.359  65.934  1.00  0.00    -0.366 N  
HETATM   25  H   UNL     1      -6.796  11.210  66.454  1.00  0.00     0.000 HD 
HETATM   26  O   UNL     1      -9.206  10.662  64.448  1.00  0.00    -0.205 OA 
HETATM   27  C   UNL     1      -8.383  10.352  65.319  1.00  0.00    -0.166 C  
BRANCH  27  28
HETATM   28  C   UNL     1      -8.158   8.890  65.689  1.00  0.00    -0.113 C  
HETATM   29  C   UNL     1      -6.730   8.397  66.020  1.00  0.00    -0.061 C  
HETATM   30  N   UNL     1      -6.858   7.290  67.035  1.00  0.00    -0.074 NA 
HETATM   31  C   UNL     1      -7.151   7.884  68.400  1.00  0.00    -0.081 C  
HETATM   32  C   UNL     1      -5.820   6.302  66.890  1.00  0.00    -0.020 C  
HETATM   33  C   UNL     1      -7.753   6.947  69.569  1.00  0.00    -0.104 C  
HETATM   34  C   UNL     1      -9.026   7.507  70.216  1.00  0.00    -0.147 A  
HETATM   35  C   UNL     1     -10.091   7.005  70.928  1.00  0.00    -0.193 A  
HETATM   36 BR   UNL     1     -10.304   5.244  71.501  1.00  0.00    -0.277 Br 
HETATM   37  N   UNL     1     -11.048   7.986  71.075  1.00  0.00    -0.249 NA 
HETATM   38  C   UNL     1     -10.646   9.153  70.462  1.00  0.00    -0.235 A  
HETATM   39  H   UNL     1     -11.933   7.864  71.568  1.00  0.00     0.000 HD 
HETATM   40  C   UNL     1     -11.295  10.356  70.137  1.00  0.00    -0.397 A  
HETATM   41  C   UNL     1     -10.564  11.318  69.409  1.00  0.00    -0.142 A  
HETATM   42  C   UNL     1      -9.282  11.052  68.950  1.00  0.00    -0.139 A  
HETATM   43  C   UNL     1      -8.779   9.768  69.138  1.00  0.00    -0.155 A  
HETATM   44  C   UNL     1      -9.376   8.868  70.010  1.00  0.00    -0.184 A  
HETATM   45  C   UNL     1      -8.114   9.026  68.084  1.00  0.00    -0.105 C  
HETATM   46  C   UNL     1      -8.912   8.839  66.999  1.00  0.00    -0.151 C  
ENDBRANCH  27  28
ENDBRANCH  14  24
TORSDOF 3
ENDMDL
MODEL      167
REMARK 921   NORMALIZED FREE ENERGY PREDICTED BY IDOCK:   63.35 KCAL/MOL
REMARK 922        TOTAL FREE ENERGY PREDICTED BY IDOCK:   74.92 KCAL/MOL
REMARK 923 INTER-LIGAND FREE ENERGY PREDICTED BY IDOCK:   68.95 KCAL/MOL
REMARK 924 INTRA-LIGAND FREE ENERGY PREDICTED BY IDOCK:    5.97 KCAL/MOL
REMARK 927      BINDING AFFINITY PREDICTED BY RF-SCORE:    0.00 PKD
ROOT
HETATM    1  C   UNL     1     -10.264  15.450  66.129  1.00  0.00    -0.308 C  
HETATM    2  C   UNL     1      -9.740  15.047  64.753  1.00  0.00     0.610 C  
HETATM    3  C   UNL     1     -10.724  15.762  63.780  1.00  0.00     2.587 C  
HETATM    4  C   UNL     1     -11.872  16.287  64.640  1.00  0.00     0.248 C  
HETATM    5  N   UNL     1     -11.679  15.668  65.926  1.00  0.00     0.299 N  
HETATM    6  C   UNL     1     -12.425  16.133  66.980  1.00  0.00     2.443 C  
HETATM    7  O   UNL     1     -13.620  16.388  66.863  1.00  0.00     6.071 OA 
HETATM    8  C   UNL     1     -11.671  16.175  68.323  1.00  0.00    -0.074 C  
HETATM    9  N   UNL     1     -10.114  16.231  68.271  1.00  0.00    -0.237 N  
HETATM   10  C   UNL     1      -8.999  15.412  72.436  1.00  0.00     7.676 C  
HETATM   11  C   UNL     1      -9.342  16.102  69.413  1.00  0.00    -0.186 C  
HETATM   12  C   UNL     1     -11.238  16.068  71.888  1.00  0.00    -0.049 C  
HETATM   13  O   UNL     1      -8.518  16.928  69.794  1.00  0.00     0.539 OA 
HETATM   14  C   UNL     1      -9.571  14.693  69.953  1.00  0.00     0.493 C  
HETATM   15  C   UNL     1      -9.756  15.053  67.588  1.00  0.00    -0.215 C  
HETATM   16  O   UNL     1      -8.353  14.832  67.428  1.00  0.00    -0.172 OA 
HETATM   17  H   UNL     1      -8.050  14.596  68.297  1.00  0.00     0.000 HD 
HETATM   18  C   UNL     1     -10.191  15.011  71.489  1.00  0.00     1.544 C  
HETATM   19  O   UNL     1     -10.218  14.190  68.638  1.00  0.00    -0.234 OA 
ENDROOT
BRANCH   8  20
HETATM   20  C   UNL     1     -12.298  17.193  69.210  1.00  0.00     3.409 C  
HETATM   21  C   UNL     1     -11.084  19.206  68.346  1.00  0.00     0.687 C  
HETATM   22  C   UNL     1     -12.433  18.619  68.751  1.00  0.00     7.944 C  
HETATM   23  C   UNL     1     -12.997  19.354  69.971  1.00  0.00    20.501 C  
ENDBRANCH   8  20
BRANCH  14  24
HETATM   24  N   UNL     1      -8.611  13.626  70.198  1.00  0.00     1.940 N  
HETATM   25  H   UNL     1      -8.127  13.482  71.085  1.00  0.00     0.000 HD 
HETATM   26  O   UNL     1      -8.792  13.274  67.979  1.00  0.00    -0.175 OA 
HETATM   27  C   UNL     1      -8.436  12.831  69.079  1.00  0.00     0.472 C  
BRANCH  27  28
HETATM   28  C   UNL     1      -7.801  11.450  69.192  1.00  0.00     0.023 C  
HETATM   29  C   UNL     1      -7.123  11.027  70.515  1.00  0.00     1.017 C  
HETATM   30  N   UNL     1      -7.296   9.536  70.655  1.00  0.00    -0.189 NA 
HETATM   31  C   UNL     1      -8.717   9.228  71.088  1.00  0.00    -0.044 C  
HETATM   32  C   UNL     1      -6.189   8.926  71.344  1.00  0.00    -0.064 C  
HETATM   33  C   UNL     1      -9.306   7.736  70.903  1.00  0.00    -0.157 C  
HETATM   34  C   UNL     1     -10.642   7.687  70.152  1.00  0.00    -0.239 A  
HETATM   35  C   UNL     1     -11.353   6.754  69.433  1.00  0.00    -0.197 A  
HETATM   36 BR   UNL     1     -10.896   4.963  69.195  1.00  0.00     1.212 Br 
HETATM   37  N   UNL     1     -12.422   7.366  68.815  1.00  0.00     2.573 NA 
HETATM   38  C   UNL     1     -12.442   8.714  69.104  1.00  0.00     3.419 A  
HETATM   39  H   UNL     1     -13.103   6.889  68.226  1.00  0.00     0.000 HD 
HETATM   40  C   UNL     1     -13.159   9.809  68.592  1.00  0.00     5.669 A  
HETATM   41  C   UNL     1     -12.838  11.091  69.085  1.00  0.00     0.933 A  
HETATM   42  C   UNL     1     -11.791  11.277  69.976  1.00  0.00    -0.448 A  
HETATM   43  C   UNL     1     -10.999  10.176  70.286  1.00  0.00    -0.380 A  
HETATM   44  C   UNL     1     -11.395   8.880  69.983  1.00  0.00    -0.050 A  
HETATM   45  C   UNL     1      -9.550  10.231  70.291  1.00  0.00     0.235 C  
HETATM   46  C   UNL     1      -9.040  10.590  69.083  1.00  0.00    -0.177 C  
ENDBRANCH  27  28
ENDBRANCH  14  24
TORSDOF 3
ENDMDL
MODEL      168
REMARK 921   NORMALIZED FREE ENERGY PREDICTED BY IDOCK:   65.24 KCAL/MOL
REMARK 922        TOTAL FREE ENERGY PREDICTED BY IDOCK:   77.15 KCAL/MOL
REMARK 923 INTER-LIGAND FREE ENERGY PREDICTED BY IDOCK:   76.21 KCAL/MOL
REMARK 924 INTRA-LIGAND FREE ENERGY PREDICTED BY IDOCK:    0.94 KCAL/MOL
REMARK 927      BINDING AFFINITY PREDICTED BY RF-SCORE:    0.00 PKD
ROOT
HETATM    1  C   UNL     1      -9.194  18.052  67.668  1.00  0.00    -0.259 C  
HETATM    2  C   UNL     1      -9.672  18.656  66.351  1.00  0.00    -0.363 C  
HETATM    3  C   UNL     1     -10.422  19.944  66.806  1.00  0.00    -0.575 C  
HETATM    4  C   UNL     1     -10.554  19.848  68.326  1.00  0.00    -0.156 C  
HETATM    5  N   UNL     1     -10.166  18.498  68.643  1.00  0.00    -0.368 N  
HETATM    6  C   UNL     1      -9.957  18.183  69.962  1.00  0.00     1.083 C  
HETATM    7  O   UNL     1     -10.715  18.573  70.846  1.00  0.00     1.685 OA 
HETATM    8  C   UNL     1      -8.790  17.209  70.206  1.00  0.00     2.830 C  
HETATM    9  N   UNL     1      -7.686  17.121  69.110  1.00  0.00    -0.162 N  
HETATM   10  C   UNL     1      -5.442  13.546  70.312  1.00  0.00    -0.127 C  
HETATM   11  C   UNL     1      -6.690  16.160  69.155  1.00  0.00    -0.190 C  
HETATM   12  C   UNL     1      -6.914  14.629  71.861  1.00  0.00     2.196 C  
HETATM   13  O   UNL     1      -5.487  16.403  69.152  1.00  0.00    -0.117 OA 
HETATM   14  C   UNL     1      -7.370  14.802  69.001  1.00  0.00    -0.139 C  
HETATM   15  C   UNL     1      -8.385  16.709  67.959  1.00  0.00    -0.187 C  
HETATM   16  O   UNL     1      -7.589  16.513  66.788  1.00  0.00    -0.208 OA 
HETATM   17  H   UNL     1      -7.107  15.713  66.961  1.00  0.00     0.000 HD 
HETATM   18  C   UNL     1      -6.932  14.036  70.440  1.00  0.00     0.474 C  
HETATM   19  O   UNL     1      -8.699  15.415  68.496  1.00  0.00    -0.164 OA 
ENDROOT
BRANCH   8  20
HETATM   20  C   UNL     1      -8.274  17.393  71.591  1.00  0.00    11.048 C  
HETATM   21  C   UNL     1      -6.217  18.705  71.027  1.00  0.00     0.782 C  
HETATM   22  C   UNL     1      -7.438  18.595  71.935  1.00  0.00     6.438 C  
HETATM   23  C   UNL     1      -7.011  18.353  73.386  1.00  0.00     7.492 C  
ENDBRANCH   8  20
BRANCH  14  24
HETATM   24  N   UNL     1      -7.160  13.767  67.999  1.00  0.00    -0.115 N  
HETATM   25  H   UNL     1      -6.578  13.881  67.169  1.00  0.00     0.000 HD 
HETATM   26  O   UNL     1      -8.775  12.675  69.131  1.00  0.00     0.403 OA 
HETATM   27  C   UNL     1      -7.849  12.608  68.312  1.00  0.00    -0.144 C  
BRANCH  27  28
HETATM   28  C   UNL     1      -7.492  11.282  67.650  1.00  0.00    -0.101 C  
HETATM   29  C   UNL     1      -7.385  10.003  68.512  1.00  0.00    -0.077 C  
HETATM   30  N   UNL     1      -7.802   8.840  67.647  1.00  0.00    -0.101 NA 
HETATM   31  C   UNL     1      -9.313   8.825  67.510  1.00  0.00    -0.136 C  
HETATM   32  C   UNL     1      -7.102   7.631  67.994  1.00  0.00    -0.085 C  
HETATM   33  C   UNL     1     -10.001   7.976  66.321  1.00  0.00    -0.116 C  
HETATM   34  C   UNL     1     -10.984   8.790  65.470  1.00  0.00     3.851 A  
HETATM   35  C   UNL     1     -11.521   8.706  64.206  1.00  0.00    13.994 A  
HETATM   36 BR   UNL     1     -11.263   7.319  62.988  1.00  0.00    17.431 Br 
HETATM   37  N   UNL     1     -12.210   9.865  63.921  1.00  0.00     6.759 NA 
HETATM   38  C   UNL     1     -12.142  10.743  64.981  1.00  0.00     2.785 A  
HETATM   39  H   UNL     1     -12.702  10.048  63.047  1.00  0.00     0.000 HD 
HETATM   40  C   UNL     1     -12.475  12.098  65.146  1.00  0.00    -0.009 A  
HETATM   41  C   UNL     1     -12.172  12.701  66.385  1.00  0.00    -0.174 A  
HETATM   42  C   UNL     1     -11.487  12.009  67.374  1.00  0.00    -0.406 A  
HETATM   43  C   UNL     1     -11.015  10.737  67.066  1.00  0.00    -0.292 A  
HETATM   44  C   UNL     1     -11.456  10.042  65.949  1.00  0.00     2.073 A  
HETATM   45  C   UNL     1      -9.667  10.306  67.381  1.00  0.00    -0.189 C  
HETATM   46  C   UNL     1      -8.722  11.087  66.792  1.00  0.00    -0.152 C  
ENDBRANCH  27  28
ENDBRANCH  14  24
TORSDOF 3
ENDMDL
MODEL      169
REMARK 921   NORMALIZED FREE ENERGY PREDICTED BY IDOCK:   73.67 KCAL/MOL
REMARK 922        TOTAL FREE ENERGY PREDICTED BY IDOCK:   87.05 KCAL/MOL
REMARK 923 INTER-LIGAND FREE ENERGY PREDICTED BY IDOCK:   81.43 KCAL/MOL
REMARK 924 INTRA-LIGAND FREE ENERGY PREDICTED BY IDOCK:    5.62 KCAL/MOL
REMARK 927      BINDING AFFINITY PREDICTED BY RF-SCORE:    0.00 PKD
ROOT
HETATM    1  C   UNL     1      -7.875  17.882  66.712  1.00  0.00    -0.232 C  
HETATM    2  C   UNL     1      -6.770  17.834  67.764  1.00  0.00    -0.190 C  
HETATM    3  C   UNL     1      -6.286  19.313  67.834  1.00  0.00    -0.237 C  
HETATM    4  C   UNL     1      -6.941  20.034  66.656  1.00  0.00    -0.227 C  
HETATM    5  N   UNL     1      -7.504  18.982  65.849  1.00  0.00    -0.260 N  
HETATM    6  C   UNL     1      -8.362  19.337  64.839  1.00  0.00     2.611 C  
HETATM    7  O   UNL     1      -8.132  20.292  64.103  1.00  0.00     1.437 OA 
HETATM    8  C   UNL     1      -9.542  18.367  64.638  1.00  0.00     5.101 C  
HETATM    9  N   UNL     1      -9.948  17.470  65.845  1.00  0.00    -0.198 N  
HETATM   10  C   UNL     1     -12.670  14.567  63.991  1.00  0.00     0.285 C  
HETATM   11  C   UNL     1     -10.879  16.452  65.716  1.00  0.00    -0.145 C  
HETATM   12  C   UNL     1     -12.122  16.608  62.861  1.00  0.00     8.186 C  
HETATM   13  O   UNL     1     -11.903  16.356  66.385  1.00  0.00     1.003 OA 
HETATM   14  C   UNL     1     -10.283  15.418  64.764  1.00  0.00     0.058 C  
HETATM   15  C   UNL     1      -8.788  16.719  66.114  1.00  0.00    -0.263 C  
HETATM   16  O   UNL     1      -8.896  15.770  67.178  1.00  0.00    -0.185 OA 
HETATM   17  H   UNL     1      -9.439  15.077  66.821  1.00  0.00     0.000 HD 
HETATM   18  C   UNL     1     -11.423  15.404  63.519  1.00  0.00     1.557 C  
HETATM   19  O   UNL     1      -8.851  15.997  64.875  1.00  0.00     1.406 OA 
ENDROOT
BRANCH   8  20
HETATM   20  C   UNL     1     -10.674  19.093  63.997  1.00  0.00     7.533 C  
HETATM   21  C   UNL     1     -11.831  19.852  66.084  1.00  0.00     2.110 C  
HETATM   22  C   UNL     1     -11.327  20.250  64.700  1.00  0.00     1.944 C  
HETATM   23  C   UNL     1     -12.499  20.629  63.789  1.00  0.00     8.888 C  
ENDBRANCH   8  20
BRANCH  14  24
HETATM   24  N   UNL     1     -10.013  14.004  64.980  1.00  0.00    -0.599 N  
HETATM   25  H   UNL     1      -9.413  13.641  65.721  1.00  0.00     0.000 HD 
HETATM   26  O   UNL     1     -11.086  13.741  63.015  1.00  0.00     1.223 OA 
HETATM   27  C   UNL     1     -10.671  13.213  64.055  1.00  0.00    -0.302 C  
BRANCH  27  28
HETATM   28  C   UNL     1     -10.864  11.721  64.299  1.00  0.00    -0.404 C  
HETATM   29  C   UNL     1     -11.676  10.880  63.286  1.00  0.00     1.398 C  
HETATM   30  N   UNL     1     -11.096   9.488  63.288  1.00  0.00     5.922 NA 
HETATM   31  C   UNL     1      -9.794   9.479  62.508  1.00  0.00     1.090 C  
HETATM   32  C   UNL     1     -12.096   8.487  63.023  1.00  0.00    20.977 C  
HETATM   33  C   UNL     1      -8.754   8.259  62.699  1.00  0.00     0.117 C  
HETATM   34  C   UNL     1      -7.328   8.710  63.038  1.00  0.00    -0.097 A  
HETATM   35  C   UNL     1      -6.218   8.157  63.634  1.00  0.00    -0.071 A  
HETATM   36 BR   UNL     1      -6.039   6.393  64.211  1.00  0.00    -0.027 Br 
HETATM   37  N   UNL     1      -5.271   9.136  63.841  1.00  0.00    -0.059 NA 
HETATM   38  C   UNL     1      -5.730  10.357  63.396  1.00  0.00    -0.147 A  
HETATM   39  H   UNL     1      -4.357   8.979  64.266  1.00  0.00     0.000 HD 
HETATM   40  C   UNL     1      -5.279  11.680  63.544  1.00  0.00     1.649 A  
HETATM   41  C   UNL     1      -6.081  12.709  63.008  1.00  0.00     7.378 A  
HETATM   42  C   UNL     1      -7.316  12.435  62.437  1.00  0.00     3.827 A  
HETATM   43  C   UNL     1      -7.786  11.127  62.504  1.00  0.00     0.010 A  
HETATM   44  C   UNL     1      -6.956  10.066  62.838  1.00  0.00    -0.128 A  
HETATM   45  C   UNL     1      -9.141  10.803  62.905  1.00  0.00    -0.308 C  
HETATM   46  C   UNL     1      -9.434  11.251  64.155  1.00  0.00    -0.200 C  
ENDBRANCH  27  28
ENDBRANCH  14  24
TORSDOF 3
ENDMDL
MODEL      170
REMARK 921   NORMALIZED FREE ENERGY PREDICTED BY IDOCK:   80.26 KCAL/MOL
REMARK 922        TOTAL FREE ENERGY PREDICTED BY IDOCK:   94.81 KCAL/MOL
REMARK 923 INTER-LIGAND FREE ENERGY PREDICTED BY IDOCK:   92.40 KCAL/MOL
REMARK 924 INTRA-LIGAND FREE ENERGY PREDICTED BY IDOCK:    2.41 KCAL/MOL
REMARK 927      BINDING AFFINITY PREDICTED BY RF-SCORE:    0.00 PKD
ROOT
HETATM    1  C   UNL     1     -10.483  15.784  73.117  1.00  0.00     4.099 C  
HETATM    2  C   UNL     1     -11.266  16.306  74.318  1.00  0.00     2.348 C  
HETATM    3  C   UNL     1     -10.657  17.722  74.546  1.00  0.00     4.224 C  
HETATM    4  C   UNL     1      -9.417  17.803  73.657  1.00  0.00    11.662 C  
HETATM    5  N   UNL     1      -9.204  16.454  73.202  1.00  0.00    12.977 N  
HETATM    6  C   UNL     1      -8.295  16.253  72.194  1.00  0.00    11.406 C  
HETATM    7  O   UNL     1      -7.211  16.829  72.178  1.00  0.00     7.219 OA 
HETATM    8  C   UNL     1      -8.697  15.162  71.183  1.00  0.00     3.179 C  
HETATM    9  N   UNL     1     -10.211  14.815  71.066  1.00  0.00     0.900 N  
HETATM   10  C   UNL     1     -10.153  11.117  68.703  1.00  0.00    -0.208 C  
HETATM   11  C   UNL     1     -10.656  13.740  70.315  1.00  0.00     1.209 C  
HETATM   12  C   UNL     1      -8.228  12.541  68.770  1.00  0.00     0.116 C  
HETATM   13  O   UNL     1     -11.468  13.819  69.398  1.00  0.00    -0.265 OA 
HETATM   14  C   UNL     1     -10.112  12.475  70.976  1.00  0.00     7.686 C  
HETATM   15  C   UNL     1     -10.561  14.382  72.360  1.00  0.00     3.515 C  
HETATM   16  O   UNL     1     -11.917  13.962  72.528  1.00  0.00     0.280 OA 
HETATM   17  H   UNL     1     -11.963  13.127  72.077  1.00  0.00     0.000 HD 
HETATM   18  C   UNL     1      -9.185  11.812  69.731  1.00  0.00     1.796 C  
HETATM   19  O   UNL     1      -9.742  13.205  72.291  1.00  0.00    12.438 OA 
ENDROOT
BRANCH   8  20
HETATM   20  C   UNL     1      -8.018  15.419  69.883  1.00  0.00     0.101 C  
HETATM   21  C   UNL     1      -8.460  17.879  69.737  1.00  0.00     1.324 C  
HETATM   22  C   UNL     1      -7.423  16.769  69.592  1.00  0.00     0.326 C  
HETATM   23  C   UNL     1      -6.946  16.664  68.140  1.00  0.00    -0.156 C  
ENDBRANCH   8  20
BRANCH  14  24
HETATM   24  N   UNL     1     -10.827  11.323  71.505  1.00  0.00     2.897 N  
HETATM   25  H   UNL     1     -11.792  11.349  71.836  1.00  0.00     0.000 HD 
HETATM   26  O   UNL     1      -8.809  10.325  71.411  1.00  0.00     1.646 OA 
HETATM   27  C   UNL     1     -10.036  10.189  71.505  1.00  0.00     2.214 C  
BRANCH  27  28
HETATM   28  C   UNL     1     -10.655   8.802  71.637  1.00  0.00    -0.401 C  
HETATM   29  C   UNL     1     -11.950   8.467  70.862  1.00  0.00    -0.181 C  
HETATM   30  N   UNL     1     -11.908   6.998  70.525  1.00  0.00    -0.316 NA 
HETATM   31  C   UNL     1     -10.954   6.771  69.366  1.00  0.00    -0.276 C  
HETATM   32  C   UNL     1     -13.222   6.412  70.497  1.00  0.00     1.999 C  
HETATM   33  C   UNL     1     -10.387   5.287  69.075  1.00  0.00    -0.246 C  
HETATM   34  C   UNL     1      -8.858   5.220  68.975  1.00  0.00    -0.111 A  
HETATM   35  C   UNL     1      -7.888   4.253  69.111  1.00  0.00    -0.057 A  
HETATM   36 BR   UNL     1      -8.175   2.435  69.406  1.00  0.00    -0.072 Br 
HETATM   37  N   UNL     1      -6.644   4.846  69.101  1.00  0.00    -0.043 NA 
HETATM   38  C   UNL     1      -6.759   6.213  68.964  1.00  0.00    -0.060 A  
HETATM   39  H   UNL     1      -5.761   4.343  69.184  1.00  0.00     0.000 HD 
HETATM   40  C   UNL     1      -5.859   7.284  69.096  1.00  0.00    -0.019 A  
HETATM   41  C   UNL     1      -6.373   8.591  68.966  1.00  0.00    -0.044 A  
HETATM   42  C   UNL     1      -7.732   8.817  68.805  1.00  0.00    -0.097 A  
HETATM   43  C   UNL     1      -8.586   7.720  68.881  1.00  0.00    -0.132 A  
HETATM   44  C   UNL     1      -8.113   6.417  68.810  1.00  0.00    -0.114 A  
HETATM   45  C   UNL     1      -9.805   7.731  69.666  1.00  0.00    -0.182 C  
HETATM   46  C   UNL     1      -9.571   7.975  70.983  1.00  0.00    -0.184 C  
ENDBRANCH  27  28
ENDBRANCH  14  24
TORSDOF 3
ENDMDL
MODEL      171
REMARK 921   NORMALIZED FREE ENERGY PREDICTED BY IDOCK:   88.36 KCAL/MOL
REMARK 922        TOTAL FREE ENERGY PREDICTED BY IDOCK:  104.32 KCAL/MOL
REMARK 923 INTER-LIGAND FREE ENERGY PREDICTED BY IDOCK:   89.98 KCAL/MOL
REMARK 924 INTRA-LIGAND FREE ENERGY PREDICTED BY IDOCK:   14.34 KCAL/MOL
REMARK 927      BINDING AFFINITY PREDICTED BY RF-SCORE:    0.00 PKD
ROOT
HETATM    1  C   UNL     1      -9.112  14.529  72.029  1.00  0.00     6.643 C  
HETATM    2  C   UNL     1      -9.792  14.720  73.382  1.00  0.00     6.843 C  
HETATM    3  C   UNL     1      -9.560  16.231  73.682  1.00  0.00    12.943 C  
HETATM    4  C   UNL     1      -8.556  16.725  72.640  1.00  0.00    16.611 C  
HETATM    5  N   UNL     1      -8.066  15.528  72.007  1.00  0.00     5.975 N  
HETATM    6  C   UNL     1      -7.320  15.666  70.864  1.00  0.00     1.981 C  
HETATM    7  O   UNL     1      -6.452  16.527  70.760  1.00  0.00     0.744 OA 
HETATM    8  C   UNL     1      -7.578  14.579  69.802  1.00  0.00     0.162 C  
HETATM    9  N   UNL     1      -8.939  13.824  69.863  1.00  0.00     1.701 N  
HETATM   10  C   UNL     1      -8.285  10.472  67.106  1.00  0.00    -0.123 C  
HETATM   11  C   UNL     1      -9.197  12.722  69.064  1.00  0.00     0.504 C  
HETATM   12  C   UNL     1      -6.833  12.378  67.062  1.00  0.00    -0.006 C  
HETATM   13  O   UNL     1     -10.144  12.631  68.288  1.00  0.00    -0.224 OA 
HETATM   14  C   UNL     1      -8.228  11.623  69.491  1.00  0.00     0.795 C  
HETATM   15  C   UNL     1      -8.935  13.220  71.135  1.00  0.00    10.623 C  
HETATM   16  O   UNL     1     -10.078  12.420  71.445  1.00  0.00     7.166 OA 
HETATM   17  H   UNL     1      -9.973  11.640  70.912  1.00  0.00     0.000 HD 
HETATM   18  C   UNL     1      -7.381  11.340  68.059  1.00  0.00    -0.092 C  
HETATM   19  O   UNL     1      -7.853  12.333  70.815  1.00  0.00     4.004 OA 
ENDROOT
BRANCH   8  20
HETATM   20  C   UNL     1      -7.224  15.110  68.457  1.00  0.00    -0.118 C  
HETATM   21  C   UNL     1      -6.005  13.099  67.595  1.00  0.00    -0.136 C  
HETATM   22  C   UNL     1      -7.046  14.173  67.294  1.00  0.00     0.057 C  
HETATM   23  C   UNL     1      -6.573  15.077  66.151  1.00  0.00     4.390 C  
ENDBRANCH   8  20
BRANCH  14  24
HETATM   24  N   UNL     1      -8.505  10.280  69.981  1.00  0.00    -0.359 N  
HETATM   25  H   UNL     1      -9.443   9.904  70.125  1.00  0.00     0.000 HD 
HETATM   26  O   UNL     1      -6.282  10.211  70.348  1.00  0.00    -0.085 OA 
HETATM   27  C   UNL     1      -7.339   9.578  70.227  1.00  0.00    -0.133 C  
BRANCH  27  28
HETATM   28  C   UNL     1      -7.355   8.060  70.367  1.00  0.00    -0.063 C  
HETATM   29  C   UNL     1      -7.890   7.418  71.668  1.00  0.00    -0.087 C  
HETATM   30  N   UNL     1      -8.511   6.096  71.296  1.00  0.00    -0.124 NA 
HETATM   31  C   UNL     1      -9.867   6.333  70.656  1.00  0.00    -0.184 C  
HETATM   32  C   UNL     1      -8.377   5.122  72.348  1.00  0.00    -0.121 C  
HETATM   33  C   UNL     1     -10.557   5.162  69.784  1.00  0.00    -0.175 C  
HETATM   34  C   UNL     1     -10.988   5.608  68.382  1.00  0.00    -0.038 A  
HETATM   35  C   UNL     1     -11.252   5.001  67.175  1.00  0.00     1.518 A  
HETATM   36 BR   UNL     1     -11.267   3.167  66.843  1.00  0.00     7.866 Br 
HETATM   37  N   UNL     1     -11.406   5.963  66.201  1.00  0.00    -0.524 NA 
HETATM   38  C   UNL     1     -11.245   7.224  66.733  1.00  0.00     0.584 A  
HETATM   39  H   UNL     1     -11.612   5.769  65.221  1.00  0.00     0.000 HD 
HETATM   40  C   UNL     1     -11.096   8.505  66.175  1.00  0.00     2.356 A  
HETATM   41  C   UNL     1     -10.855   9.579  67.057  1.00  0.00    -0.125 A  
HETATM   42  C   UNL     1     -10.679   9.368  68.417  1.00  0.00    -0.213 A  
HETATM   43  C   UNL     1     -10.642   8.053  68.871  1.00  0.00    -0.160 A  
HETATM   44  C   UNL     1     -11.067   6.994  68.080  1.00  0.00    -0.097 A  
HETATM   45  C   UNL     1      -9.632   7.571  69.792  1.00  0.00    -0.163 C  
HETATM   46  C   UNL     1      -8.372   7.716  69.302  1.00  0.00    -0.134 C  
ENDBRANCH  27  28
ENDBRANCH  14  24
TORSDOF 3
ENDMDL
MODEL      172
REMARK 921   NORMALIZED FREE ENERGY PREDICTED BY IDOCK:   92.48 KCAL/MOL
REMARK 922        TOTAL FREE ENERGY PREDICTED BY IDOCK:  109.17 KCAL/MOL
REMARK 923 INTER-LIGAND FREE ENERGY PREDICTED BY IDOCK:  101.28 KCAL/MOL
REMARK 924 INTRA-LIGAND FREE ENERGY PREDICTED BY IDOCK:    7.88 KCAL/MOL
REMARK 927      BINDING AFFINITY PREDICTED BY RF-SCORE:    0.00 PKD
ROOT
HETATM    1  C   UNL     1      -8.156   4.033  69.342  1.00  0.00    -0.055 C  
HETATM    2  C   UNL     1      -7.095   3.661  70.374  1.00  0.00    -0.037 C  
HETATM    3  C   UNL     1      -7.097   2.103  70.335  1.00  0.00    -0.033 C  
HETATM    4  C   UNL     1      -8.315   1.697  69.507  1.00  0.00    -0.045 C  
HETATM    5  N   UNL     1      -9.071   2.912  69.347  1.00  0.00    -0.119 N  
HETATM    6  C   UNL     1     -10.105   2.911  68.445  1.00  0.00     1.047 C  
HETATM    7  O   UNL     1     -10.887   1.969  68.361  1.00  0.00     3.354 OA 
HETATM    8  C   UNL     1     -10.266   4.227  67.661  1.00  0.00     0.200 C  
HETATM    9  N   UNL     1      -9.018   5.153  67.548  1.00  0.00    -0.109 N  
HETATM   10  C   UNL     1     -10.743   8.879  65.996  1.00  0.00     1.114 C  
HETATM   11  C   UNL     1      -9.103   6.428  67.013  1.00  0.00    -0.127 C  
HETATM   12  C   UNL     1     -11.971   6.827  65.859  1.00  0.00     5.379 C  
HETATM   13  O   UNL     1      -8.438   6.830  66.063  1.00  0.00    -0.131 OA 
HETATM   14  C   UNL     1      -9.996   7.246  67.942  1.00  0.00    -0.158 C  
HETATM   15  C   UNL     1      -8.702   5.460  68.885  1.00  0.00    -0.097 C  
HETATM   16  O   UNL     1      -7.592   6.341  69.073  1.00  0.00    -0.091 OA 
HETATM   17  H   UNL     1      -7.917   7.191  68.801  1.00  0.00     0.000 HD 
HETATM   18  C   UNL     1     -11.247   7.696  66.903  1.00  0.00     0.673 C  
HETATM   19  O   UNL     1      -9.903   6.217  69.096  1.00  0.00    -0.139 OA 
ENDROOT
BRANCH   8  20
HETATM   20  C   UNL     1     -10.952   3.952  66.368  1.00  0.00     2.270 C  
HETATM   21  C   UNL     1      -9.272   2.359  65.412  1.00  0.00    -0.081 C  
HETATM   22  C   UNL     1     -10.751   2.636  65.668  1.00  0.00     2.677 C  
HETATM   23  C   UNL     1     -11.507   2.795  64.346  1.00  0.00     2.025 C  
ENDBRANCH   8  20
BRANCH  14  24
HETATM   24  N   UNL     1      -9.705   8.477  68.663  1.00  0.00    -0.160 N  
HETATM   25  H   UNL     1      -9.051   8.544  69.443  1.00  0.00     0.000 HD 
HETATM   26  O   UNL     1     -11.421   9.308  67.460  1.00  0.00     0.498 OA 
HETATM   27  C   UNL     1     -10.426   9.544  68.158  1.00  0.00    -0.223 C  
BRANCH  27  28
HETATM   28  C   UNL     1     -10.021  10.980  68.471  1.00  0.00    -0.198 C  
HETATM   29  C   UNL     1     -11.105  12.014  68.853  1.00  0.00    -0.247 C  
HETATM   30  N   UNL     1     -10.475  12.997  69.807  1.00  0.00     0.746 NA 
HETATM   31  C   UNL     1     -10.355  12.365  71.181  1.00  0.00     7.119 C  
HETATM   32  C   UNL     1     -11.037  14.316  69.671  1.00  0.00    -0.175 C  
HETATM   33  C   UNL     1      -9.350  13.005  72.271  1.00  0.00    18.711 C  
HETATM   34  C   UNL     1      -8.368  11.993  72.875  1.00  0.00    22.333 A  
HETATM   35  C   UNL     1      -7.146  12.037  73.506  1.00  0.00    10.237 A  
HETATM   36 BR   UNL     1      -6.207  13.574  73.984  1.00  0.00     1.373 Br 
HETATM   37  N   UNL     1      -6.655  10.757  73.648  1.00  0.00     2.887 NA 
HETATM   38  C   UNL     1      -7.533   9.839  73.113  1.00  0.00     2.912 A  
HETATM   39  H   UNL     1      -5.765  10.522  74.087  1.00  0.00     0.000 HD 
HETATM   40  C   UNL     1      -7.444   8.470  72.810  1.00  0.00    -0.056 A  
HETATM   41  C   UNL     1      -8.547   7.868  72.167  1.00  0.00    -0.185 A  
HETATM   42  C   UNL     1      -9.642   8.619  71.765  1.00  0.00    -0.360 A  
HETATM   43  C   UNL     1      -9.574  10.001  71.919  1.00  0.00     3.323 A  
HETATM   44  C   UNL     1      -8.609  10.602  72.715  1.00  0.00    11.846 A  
HETATM   45  C   UNL     1      -9.954  10.925  70.868  1.00  0.00     2.987 C  
HETATM   46  C   UNL     1      -9.223  10.750  69.735  1.00  0.00     0.397 C  
ENDBRANCH  27  28
ENDBRANCH  14  24
TORSDOF 3
ENDMDL
MODEL      173
REMARK 921   NORMALIZED FREE ENERGY PREDICTED BY IDOCK:  111.69 KCAL/MOL
REMARK 922        TOTAL FREE ENERGY PREDICTED BY IDOCK:  131.74 KCAL/MOL
REMARK 923 INTER-LIGAND FREE ENERGY PREDICTED BY IDOCK:  118.08 KCAL/MOL
REMARK 924 INTRA-LIGAND FREE ENERGY PREDICTED BY IDOCK:   13.67 KCAL/MOL
REMARK 927      BINDING AFFINITY PREDICTED BY RF-SCORE:    0.00 PKD
ROOT
HETATM    1  C   UNL     1     -11.813  18.055  72.258  1.00  0.00     4.241 C  
HETATM    2  C   UNL     1     -13.251  18.428  72.609  1.00  0.00    13.815 C  
HETATM    3  C   UNL     1     -13.089  19.780  73.366  1.00  0.00    20.198 C  
HETATM    4  C   UNL     1     -11.593  19.948  73.628  1.00  0.00     9.519 C  
HETATM    5  N   UNL     1     -11.018  18.669  73.299  1.00  0.00     1.877 N  
HETATM    6  C   UNL     1      -9.651  18.584  73.211  1.00  0.00     7.853 C  
HETATM    7  O   UNL     1      -8.916  19.125  74.032  1.00  0.00     3.984 OA 
HETATM    8  C   UNL     1      -9.143  17.657  72.090  1.00  0.00    13.469 C  
HETATM    9  N   UNL     1     -10.107  17.374  70.900  1.00  0.00     2.480 N  
HETATM   10  C   UNL     1      -8.122  14.040  68.847  1.00  0.00    -0.001 C  
HETATM   11  C   UNL     1      -9.813  16.427  69.933  1.00  0.00     0.227 C  
HETATM   12  C   UNL     1      -6.916  15.385  70.421  1.00  0.00     0.334 C  
HETATM   13  O   UNL     1      -9.752  16.656  68.729  1.00  0.00    -0.236 OA 
HETATM   14  C   UNL     1      -9.792  15.068  70.628  1.00  0.00     0.855 C  
HETATM   15  C   UNL     1     -11.228  16.775  71.507  1.00  0.00     0.524 C  
HETATM   16  O   UNL     1     -12.275  16.376  70.619  1.00  0.00    -0.352 OA 
HETATM   17  H   UNL     1     -11.927  15.613  70.172  1.00  0.00     0.000 HD 
HETATM   18  C   UNL     1      -8.211  14.557  70.331  1.00  0.00     1.542 C  
HETATM   19  O   UNL     1     -10.509  15.596  71.895  1.00  0.00     0.652 OA 
ENDROOT
BRANCH   8  20
HETATM   20  C   UNL     1      -7.770  18.072  71.690  1.00  0.00     8.784 C  
HETATM   21  C   UNL     1      -8.002  17.717  69.222  1.00  0.00     0.171 C  
HETATM   22  C   UNL     1      -7.521  18.655  70.326  1.00  0.00     1.548 C  
HETATM   23  C   UNL     1      -6.001  18.827  70.263  1.00  0.00    -0.144 C  
ENDBRANCH   8  20
BRANCH  14  24
HETATM   24  N   UNL     1     -10.581  13.874  70.357  1.00  0.00     0.404 N  
HETATM   25  H   UNL     1     -11.522  13.886  69.964  1.00  0.00     0.000 HD 
HETATM   26  O   UNL     1      -8.928  12.817  71.467  1.00  0.00    13.969 OA 
HETATM   27  C   UNL     1      -9.895  12.723  70.700  1.00  0.00     6.122 C  
BRANCH  27  28
HETATM   28  C   UNL     1     -10.332  11.364  70.165  1.00  0.00     1.149 C  
HETATM   29  C   UNL     1     -11.566  11.268  69.239  1.00  0.00    -0.322 C  
HETATM   30  N   UNL     1     -11.331  10.120  68.290  1.00  0.00    -0.186 NA 
HETATM   31  C   UNL     1     -10.346  10.543  67.215  1.00  0.00    -0.228 C  
HETATM   32  C   UNL     1     -12.559   9.466  67.920  1.00  0.00     7.188 C  
HETATM   33  C   UNL     1      -9.589   9.421  66.335  1.00  0.00    -0.285 C  
HETATM   34  C   UNL     1      -8.064   9.576  66.315  1.00  0.00    -0.111 A  
HETATM   35  C   UNL     1      -6.978   8.766  66.073  1.00  0.00    -0.080 A  
HETATM   36 BR   UNL     1      -7.031   6.989  65.513  1.00  0.00    -0.057 Br 
HETATM   37  N   UNL     1      -5.821   9.436  66.408  1.00  0.00    -0.057 NA 
HETATM   38  C   UNL     1      -6.110  10.697  66.882  1.00  0.00    -0.065 A  
HETATM   39  H   UNL     1      -4.881   9.051  66.317  1.00  0.00     0.000 HD 
HETATM   40  C   UNL     1      -5.358  11.689  67.533  1.00  0.00    -0.068 A  
HETATM   41  C   UNL     1      -6.035  12.850  67.962  1.00  0.00    -0.107 A  
HETATM   42  C   UNL     1      -7.411  12.970  67.829  1.00  0.00    -0.139 A  
HETATM   43  C   UNL     1      -8.117  11.868  67.356  1.00  0.00    -0.165 A  
HETATM   44  C   UNL     1      -7.478  10.796  66.746  1.00  0.00    -0.129 A  
HETATM   45  C   UNL     1      -9.333  11.390  67.984  1.00  0.00    -0.171 C  
HETATM   46  C   UNL     1      -9.144  11.043  69.285  1.00  0.00     0.074 C  
ENDBRANCH  27  28
ENDBRANCH  14  24
TORSDOF 3
ENDMDL
