MODEL        1
REMARK 921   NORMALIZED FREE ENERGY PREDICTED BY IDOCK:   -6.70 KCAL/MOL
REMARK 922        TOTAL FREE ENERGY PREDICTED BY IDOCK:   -7.65 KCAL/MOL
REMARK 923 INTER-LIGAND FREE ENERGY PREDICTED BY IDOCK:   -7.49 KCAL/MOL
REMARK 924 INTRA-LIGAND FREE ENERGY PREDICTED BY IDOCK:   -0.16 KCAL/MOL
REMARK 927      BINDING AFFINITY PREDICTED BY RF-SCORE:    0.00 PKD
ROOT
HETATM    1  C   UNL     1     -10.076  19.763  68.219  1.00  0.00    -0.458 C  
HETATM    2  N   UNL     1     -10.805  18.815  67.373  1.00  0.00    -0.423 NA 
HETATM    3  C   UNL     1     -10.534  19.110  65.963  1.00  0.00    -0.467 C  
ENDROOT
BRANCH   2   4
HETATM    4  C   UNL     1     -10.429  17.417  67.656  1.00  0.00    -0.368 C  
BRANCH   4   5
HETATM    5  C   UNL     1     -10.770  16.923  69.067  1.00  0.00    -0.308 C  
HETATM    6  C   UNL     1     -11.910  15.878  69.140  1.00  0.00    -0.340 C  
HETATM    7  C   UNL     1     -11.547  14.590  68.405  1.00  0.00    -0.356 A  
HETATM    8  C   UNL     1     -12.337  15.660  70.594  1.00  0.00    -0.413 A  
HETATM    9  C   UNL     1     -10.442  13.814  68.788  1.00  0.00    -0.224 A  
HETATM   10  C   UNL     1     -13.643  15.267  70.887  1.00  0.00    -0.402 A  
HETATM   11  C   UNL     1     -14.047  15.205  72.221  1.00  0.00    -0.633 A  
HETATM   12  C   UNL     1     -10.043  12.715  68.021  1.00  0.00    -0.229 A  
HETATM   13  C   UNL     1     -13.142  15.525  73.225  1.00  0.00    -0.658 A  
HETATM   14  C   UNL     1     -10.754  12.374  66.873  1.00  0.00    -0.240 A  
HETATM   15  C   UNL     1     -11.856  15.872  72.856  1.00  0.00    -0.460 A  
HETATM   16  C   UNL     1     -11.878  13.107  66.499  1.00  0.00    -0.456 A  
HETATM   17 BR   UNL     1     -10.170  10.933  65.797  1.00  0.00    -0.315 Br 
HETATM   18  N   UNL     1     -11.436  15.934  71.574  1.00  0.00    -0.422 NA 
HETATM   19  C   UNL     1     -12.273  14.208  67.262  1.00  0.00    -0.314 A  
ENDBRANCH   4   5
ENDBRANCH   2   4
TORSDOF 2
ENDMDL
MODEL        2
REMARK 921   NORMALIZED FREE ENERGY PREDICTED BY IDOCK:   -6.44 KCAL/MOL
REMARK 922        TOTAL FREE ENERGY PREDICTED BY IDOCK:   -7.35 KCAL/MOL
REMARK 923 INTER-LIGAND FREE ENERGY PREDICTED BY IDOCK:   -6.90 KCAL/MOL
REMARK 924 INTRA-LIGAND FREE ENERGY PREDICTED BY IDOCK:   -0.46 KCAL/MOL
REMARK 927      BINDING AFFINITY PREDICTED BY RF-SCORE:    0.00 PKD
ROOT
HETATM    1  C   UNL     1     -12.271  13.997  66.217  1.00  0.00    -0.462 C  
HETATM    2  N   UNL     1     -10.912  13.476  66.391  1.00  0.00    -0.292 NA 
HETATM    3  C   UNL     1      -9.948  14.423  65.824  1.00  0.00    -0.329 C  
ENDROOT
BRANCH   2   4
HETATM    4  C   UNL     1     -10.585  13.245  67.811  1.00  0.00    -0.241 C  
BRANCH   4   5
HETATM    5  C   UNL     1     -11.554  13.881  68.815  1.00  0.00    -0.370 C  
HETATM    6  C   UNL     1     -10.911  14.888  69.801  1.00  0.00    -0.280 C  
HETATM    7  C   UNL     1     -10.327  16.097  69.077  1.00  0.00    -0.258 A  
HETATM    8  C   UNL     1     -11.904  15.251  70.909  1.00  0.00    -0.341 A  
HETATM    9  C   UNL     1     -11.133  16.949  68.305  1.00  0.00    -0.213 A  
HETATM   10  C   UNL     1     -11.437  15.629  72.169  1.00  0.00    -0.479 A  
HETATM   11  C   UNL     1     -12.356  15.826  73.199  1.00  0.00    -0.591 A  
HETATM   12  C   UNL     1     -10.561  17.969  67.538  1.00  0.00    -0.402 A  
HETATM   13  C   UNL     1     -13.712  15.651  72.949  1.00  0.00    -0.628 A  
HETATM   14  C   UNL     1      -9.181  18.155  67.548  1.00  0.00    -0.257 A  
HETATM   15  C   UNL     1     -14.098  15.310  71.666  1.00  0.00    -0.541 A  
HETATM   16  C   UNL     1      -8.368  17.347  68.339  1.00  0.00    -0.263 A  
HETATM   17 BR   UNL     1      -8.403  19.486  66.454  1.00  0.00    -0.378 Br 
HETATM   18  N   UNL     1     -13.231  15.120  70.648  1.00  0.00    -0.349 NA 
HETATM   19  C   UNL     1      -8.939  16.324  69.100  1.00  0.00    -0.219 A  
ENDBRANCH   4   5
ENDBRANCH   2   4
TORSDOF 2
ENDMDL
MODEL        3
REMARK 921   NORMALIZED FREE ENERGY PREDICTED BY IDOCK:   -6.26 KCAL/MOL
REMARK 922        TOTAL FREE ENERGY PREDICTED BY IDOCK:   -7.16 KCAL/MOL
REMARK 923 INTER-LIGAND FREE ENERGY PREDICTED BY IDOCK:   -6.97 KCAL/MOL
REMARK 924 INTRA-LIGAND FREE ENERGY PREDICTED BY IDOCK:   -0.18 KCAL/MOL
REMARK 927      BINDING AFFINITY PREDICTED BY RF-SCORE:    0.00 PKD
ROOT
HETATM    1  C   UNL     1     -13.817  14.739  71.736  1.00  0.00    -0.450 C  
HETATM    2  N   UNL     1     -12.992  15.842  72.237  1.00  0.00    -0.442 NA 
HETATM    3  C   UNL     1     -12.539  15.537  73.597  1.00  0.00    -0.582 C  
ENDROOT
BRANCH   2   4
HETATM    4  C   UNL     1     -11.816  16.087  71.380  1.00  0.00    -0.470 C  
BRANCH   4   5
HETATM    5  C   UNL     1     -11.537  15.004  70.330  1.00  0.00    -0.330 C  
HETATM    6  C   UNL     1     -11.472  15.508  68.867  1.00  0.00    -0.362 C  
HETATM    7  C   UNL     1     -10.325  16.492  68.656  1.00  0.00    -0.287 A  
HETATM    8  C   UNL     1     -11.455  14.322  67.899  1.00  0.00    -0.315 A  
HETATM    9  C   UNL     1      -8.989  16.119  68.875  1.00  0.00    -0.247 A  
HETATM   10  C   UNL     1     -11.973  14.463  66.611  1.00  0.00    -0.414 A  
HETATM   11  C   UNL     1     -12.068  13.338  65.794  1.00  0.00    -0.491 A  
HETATM   12  C   UNL     1      -7.965  17.069  68.812  1.00  0.00    -0.248 A  
HETATM   13  C   UNL     1     -11.640  12.106  66.273  1.00  0.00    -0.424 A  
HETATM   14  C   UNL     1      -8.266  18.396  68.514  1.00  0.00    -0.318 A  
HETATM   15  C   UNL     1     -11.107  12.054  67.547  1.00  0.00    -0.275 A  
HETATM   16  C   UNL     1      -9.579  18.778  68.253  1.00  0.00    -0.395 A  
HETATM   17 BR   UNL     1      -6.889  19.692  68.501  1.00  0.00    -0.347 Br 
HETATM   18  N   UNL     1     -10.995  13.127  68.358  1.00  0.00    -0.251 NA 
HETATM   19  C   UNL     1     -10.603  17.830  68.323  1.00  0.00    -0.325 A  
ENDBRANCH   4   5
ENDBRANCH   2   4
TORSDOF 2
ENDMDL
MODEL        4
REMARK 921   NORMALIZED FREE ENERGY PREDICTED BY IDOCK:   -5.92 KCAL/MOL
REMARK 922        TOTAL FREE ENERGY PREDICTED BY IDOCK:   -6.77 KCAL/MOL
REMARK 923 INTER-LIGAND FREE ENERGY PREDICTED BY IDOCK:   -6.38 KCAL/MOL
REMARK 924 INTRA-LIGAND FREE ENERGY PREDICTED BY IDOCK:   -0.39 KCAL/MOL
REMARK 927      BINDING AFFINITY PREDICTED BY RF-SCORE:    0.00 PKD
ROOT
HETATM    1  C   UNL     1     -10.259  18.637  68.208  1.00  0.00    -0.380 C  
HETATM    2  N   UNL     1     -10.539  18.564  66.772  1.00  0.00    -0.385 NA 
HETATM    3  C   UNL     1     -10.314  19.878  66.162  1.00  0.00    -0.494 C  
ENDROOT
BRANCH   2   4
HETATM    4  C   UNL     1      -9.694  17.565  66.092  1.00  0.00    -0.209 C  
BRANCH   4   5
HETATM    5  C   UNL     1     -10.446  16.360  65.514  1.00  0.00    -0.349 C  
HETATM    6  C   UNL     1     -10.139  15.004  66.196  1.00  0.00    -0.312 C  
HETATM    7  C   UNL     1     -10.561  14.998  67.663  1.00  0.00    -0.267 A  
HETATM    8  C   UNL     1     -10.732  13.853  65.378  1.00  0.00    -0.325 A  
HETATM    9  C   UNL     1     -11.898  15.197  68.042  1.00  0.00    -0.225 A  
HETATM   10  C   UNL     1     -10.140  12.590  65.418  1.00  0.00    -0.284 A  
HETATM   11  C   UNL     1     -10.615  11.594  64.565  1.00  0.00    -0.373 A  
HETATM   12  C   UNL     1     -12.244  15.326  69.391  1.00  0.00    -0.247 A  
HETATM   13  C   UNL     1     -11.667  11.876  63.704  1.00  0.00    -0.572 A  
HETATM   14  C   UNL     1     -11.259  15.244  70.371  1.00  0.00    -0.299 A  
HETATM   15  C   UNL     1     -12.223  13.140  63.747  1.00  0.00    -0.456 A  
HETATM   16  C   UNL     1      -9.933  15.006  70.018  1.00  0.00     0.033 A  
HETATM   17 BR   UNL     1     -11.718  15.492  72.189  1.00  0.00    -0.596 Br 
HETATM   18  N   UNL     1     -11.789  14.122  64.567  1.00  0.00    -0.419 NA 
HETATM   19  C   UNL     1      -9.586  14.883  68.671  1.00  0.00    -0.222 A  
ENDBRANCH   4   5
ENDBRANCH   2   4
TORSDOF 2
ENDMDL
MODEL        5
REMARK 921   NORMALIZED FREE ENERGY PREDICTED BY IDOCK:   -5.92 KCAL/MOL
REMARK 922        TOTAL FREE ENERGY PREDICTED BY IDOCK:   -6.77 KCAL/MOL
REMARK 923 INTER-LIGAND FREE ENERGY PREDICTED BY IDOCK:   -6.61 KCAL/MOL
REMARK 924 INTRA-LIGAND FREE ENERGY PREDICTED BY IDOCK:   -0.16 KCAL/MOL
REMARK 927      BINDING AFFINITY PREDICTED BY RF-SCORE:    0.00 PKD
ROOT
HETATM    1  C   UNL     1     -12.062  14.824  64.500  1.00  0.00    -0.446 C  
HETATM    2  N   UNL     1     -12.575  13.452  64.538  1.00  0.00    -0.643 NA 
HETATM    3  C   UNL     1     -12.116  12.724  63.352  1.00  0.00    -0.534 C  
ENDROOT
BRANCH   2   4
HETATM    4  C   UNL     1     -12.138  12.730  65.747  1.00  0.00    -0.448 C  
BRANCH   4   5
HETATM    5  C   UNL     1     -11.811  13.618  66.955  1.00  0.00    -0.451 C  
HETATM    6  C   UNL     1     -11.876  12.908  68.329  1.00  0.00    -0.372 C  
HETATM    7  C   UNL     1     -10.843  11.789  68.438  1.00  0.00    -0.260 A  
HETATM    8  C   UNL     1     -11.795  13.935  69.461  1.00  0.00    -0.329 A  
HETATM    9  C   UNL     1      -9.467  12.048  68.330  1.00  0.00    -0.199 A  
HETATM   10  C   UNL     1     -12.393  13.667  70.693  1.00  0.00    -0.440 A  
HETATM   11  C   UNL     1     -12.423  14.669  71.662  1.00  0.00    -0.410 A  
HETATM   12  C   UNL     1      -8.545  10.997  68.294  1.00  0.00    -0.143 A  
HETATM   13  C   UNL     1     -11.851  15.905  71.386  1.00  0.00    -0.524 A  
HETATM   14  C   UNL     1      -8.989   9.680  68.381  1.00  0.00    -0.123 A  
HETATM   15  C   UNL     1     -11.247  16.082  70.156  1.00  0.00    -0.373 A  
HETATM   16  C   UNL     1     -10.346   9.404  68.531  1.00  0.00    -0.236 A  
HETATM   17 BR   UNL     1      -7.748   8.259  68.258  1.00  0.00    -0.107 Br 
HETATM   18  N   UNL     1     -11.197  15.128  69.201  1.00  0.00    -0.261 NA 
HETATM   19  C   UNL     1     -11.267  10.453  68.560  1.00  0.00    -0.308 A  
ENDBRANCH   4   5
ENDBRANCH   2   4
TORSDOF 2
ENDMDL
MODEL        6
REMARK 921   NORMALIZED FREE ENERGY PREDICTED BY IDOCK:   -5.87 KCAL/MOL
REMARK 922        TOTAL FREE ENERGY PREDICTED BY IDOCK:   -6.72 KCAL/MOL
REMARK 923 INTER-LIGAND FREE ENERGY PREDICTED BY IDOCK:   -6.55 KCAL/MOL
REMARK 924 INTRA-LIGAND FREE ENERGY PREDICTED BY IDOCK:   -0.17 KCAL/MOL
REMARK 927      BINDING AFFINITY PREDICTED BY RF-SCORE:    0.00 PKD
ROOT
HETATM    1  C   UNL     1     -13.412  13.115  72.101  1.00  0.00    -0.560 C  
HETATM    2  N   UNL     1     -13.397  14.092  71.009  1.00  0.00    -0.279 NA 
HETATM    3  C   UNL     1     -13.942  15.367  71.484  1.00  0.00    -0.501 C  
ENDROOT
BRANCH   2   4
HETATM    4  C   UNL     1     -12.036  14.315  70.484  1.00  0.00    -0.343 C  
BRANCH   4   5
HETATM    5  C   UNL     1     -11.743  13.652  69.131  1.00  0.00    -0.376 C  
HETATM    6  C   UNL     1     -11.751  14.611  67.915  1.00  0.00    -0.379 C  
HETATM    7  C   UNL     1     -10.657  15.671  68.021  1.00  0.00    -0.271 A  
HETATM    8  C   UNL     1     -11.712  13.811  66.610  1.00  0.00    -0.394 A  
HETATM    9  C   UNL     1      -9.299  15.319  68.082  1.00  0.00    -0.198 A  
HETATM   10  C   UNL     1     -12.278  14.338  65.449  1.00  0.00    -0.408 A  
HETATM   11  C   UNL     1     -12.350  13.539  64.309  1.00  0.00    -0.392 A  
HETATM   12  C   UNL     1      -8.322  16.291  68.318  1.00  0.00    -0.185 A  
HETATM   13  C   UNL     1     -11.850  12.244  64.349  1.00  0.00    -0.464 A  
HETATM   14  C   UNL     1      -8.693  17.624  68.479  1.00  0.00    -0.285 A  
HETATM   15  C   UNL     1     -11.273  11.806  65.525  1.00  0.00    -0.258 A  
HETATM   16  C   UNL     1     -10.030  17.998  68.380  1.00  0.00    -0.382 A  
HETATM   17 BR   UNL     1      -7.378  18.925  68.870  1.00  0.00    -0.319 Br 
HETATM   18  N   UNL     1     -11.183  12.558  66.642  1.00  0.00    -0.290 NA 
HETATM   19  C   UNL     1     -11.007  17.027  68.151  1.00  0.00    -0.263 A  
ENDBRANCH   4   5
ENDBRANCH   2   4
TORSDOF 2
ENDMDL
MODEL        7
REMARK 921   NORMALIZED FREE ENERGY PREDICTED BY IDOCK:   -5.87 KCAL/MOL
REMARK 922        TOTAL FREE ENERGY PREDICTED BY IDOCK:   -6.71 KCAL/MOL
REMARK 923 INTER-LIGAND FREE ENERGY PREDICTED BY IDOCK:   -6.46 KCAL/MOL
REMARK 924 INTRA-LIGAND FREE ENERGY PREDICTED BY IDOCK:   -0.25 KCAL/MOL
REMARK 927      BINDING AFFINITY PREDICTED BY RF-SCORE:    0.00 PKD
ROOT
HETATM    1  C   UNL     1     -10.357  12.421  63.781  1.00  0.00    -0.425 C  
HETATM    2  N   UNL     1     -11.683  12.958  63.464  1.00  0.00    -0.514 NA 
HETATM    3  C   UNL     1     -12.653  11.861  63.397  1.00  0.00    -0.431 C  
ENDROOT
BRANCH   2   4
HETATM    4  C   UNL     1     -12.136  13.943  64.465  1.00  0.00    -0.443 C  
BRANCH   4   5
HETATM    5  C   UNL     1     -11.062  14.930  64.940  1.00  0.00    -0.424 C  
HETATM    6  C   UNL     1     -11.132  15.305  66.441  1.00  0.00    -0.273 C  
HETATM    7  C   UNL     1     -10.903  14.091  67.339  1.00  0.00    -0.288 A  
HETATM    8  C   UNL     1     -10.195  16.479  66.738  1.00  0.00    -0.295 A  
HETATM    9  C   UNL     1      -9.703  13.363  67.295  1.00  0.00    -0.232 A  
HETATM   10  C   UNL     1     -10.482  17.353  67.787  1.00  0.00    -0.376 A  
HETATM   11  C   UNL     1      -9.691  18.489  67.955  1.00  0.00    -0.354 A  
HETATM   12  C   UNL     1      -9.563  12.177  68.022  1.00  0.00    -0.204 A  
HETATM   13  C   UNL     1      -8.634  18.722  67.085  1.00  0.00    -0.287 A  
HETATM   14  C   UNL     1     -10.616  11.717  68.810  1.00  0.00    -0.212 A  
HETATM   15  C   UNL     1      -8.393  17.792  66.092  1.00  0.00    -0.136 A  
HETATM   16  C   UNL     1     -11.798  12.447  68.899  1.00  0.00    -0.350 A  
HETATM   17 BR   UNL     1     -10.452  10.075  69.734  1.00  0.00    -0.313 Br 
HETATM   18  N   UNL     1      -9.137  16.680  65.909  1.00  0.00    -0.511 NA 
HETATM   19  C   UNL     1     -11.940  13.628  68.168  1.00  0.00    -0.390 A  
ENDBRANCH   4   5
ENDBRANCH   2   4
TORSDOF 2
ENDMDL
MODEL        8
REMARK 921   NORMALIZED FREE ENERGY PREDICTED BY IDOCK:   -5.83 KCAL/MOL
REMARK 922        TOTAL FREE ENERGY PREDICTED BY IDOCK:   -6.67 KCAL/MOL
REMARK 923 INTER-LIGAND FREE ENERGY PREDICTED BY IDOCK:   -6.49 KCAL/MOL
REMARK 924 INTRA-LIGAND FREE ENERGY PREDICTED BY IDOCK:   -0.19 KCAL/MOL
REMARK 927      BINDING AFFINITY PREDICTED BY RF-SCORE:    0.00 PKD
ROOT
HETATM    1  C   UNL     1     -11.673  15.989  71.677  1.00  0.00    -0.506 C  
HETATM    2  N   UNL     1     -12.266  14.807  71.045  1.00  0.00    -0.306 NA 
HETATM    3  C   UNL     1     -13.722  14.844  71.206  1.00  0.00    -0.435 C  
ENDROOT
BRANCH   2   4
HETATM    4  C   UNL     1     -11.940  14.726  69.609  1.00  0.00    -0.316 C  
BRANCH   4   5
HETATM    5  C   UNL     1     -11.594  16.063  68.941  1.00  0.00    -0.354 C  
HETATM    6  C   UNL     1     -10.293  16.061  68.101  1.00  0.00    -0.260 C  
HETATM    7  C   UNL     1     -10.384  15.101  66.918  1.00  0.00    -0.272 A  
HETATM    8  C   UNL     1      -9.913  17.492  67.709  1.00  0.00    -0.312 A  
HETATM    9  C   UNL     1     -11.354  15.262  65.916  1.00  0.00    -0.172 A  
HETATM   10  C   UNL     1      -8.576  17.825  67.492  1.00  0.00    -0.228 A  
HETATM   11  C   UNL     1      -8.240  19.160  67.268  1.00  0.00    -0.299 A  
HETATM   12  C   UNL     1     -11.512  14.298  64.915  1.00  0.00    -0.378 A  
HETATM   13  C   UNL     1      -9.240  20.124  67.257  1.00  0.00    -0.504 A  
HETATM   14  C   UNL     1     -10.691  13.173  64.900  1.00  0.00    -0.346 A  
HETATM   15  C   UNL     1     -10.545  19.710  67.446  1.00  0.00    -0.460 A  
HETATM   16  C   UNL     1      -9.695  13.016  65.860  1.00  0.00    -0.187 A  
HETATM   17 BR   UNL     1     -10.953  11.836  63.589  1.00  0.00    -0.528 Br 
HETATM   18  N   UNL     1     -10.901  18.425  67.658  1.00  0.00    -0.352 NA 
HETATM   19  C   UNL     1      -9.542  13.976  66.863  1.00  0.00    -0.275 A  
ENDBRANCH   4   5
ENDBRANCH   2   4
TORSDOF 2
ENDMDL
MODEL        9
REMARK 921   NORMALIZED FREE ENERGY PREDICTED BY IDOCK:   -5.83 KCAL/MOL
REMARK 922        TOTAL FREE ENERGY PREDICTED BY IDOCK:   -6.67 KCAL/MOL
REMARK 923 INTER-LIGAND FREE ENERGY PREDICTED BY IDOCK:   -6.49 KCAL/MOL
REMARK 924 INTRA-LIGAND FREE ENERGY PREDICTED BY IDOCK:   -0.17 KCAL/MOL
REMARK 927      BINDING AFFINITY PREDICTED BY RF-SCORE:    0.00 PKD
ROOT
HETATM    1  C   UNL     1     -12.977  15.531  71.192  1.00  0.00    -0.496 C  
HETATM    2  N   UNL     1     -11.867  14.851  70.519  1.00  0.00    -0.284 NA 
HETATM    3  C   UNL     1     -12.201  13.437  70.329  1.00  0.00    -0.335 C  
ENDROOT
BRANCH   2   4
HETATM    4  C   UNL     1     -11.560  15.456  69.209  1.00  0.00    -0.339 C  
BRANCH   4   5
HETATM    5  C   UNL     1     -11.345  14.458  68.064  1.00  0.00    -0.316 C  
HETATM    6  C   UNL     1     -11.341  15.077  66.645  1.00  0.00    -0.289 C  
HETATM    7  C   UNL     1     -10.190  16.063  66.459  1.00  0.00    -0.301 A  
HETATM    8  C   UNL     1     -11.386  13.972  65.585  1.00  0.00    -0.313 A  
HETATM    9  C   UNL     1      -8.851  15.658  66.584  1.00  0.00    -0.327 A  
HETATM   10  C   UNL     1     -11.961  14.223  64.339  1.00  0.00    -0.476 A  
HETATM   11  C   UNL     1     -12.110  13.168  63.439  1.00  0.00    -0.558 A  
HETATM   12  C   UNL     1      -7.817  16.599  66.548  1.00  0.00    -0.342 A  
HETATM   13  C   UNL     1     -11.678  11.897  63.798  1.00  0.00    -0.554 A  
HETATM   14  C   UNL     1      -8.112  17.949  66.372  1.00  0.00    -0.261 A  
HETATM   15  C   UNL     1     -11.088  11.736  65.036  1.00  0.00    -0.284 A  
HETATM   16  C   UNL     1      -9.430  18.364  66.205  1.00  0.00    -0.246 A  
HETATM   17 BR   UNL     1      -6.718  19.227  66.397  1.00  0.00    -0.224 Br 
HETATM   18  N   UNL     1     -10.923  12.740  65.925  1.00  0.00    -0.270 NA 
HETATM   19  C   UNL     1     -10.464  17.426  66.248  1.00  0.00    -0.276 A  
ENDBRANCH   4   5
ENDBRANCH   2   4
TORSDOF 2
ENDMDL
MODEL       10
REMARK 921   NORMALIZED FREE ENERGY PREDICTED BY IDOCK:   -5.76 KCAL/MOL
REMARK 922        TOTAL FREE ENERGY PREDICTED BY IDOCK:   -6.59 KCAL/MOL
REMARK 923 INTER-LIGAND FREE ENERGY PREDICTED BY IDOCK:   -6.42 KCAL/MOL
REMARK 924 INTRA-LIGAND FREE ENERGY PREDICTED BY IDOCK:   -0.18 KCAL/MOL
REMARK 927      BINDING AFFINITY PREDICTED BY RF-SCORE:    0.00 PKD
ROOT
HETATM    1  C   UNL     1     -13.240  13.129  71.843  1.00  0.00    -0.431 C  
HETATM    2  N   UNL     1     -13.194  14.335  71.011  1.00  0.00    -0.335 NA 
HETATM    3  C   UNL     1     -12.916  15.501  71.855  1.00  0.00    -0.441 C  
ENDROOT
BRANCH   2   4
HETATM    4  C   UNL     1     -12.166  14.243  69.958  1.00  0.00    -0.359 C  
BRANCH   4   5
HETATM    5  C   UNL     1     -11.544  15.580  69.535  1.00  0.00    -0.361 C  
HETATM    6  C   UNL     1     -10.182  15.471  68.807  1.00  0.00    -0.212 C  
HETATM    7  C   UNL     1     -10.306  14.718  67.484  1.00  0.00    -0.238 A  
HETATM    8  C   UNL     1      -9.541  16.855  68.672  1.00  0.00    -0.265 A  
HETATM    9  C   UNL     1     -11.131  15.184  66.449  1.00  0.00    -0.312 A  
HETATM   10  C   UNL     1      -8.152  16.978  68.611  1.00  0.00    -0.254 A  
HETATM   11  C   UNL     1      -7.586  18.252  68.624  1.00  0.00    -0.311 A  
HETATM   12  C   UNL     1     -11.340  14.412  65.302  1.00  0.00    -0.346 A  
HETATM   13  C   UNL     1      -8.412  19.367  68.687  1.00  0.00    -0.395 A  
HETATM   14  C   UNL     1     -10.712  13.176  65.173  1.00  0.00    -0.315 A  
HETATM   15  C   UNL     1      -9.779  19.164  68.710  1.00  0.00    -0.430 A  
HETATM   16  C   UNL     1      -9.857  12.715  66.170  1.00  0.00    -0.265 A  
HETATM   17 BR   UNL     1     -11.052  12.102  63.655  1.00  0.00    -0.552 Br 
HETATM   18  N   UNL     1     -10.355  17.943  68.692  1.00  0.00    -0.364 NA 
HETATM   19  C   UNL     1      -9.654  13.482  67.319  1.00  0.00    -0.235 A  
ENDBRANCH   4   5
ENDBRANCH   2   4
TORSDOF 2
ENDMDL
MODEL       11
REMARK 921   NORMALIZED FREE ENERGY PREDICTED BY IDOCK:   -5.63 KCAL/MOL
REMARK 922        TOTAL FREE ENERGY PREDICTED BY IDOCK:   -6.44 KCAL/MOL
REMARK 923 INTER-LIGAND FREE ENERGY PREDICTED BY IDOCK:   -6.21 KCAL/MOL
REMARK 924 INTRA-LIGAND FREE ENERGY PREDICTED BY IDOCK:   -0.23 KCAL/MOL
REMARK 927      BINDING AFFINITY PREDICTED BY RF-SCORE:    0.00 PKD
ROOT
HETATM    1  C   UNL     1     -11.492  15.465  64.342  1.00  0.00    -0.255 C  
HETATM    2  N   UNL     1     -12.520  14.424  64.422  1.00  0.00    -0.679 NA 
HETATM    3  C   UNL     1     -12.112  13.270  63.616  1.00  0.00    -0.485 C  
ENDROOT
BRANCH   2   4
HETATM    4  C   UNL     1     -12.755  13.984  65.810  1.00  0.00    -0.450 C  
BRANCH   4   5
HETATM    5  C   UNL     1     -12.007  12.711  66.227  1.00  0.00    -0.439 C  
HETATM    6  C   UNL     1     -10.713  12.947  67.044  1.00  0.00    -0.273 C  
HETATM    7  C   UNL     1     -11.001  13.628  68.379  1.00  0.00    -0.284 A  
HETATM    8  C   UNL     1      -9.922  11.642  67.173  1.00  0.00    -0.199 A  
HETATM    9  C   UNL     1     -11.826  13.029  69.345  1.00  0.00    -0.380 A  
HETATM   10  C   UNL     1      -8.535  11.677  67.317  1.00  0.00    -0.156 A  
HETATM   11  C   UNL     1      -7.823  10.478  67.298  1.00  0.00    -0.107 A  
HETATM   12  C   UNL     1     -12.190  13.725  70.502  1.00  0.00    -0.440 A  
HETATM   13  C   UNL     1      -8.508   9.279  67.147  1.00  0.00    -0.124 A  
HETATM   14  C   UNL     1     -11.720  15.020  70.710  1.00  0.00    -0.320 A  
HETATM   15  C   UNL     1      -9.885   9.325  67.045  1.00  0.00    -0.198 A  
HETATM   16  C   UNL     1     -10.868  15.615  69.784  1.00  0.00    -0.310 A  
HETATM   17 BR   UNL     1     -12.272  15.986  72.238  1.00  0.00    -0.616 Br 
HETATM   18  N   UNL     1     -10.601  10.470  67.066  1.00  0.00    -0.253 NA 
HETATM   19  C   UNL     1     -10.509  14.923  68.626  1.00  0.00    -0.242 A  
ENDBRANCH   4   5
ENDBRANCH   2   4
TORSDOF 2
ENDMDL
MODEL       12
REMARK 921   NORMALIZED FREE ENERGY PREDICTED BY IDOCK:   -5.62 KCAL/MOL
REMARK 922        TOTAL FREE ENERGY PREDICTED BY IDOCK:   -6.44 KCAL/MOL
REMARK 923 INTER-LIGAND FREE ENERGY PREDICTED BY IDOCK:   -6.22 KCAL/MOL
REMARK 924 INTRA-LIGAND FREE ENERGY PREDICTED BY IDOCK:   -0.22 KCAL/MOL
REMARK 927      BINDING AFFINITY PREDICTED BY RF-SCORE:    0.00 PKD
ROOT
HETATM    1  C   UNL     1     -10.371  16.944  69.006  1.00  0.00    -0.333 C  
HETATM    2  N   UNL     1     -10.363  15.671  69.733  1.00  0.00    -0.290 NA 
HETATM    3  C   UNL     1     -11.734  15.310  70.103  1.00  0.00    -0.312 C  
ENDROOT
BRANCH   2   4
HETATM    4  C   UNL     1      -9.776  14.580  68.932  1.00  0.00    -0.169 C  
BRANCH   4   5
HETATM    5  C   UNL     1     -10.643  14.087  67.767  1.00  0.00    -0.244 C  
HETATM    6  C   UNL     1     -10.300  12.669  67.247  1.00  0.00    -0.230 C  
HETATM    7  C   UNL     1     -10.525  11.603  68.317  1.00  0.00    -0.223 A  
HETATM    8  C   UNL     1     -11.038  12.393  65.934  1.00  0.00    -0.313 A  
HETATM    9  C   UNL     1     -11.793  11.387  68.880  1.00  0.00    -0.413 A  
HETATM   10  C   UNL     1     -10.494  11.512  64.999  1.00  0.00    -0.344 A  
HETATM   11  C   UNL     1     -11.114  11.378  63.757  1.00  0.00    -0.417 A  
HETATM   12  C   UNL     1     -11.954  10.505  69.954  1.00  0.00    -0.339 A  
HETATM   13  C   UNL     1     -12.259  12.114  63.481  1.00  0.00    -0.670 A  
HETATM   14  C   UNL     1     -10.853   9.821  70.462  1.00  0.00    -0.323 A  
HETATM   15  C   UNL     1     -12.756  12.940  64.471  1.00  0.00    -0.286 A  
HETATM   16  C   UNL     1      -9.595   9.990  69.889  1.00  0.00    -0.233 A  
HETATM   17 BR   UNL     1     -11.060   8.685  71.959  1.00  0.00    -0.437 Br 
HETATM   18  N   UNL     1     -12.181  13.085  65.685  1.00  0.00    -0.452 NA 
HETATM   19  C   UNL     1      -9.433  10.876  68.822  1.00  0.00    -0.196 A  
ENDBRANCH   4   5
ENDBRANCH   2   4
TORSDOF 2
ENDMDL
MODEL       13
REMARK 921   NORMALIZED FREE ENERGY PREDICTED BY IDOCK:   -5.59 KCAL/MOL
REMARK 922        TOTAL FREE ENERGY PREDICTED BY IDOCK:   -6.40 KCAL/MOL
REMARK 923 INTER-LIGAND FREE ENERGY PREDICTED BY IDOCK:   -6.25 KCAL/MOL
REMARK 924 INTRA-LIGAND FREE ENERGY PREDICTED BY IDOCK:   -0.15 KCAL/MOL
REMARK 927      BINDING AFFINITY PREDICTED BY RF-SCORE:    0.00 PKD
ROOT
HETATM    1  C   UNL     1     -10.417  12.400  63.404  1.00  0.00    -0.311 C  
HETATM    2  N   UNL     1     -11.771  12.956  63.479  1.00  0.00    -0.514 NA 
HETATM    3  C   UNL     1     -12.749  11.865  63.495  1.00  0.00    -0.405 C  
ENDROOT
BRANCH   2   4
HETATM    4  C   UNL     1     -11.961  13.793  64.678  1.00  0.00    -0.416 C  
BRANCH   4   5
HETATM    5  C   UNL     1     -12.032  13.026  66.004  1.00  0.00    -0.498 C  
HETATM    6  C   UNL     1     -10.732  13.048  66.846  1.00  0.00    -0.273 C  
HETATM    7  C   UNL     1     -10.367  14.463  67.288  1.00  0.00    -0.260 A  
HETATM    8  C   UNL     1     -10.831  12.047  68.000  1.00  0.00    -0.216 A  
HETATM    9  C   UNL     1     -11.227  15.224  68.096  1.00  0.00    -0.328 A  
HETATM   10  C   UNL     1      -9.676  11.458  68.515  1.00  0.00    -0.199 A  
HETATM   11  C   UNL     1      -9.799  10.451  69.472  1.00  0.00    -0.211 A  
HETATM   12  C   UNL     1     -10.941  16.564  68.376  1.00  0.00    -0.348 A  
HETATM   13  C   UNL     1     -11.063  10.064  69.898  1.00  0.00    -0.336 A  
HETATM   14  C   UNL     1      -9.786  17.149  67.864  1.00  0.00    -0.270 A  
HETATM   15  C   UNL     1     -12.158  10.719  69.366  1.00  0.00    -0.244 A  
HETATM   16  C   UNL     1      -8.899  16.400  67.096  1.00  0.00    -0.214 A  
HETATM   17 BR   UNL     1      -9.438  18.980  68.184  1.00  0.00    -0.413 Br 
HETATM   18  N   UNL     1     -12.068  11.701  68.443  1.00  0.00    -0.518 NA 
HETATM   19  C   UNL     1      -9.188  15.064  66.810  1.00  0.00    -0.280 A  
ENDBRANCH   4   5
ENDBRANCH   2   4
TORSDOF 2
ENDMDL
MODEL       14
REMARK 921   NORMALIZED FREE ENERGY PREDICTED BY IDOCK:   -5.57 KCAL/MOL
REMARK 922        TOTAL FREE ENERGY PREDICTED BY IDOCK:   -6.38 KCAL/MOL
REMARK 923 INTER-LIGAND FREE ENERGY PREDICTED BY IDOCK:   -6.17 KCAL/MOL
REMARK 924 INTRA-LIGAND FREE ENERGY PREDICTED BY IDOCK:   -0.21 KCAL/MOL
REMARK 927      BINDING AFFINITY PREDICTED BY RF-SCORE:    0.00 PKD
ROOT
HETATM    1  C   UNL     1     -12.057  15.092  64.208  1.00  0.00    -0.306 C  
HETATM    2  N   UNL     1     -12.602  13.741  64.366  1.00  0.00    -0.666 NA 
HETATM    3  C   UNL     1     -11.872  12.813  63.498  1.00  0.00    -0.546 C  
ENDROOT
BRANCH   2   4
HETATM    4  C   UNL     1     -12.515  13.268  65.761  1.00  0.00    -0.417 C  
BRANCH   4   5
HETATM    5  C   UNL     1     -11.153  12.694  66.171  1.00  0.00    -0.327 C  
HETATM    6  C   UNL     1     -10.384  13.521  67.231  1.00  0.00    -0.241 C  
HETATM    7  C   UNL     1     -11.140  13.589  68.555  1.00  0.00    -0.300 A  
HETATM    8  C   UNL     1      -8.948  13.006  67.364  1.00  0.00    -0.204 A  
HETATM    9  C   UNL     1     -11.446  12.429  69.285  1.00  0.00    -0.349 A  
HETATM   10  C   UNL     1      -7.929  13.872  67.762  1.00  0.00    -0.174 A  
HETATM   11  C   UNL     1      -6.611  13.418  67.748  1.00  0.00    -0.168 A  
HETATM   12  C   UNL     1     -12.256  12.496  70.422  1.00  0.00    -0.368 A  
HETATM   13  C   UNL     1      -6.342  12.115  67.348  1.00  0.00    -0.144 A  
HETATM   14  C   UNL     1     -12.755  13.725  70.848  1.00  0.00    -0.323 A  
HETATM   15  C   UNL     1      -7.408  11.307  67.001  1.00  0.00    -0.136 A  
HETATM   16  C   UNL     1     -12.428  14.892  70.162  1.00  0.00    -0.353 A  
HETATM   17 BR   UNL     1     -13.910  13.805  72.343  1.00  0.00    -0.652 Br 
HETATM   18  N   UNL     1      -8.694  11.718  67.012  1.00  0.00    -0.174 NA 
HETATM   19  C   UNL     1     -11.624  14.824  69.022  1.00  0.00    -0.324 A  
ENDBRANCH   4   5
ENDBRANCH   2   4
TORSDOF 2
ENDMDL
MODEL       15
REMARK 921   NORMALIZED FREE ENERGY PREDICTED BY IDOCK:   -5.51 KCAL/MOL
REMARK 922        TOTAL FREE ENERGY PREDICTED BY IDOCK:   -6.32 KCAL/MOL
REMARK 923 INTER-LIGAND FREE ENERGY PREDICTED BY IDOCK:   -5.93 KCAL/MOL
REMARK 924 INTRA-LIGAND FREE ENERGY PREDICTED BY IDOCK:   -0.39 KCAL/MOL
REMARK 927      BINDING AFFINITY PREDICTED BY RF-SCORE:    0.00 PKD
ROOT
HETATM    1  C   UNL     1     -11.793  12.885  69.542  1.00  0.00    -0.320 C  
HETATM    2  N   UNL     1     -12.192  14.199  70.053  1.00  0.00    -0.341 NA 
HETATM    3  C   UNL     1     -12.863  14.039  71.346  1.00  0.00    -0.359 C  
ENDROOT
BRANCH   2   4
HETATM    4  C   UNL     1     -11.038  15.103  70.217  1.00  0.00    -0.262 C  
BRANCH   4   5
HETATM    5  C   UNL     1     -11.013  16.307  69.266  1.00  0.00    -0.317 C  
HETATM    6  C   UNL     1      -9.881  16.287  68.210  1.00  0.00    -0.227 C  
HETATM    7  C   UNL     1     -10.015  15.101  67.257  1.00  0.00    -0.230 A  
HETATM    8  C   UNL     1      -9.792  17.641  67.501  1.00  0.00    -0.299 A  
HETATM    9  C   UNL     1     -11.148  14.938  66.445  1.00  0.00    -0.342 A  
HETATM   10  C   UNL     1      -8.575  18.078  66.979  1.00  0.00    -0.254 A  
HETATM   11  C   UNL     1      -8.487  19.369  66.458  1.00  0.00    -0.354 A  
HETATM   12  C   UNL     1     -11.318  13.778  65.683  1.00  0.00    -0.311 A  
HETATM   13  C   UNL     1      -9.611  20.186  66.462  1.00  0.00    -0.529 A  
HETATM   14  C   UNL     1     -10.348  12.779  65.715  1.00  0.00    -0.281 A  
HETATM   15  C   UNL     1     -10.789  19.669  66.966  1.00  0.00    -0.399 A  
HETATM   16  C   UNL     1      -9.198  12.940  66.482  1.00  0.00    -0.186 A  
HETATM   17 BR   UNL     1     -10.613  11.180  64.741  1.00  0.00    -0.341 Br 
HETATM   18  N   UNL     1     -10.905  18.421  67.470  1.00  0.00    -0.357 NA 
HETATM   19  C   UNL     1      -9.031  14.095  67.249  1.00  0.00    -0.221 A  
ENDBRANCH   4   5
ENDBRANCH   2   4
TORSDOF 2
ENDMDL
MODEL       16
REMARK 921   NORMALIZED FREE ENERGY PREDICTED BY IDOCK:   -5.47 KCAL/MOL
REMARK 922        TOTAL FREE ENERGY PREDICTED BY IDOCK:   -6.27 KCAL/MOL
REMARK 923 INTER-LIGAND FREE ENERGY PREDICTED BY IDOCK:   -6.01 KCAL/MOL
REMARK 924 INTRA-LIGAND FREE ENERGY PREDICTED BY IDOCK:   -0.26 KCAL/MOL
REMARK 927      BINDING AFFINITY PREDICTED BY RF-SCORE:    0.00 PKD
ROOT
HETATM    1  C   UNL     1     -11.026   8.620  71.938  1.00  0.00    -0.342 C  
HETATM    2  N   UNL     1     -10.656   9.824  71.189  1.00  0.00    -0.248 NA 
HETATM    3  C   UNL     1      -9.459   9.554  70.388  1.00  0.00    -0.262 C  
ENDROOT
BRANCH   2   4
HETATM    4  C   UNL     1     -11.740  10.279  70.299  1.00  0.00    -0.306 C  
BRANCH   4   5
HETATM    5  C   UNL     1     -12.466  11.552  70.753  1.00  0.00    -0.444 C  
HETATM    6  C   UNL     1     -11.666  12.865  70.567  1.00  0.00     0.015 C  
HETATM    7  C   UNL     1     -11.370  13.146  69.096  1.00  0.00    -0.335 A  
HETATM    8  C   UNL     1     -12.369  14.020  71.287  1.00  0.00    -0.355 A  
HETATM    9  C   UNL     1     -12.402  13.322  68.161  1.00  0.00     0.099 A  
HETATM   10  C   UNL     1     -11.627  15.099  71.768  1.00  0.00    -0.478 A  
HETATM   11  C   UNL     1     -12.267  16.071  72.535  1.00  0.00    -0.612 A  
HETATM   12  C   UNL     1     -12.115  13.440  66.797  1.00  0.00    -0.419 A  
HETATM   13  C   UNL     1     -13.625  15.951  72.797  1.00  0.00    -0.589 A  
HETATM   14  C   UNL     1     -10.794  13.399  66.360  1.00  0.00    -0.289 A  
HETATM   15  C   UNL     1     -14.299  14.871  72.257  1.00  0.00    -0.429 A  
HETATM   16  C   UNL     1      -9.754  13.267  67.276  1.00  0.00    -0.231 A  
HETATM   17 BR   UNL     1     -10.413  13.485  64.510  1.00  0.00    -0.343 Br 
HETATM   18  N   UNL     1     -13.707  13.918  71.505  1.00  0.00    -0.292 NA 
HETATM   19  C   UNL     1     -10.040  13.142  68.637  1.00  0.00    -0.146 A  
ENDBRANCH   4   5
ENDBRANCH   2   4
TORSDOF 2
ENDMDL
MODEL       17
REMARK 921   NORMALIZED FREE ENERGY PREDICTED BY IDOCK:   -5.47 KCAL/MOL
REMARK 922        TOTAL FREE ENERGY PREDICTED BY IDOCK:   -6.26 KCAL/MOL
REMARK 923 INTER-LIGAND FREE ENERGY PREDICTED BY IDOCK:   -6.08 KCAL/MOL
REMARK 924 INTRA-LIGAND FREE ENERGY PREDICTED BY IDOCK:   -0.19 KCAL/MOL
REMARK 927      BINDING AFFINITY PREDICTED BY RF-SCORE:    0.00 PKD
ROOT
HETATM    1  C   UNL     1     -12.296  14.565  64.383  1.00  0.00    -0.413 C  
HETATM    2  N   UNL     1     -12.730  13.194  64.661  1.00  0.00    -0.699 NA 
HETATM    3  C   UNL     1     -12.335  12.320  63.553  1.00  0.00    -0.565 C  
ENDROOT
BRANCH   2   4
HETATM    4  C   UNL     1     -12.155  12.674  65.916  1.00  0.00    -0.396 C  
BRANCH   4   5
HETATM    5  C   UNL     1     -10.798  13.272  66.308  1.00  0.00    -0.293 C  
HETATM    6  C   UNL     1     -10.681  13.725  67.784  1.00  0.00    -0.254 C  
HETATM    7  C   UNL     1     -10.831  12.552  68.751  1.00  0.00    -0.276 A  
HETATM    8  C   UNL     1      -9.399  14.535  67.990  1.00  0.00    -0.201 A  
HETATM    9  C   UNL     1      -9.942  11.466  68.728  1.00  0.00    -0.188 A  
HETATM   10  C   UNL     1      -9.340  15.508  68.988  1.00  0.00    -0.235 A  
HETATM   11  C   UNL     1      -8.212  16.324  69.071  1.00  0.00    -0.238 A  
HETATM   12  C   UNL     1     -10.174  10.339  69.524  1.00  0.00    -0.261 A  
HETATM   13  C   UNL     1      -7.173  16.147  68.167  1.00  0.00    -0.140 A  
HETATM   14  C   UNL     1     -11.287  10.297  70.359  1.00  0.00    -0.332 A  
HETATM   15  C   UNL     1      -7.291  15.140  67.229  1.00  0.00    -0.181 A  
HETATM   16  C   UNL     1     -12.158  11.381  70.426  1.00  0.00    -0.473 A  
HETATM   17 BR   UNL     1     -11.639   8.744  71.379  1.00  0.00    -0.393 Br 
HETATM   18  N   UNL     1      -8.367  14.330  67.129  1.00  0.00    -0.200 NA 
HETATM   19  C   UNL     1     -11.930  12.503  69.627  1.00  0.00    -0.339 A  
ENDBRANCH   4   5
ENDBRANCH   2   4
TORSDOF 2
ENDMDL
MODEL       18
REMARK 921   NORMALIZED FREE ENERGY PREDICTED BY IDOCK:   -5.43 KCAL/MOL
REMARK 922        TOTAL FREE ENERGY PREDICTED BY IDOCK:   -6.23 KCAL/MOL
REMARK 923 INTER-LIGAND FREE ENERGY PREDICTED BY IDOCK:   -5.84 KCAL/MOL
REMARK 924 INTRA-LIGAND FREE ENERGY PREDICTED BY IDOCK:   -0.39 KCAL/MOL
REMARK 927      BINDING AFFINITY PREDICTED BY RF-SCORE:    0.00 PKD
ROOT
HETATM    1  C   UNL     1      -7.162  15.398  68.974  1.00  0.00    -0.153 C  
HETATM    2  N   UNL     1      -6.995  14.116  68.284  1.00  0.00    -0.093 NA 
HETATM    3  C   UNL     1      -5.897  13.367  68.902  1.00  0.00    -0.076 C  
ENDROOT
BRANCH   2   4
HETATM    4  C   UNL     1      -8.222  13.299  68.328  1.00  0.00    -0.156 C  
BRANCH   4   5
HETATM    5  C   UNL     1      -8.900  13.067  66.972  1.00  0.00    -0.213 C  
HETATM    6  C   UNL     1     -10.306  13.699  66.823  1.00  0.00    -0.268 C  
HETATM    7  C   UNL     1     -10.257  15.221  66.925  1.00  0.00    -0.268 A  
HETATM    8  C   UNL     1     -10.985  13.187  65.550  1.00  0.00    -0.277 A  
HETATM    9  C   UNL     1      -9.514  15.994  66.018  1.00  0.00    -0.384 A  
HETATM   10  C   UNL     1     -12.376  13.115  65.480  1.00  0.00    -0.529 A  
HETATM   11  C   UNL     1     -12.968  12.522  64.366  1.00  0.00    -0.248 A  
HETATM   12  C   UNL     1      -9.368  17.371  66.208  1.00  0.00    -0.240 A  
HETATM   13  C   UNL     1     -12.164  12.025  63.348  1.00  0.00    -0.627 A  
HETATM   14  C   UNL     1      -9.976  17.990  67.297  1.00  0.00    -0.323 A  
HETATM   15  C   UNL     1     -10.795  12.164  63.474  1.00  0.00    -0.458 A  
HETATM   16  C   UNL     1     -10.751  17.248  68.185  1.00  0.00    -0.363 A  
HETATM   17 BR   UNL     1      -9.718  19.840  67.593  1.00  0.00    -0.521 Br 
HETATM   18  N   UNL     1     -10.194  12.740  64.538  1.00  0.00    -0.329 NA 
HETATM   19  C   UNL     1     -10.892  15.871  67.999  1.00  0.00    -0.317 A  
ENDBRANCH   4   5
ENDBRANCH   2   4
TORSDOF 2
ENDMDL
MODEL       19
REMARK 921   NORMALIZED FREE ENERGY PREDICTED BY IDOCK:   -5.42 KCAL/MOL
REMARK 922        TOTAL FREE ENERGY PREDICTED BY IDOCK:   -6.22 KCAL/MOL
REMARK 923 INTER-LIGAND FREE ENERGY PREDICTED BY IDOCK:   -6.06 KCAL/MOL
REMARK 924 INTRA-LIGAND FREE ENERGY PREDICTED BY IDOCK:   -0.15 KCAL/MOL
REMARK 927      BINDING AFFINITY PREDICTED BY RF-SCORE:    0.00 PKD
ROOT
HETATM    1  C   UNL     1     -11.989  14.503  64.643  1.00  0.00    -0.468 C  
HETATM    2  N   UNL     1     -12.418  13.103  64.697  1.00  0.00    -0.587 NA 
HETATM    3  C   UNL     1     -12.352  12.518  63.356  1.00  0.00    -0.477 C  
ENDROOT
BRANCH   2   4
HETATM    4  C   UNL     1     -11.584  12.304  65.615  1.00  0.00    -0.380 C  
BRANCH   4   5
HETATM    5  C   UNL     1     -11.777  12.610  67.106  1.00  0.00    -0.438 C  
HETATM    6  C   UNL     1     -11.514  11.419  68.061  1.00  0.00    -0.377 C  
HETATM    7  C   UNL     1     -10.064  10.948  67.993  1.00  0.00    -0.197 A  
HETATM    8  C   UNL     1     -11.988  11.761  69.476  1.00  0.00    -0.300 A  
HETATM    9  C   UNL     1      -9.000  11.802  68.323  1.00  0.00    -0.180 A  
HETATM   10  C   UNL     1     -12.405  10.746  70.337  1.00  0.00    -0.438 A  
HETATM   11  C   UNL     1     -12.957  11.090  71.571  1.00  0.00    -0.553 A  
HETATM   12  C   UNL     1      -7.675  11.400  68.124  1.00  0.00    -0.118 A  
HETATM   13  C   UNL     1     -13.072  12.430  71.918  1.00  0.00    -0.471 A  
HETATM   14  C   UNL     1      -7.404  10.135  67.608  1.00  0.00    -0.089 A  
HETATM   15  C   UNL     1     -12.605  13.376  71.026  1.00  0.00    -0.343 A  
HETATM   16  C   UNL     1      -8.445   9.258  67.313  1.00  0.00    -0.125 A  
HETATM   17 BR   UNL     1      -5.616   9.620  67.271  1.00  0.00    -0.039 Br 
HETATM   18  N   UNL     1     -12.060  13.072  69.828  1.00  0.00    -0.290 NA 
HETATM   19  C   UNL     1      -9.767   9.662  67.506  1.00  0.00    -0.195 A  
ENDBRANCH   4   5
ENDBRANCH   2   4
TORSDOF 2
ENDMDL
MODEL       20
REMARK 921   NORMALIZED FREE ENERGY PREDICTED BY IDOCK:   -5.40 KCAL/MOL
REMARK 922        TOTAL FREE ENERGY PREDICTED BY IDOCK:   -6.19 KCAL/MOL
REMARK 923 INTER-LIGAND FREE ENERGY PREDICTED BY IDOCK:   -5.92 KCAL/MOL
REMARK 924 INTRA-LIGAND FREE ENERGY PREDICTED BY IDOCK:   -0.27 KCAL/MOL
REMARK 927      BINDING AFFINITY PREDICTED BY RF-SCORE:    0.00 PKD
ROOT
HETATM    1  C   UNL     1      -5.999  13.121  67.662  1.00  0.00    -0.134 C  
HETATM    2  N   UNL     1      -7.335  13.722  67.616  1.00  0.00    -0.161 NA 
HETATM    3  C   UNL     1      -8.325  12.692  67.289  1.00  0.00    -0.189 C  
ENDROOT
BRANCH   2   4
HETATM    4  C   UNL     1      -7.703  14.355  68.897  1.00  0.00    -0.128 C  
BRANCH   4   5
HETATM    5  C   UNL     1      -8.091  15.836  68.804  1.00  0.00    -0.179 C  
HETATM    6  C   UNL     1      -9.517  16.110  68.266  1.00  0.00    -0.208 C  
HETATM    7  C   UNL     1     -10.590  15.531  69.185  1.00  0.00    -0.234 A  
HETATM    8  C   UNL     1      -9.695  17.601  67.970  1.00  0.00    -0.301 A  
HETATM    9  C   UNL     1     -10.717  15.952  70.519  1.00  0.00    -0.204 A  
HETATM   10  C   UNL     1     -10.591  18.016  66.985  1.00  0.00    -0.320 A  
HETATM   11  C   UNL     1     -10.640  19.366  66.640  1.00  0.00    -0.566 A  
HETATM   12  C   UNL     1     -11.612  15.315  71.385  1.00  0.00    -0.446 A  
HETATM   13  C   UNL     1      -9.804  20.267  67.288  1.00  0.00    -0.593 A  
HETATM   14  C   UNL     1     -12.398  14.263  70.920  1.00  0.00    -0.359 A  
HETATM   15  C   UNL     1      -8.969  19.785  68.277  1.00  0.00    -0.287 A  
HETATM   16  C   UNL     1     -12.317  13.859  69.590  1.00  0.00    -0.301 A  
HETATM   17 BR   UNL     1     -13.554  13.356  72.109  1.00  0.00    -0.666 Br 
HETATM   18  N   UNL     1      -8.905  18.485  68.637  1.00  0.00    -0.321 NA 
HETATM   19  C   UNL     1     -11.418  14.491  68.727  1.00  0.00    -0.322 A  
ENDBRANCH   4   5
ENDBRANCH   2   4
TORSDOF 2
ENDMDL
MODEL       21
REMARK 921   NORMALIZED FREE ENERGY PREDICTED BY IDOCK:   -5.31 KCAL/MOL
REMARK 922        TOTAL FREE ENERGY PREDICTED BY IDOCK:   -6.09 KCAL/MOL
REMARK 923 INTER-LIGAND FREE ENERGY PREDICTED BY IDOCK:   -5.93 KCAL/MOL
REMARK 924 INTRA-LIGAND FREE ENERGY PREDICTED BY IDOCK:   -0.15 KCAL/MOL
REMARK 927      BINDING AFFINITY PREDICTED BY RF-SCORE:    0.00 PKD
ROOT
HETATM    1  C   UNL     1     -11.623  10.159  70.901  1.00  0.00    -0.372 C  
HETATM    2  N   UNL     1     -12.488  11.308  70.619  1.00  0.00    -0.352 NA 
HETATM    3  C   UNL     1     -13.006  11.852  71.877  1.00  0.00    -0.329 C  
ENDROOT
BRANCH   2   4
HETATM    4  C   UNL     1     -11.775  12.373  69.890  1.00  0.00    -0.266 C  
BRANCH   4   5
HETATM    5  C   UNL     1     -11.426  12.044  68.432  1.00  0.00    -0.356 C  
HETATM    6  C   UNL     1     -11.761  13.157  67.409  1.00  0.00    -0.419 C  
HETATM    7  C   UNL     1     -10.961  14.430  67.674  1.00  0.00    -0.294 A  
HETATM    8  C   UNL     1     -11.620  12.624  65.981  1.00  0.00    -0.393 A  
HETATM    9  C   UNL     1      -9.557  14.435  67.632  1.00  0.00    -0.214 A  
HETATM   10  C   UNL     1     -12.384  13.174  64.951  1.00  0.00    -0.494 A  
HETATM   11  C   UNL     1     -12.338  12.586  63.687  1.00  0.00    -0.618 A  
HETATM   12  C   UNL     1      -8.838  15.573  68.011  1.00  0.00    -0.165 A  
HETATM   13  C   UNL     1     -11.530  11.476  63.479  1.00  0.00    -0.334 A  
HETATM   14  C   UNL     1      -9.515  16.719  68.421  1.00  0.00    -0.241 A  
HETATM   15  C   UNL     1     -10.777  11.011  64.540  1.00  0.00    -0.264 A  
HETATM   16  C   UNL     1     -10.907  16.747  68.429  1.00  0.00    -0.355 A  
HETATM   17 BR   UNL     1      -8.541  18.231  69.003  1.00  0.00     0.059 Br 
HETATM   18  N   UNL     1     -10.796  11.563  65.772  1.00  0.00    -0.279 NA 
HETATM   19  C   UNL     1     -11.626  15.609  68.057  1.00  0.00    -0.245 A  
ENDBRANCH   4   5
ENDBRANCH   2   4
TORSDOF 2
ENDMDL
MODEL       22
REMARK 921   NORMALIZED FREE ENERGY PREDICTED BY IDOCK:   -5.26 KCAL/MOL
REMARK 922        TOTAL FREE ENERGY PREDICTED BY IDOCK:   -6.03 KCAL/MOL
REMARK 923 INTER-LIGAND FREE ENERGY PREDICTED BY IDOCK:   -5.88 KCAL/MOL
REMARK 924 INTRA-LIGAND FREE ENERGY PREDICTED BY IDOCK:   -0.15 KCAL/MOL
REMARK 927      BINDING AFFINITY PREDICTED BY RF-SCORE:    0.00 PKD
ROOT
HETATM    1  C   UNL     1     -12.653  14.137  64.837  1.00  0.00    -0.342 C  
HETATM    2  N   UNL     1     -12.675  12.675  64.927  1.00  0.00    -0.778 NA 
HETATM    3  C   UNL     1     -12.648  12.100  63.580  1.00  0.00    -0.506 C  
ENDROOT
BRANCH   2   4
HETATM    4  C   UNL     1     -11.532  12.151  65.699  1.00  0.00    -0.355 C  
BRANCH   4   5
HETATM    5  C   UNL     1     -11.856  11.729  67.138  1.00  0.00    -0.157 C  
HETATM    6  C   UNL     1     -10.625  11.525  68.056  1.00  0.00    -0.222 C  
HETATM    7  C   UNL     1      -9.840  12.820  68.247  1.00  0.00    -0.224 A  
HETATM    8  C   UNL     1     -11.048  10.859  69.368  1.00  0.00    -0.260 A  
HETATM    9  C   UNL     1     -10.427  13.955  68.828  1.00  0.00    -0.229 A  
HETATM   10  C   UNL     1     -10.142  10.063  70.071  1.00  0.00    -0.289 A  
HETATM   11  C   UNL     1     -10.587   9.360  71.190  1.00  0.00    -0.403 A  
HETATM   12  C   UNL     1      -9.738  15.171  68.870  1.00  0.00    -0.224 A  
HETATM   13  C   UNL     1     -11.914   9.473  71.585  1.00  0.00    -0.474 A  
HETATM   14  C   UNL     1      -8.451  15.259  68.344  1.00  0.00    -0.158 A  
HETATM   15  C   UNL     1     -12.741  10.307  70.857  1.00  0.00    -0.370 A  
HETATM   16  C   UNL     1      -7.836  14.134  67.801  1.00  0.00    -0.177 A  
HETATM   17 BR   UNL     1      -7.550  16.921  68.335  1.00  0.00    -0.219 Br 
HETATM   18  N   UNL     1     -12.337  11.005  69.774  1.00  0.00    -0.305 NA 
HETATM   19  C   UNL     1      -8.526  12.921  67.754  1.00  0.00    -0.185 A  
ENDBRANCH   4   5
ENDBRANCH   2   4
TORSDOF 2
ENDMDL
MODEL       23
REMARK 921   NORMALIZED FREE ENERGY PREDICTED BY IDOCK:   -5.24 KCAL/MOL
REMARK 922        TOTAL FREE ENERGY PREDICTED BY IDOCK:   -6.01 KCAL/MOL
REMARK 923 INTER-LIGAND FREE ENERGY PREDICTED BY IDOCK:   -5.72 KCAL/MOL
REMARK 924 INTRA-LIGAND FREE ENERGY PREDICTED BY IDOCK:   -0.30 KCAL/MOL
REMARK 927      BINDING AFFINITY PREDICTED BY RF-SCORE:    0.00 PKD
ROOT
HETATM    1  C   UNL     1      -6.213  14.826  69.819  1.00  0.00    -0.144 C  
HETATM    2  N   UNL     1      -7.632  14.923  69.464  1.00  0.00    -0.167 NA 
HETATM    3  C   UNL     1      -7.855  16.126  68.658  1.00  0.00    -0.188 C  
ENDROOT
BRANCH   2   4
HETATM    4  C   UNL     1      -8.097  13.743  68.710  1.00  0.00    -0.022 C  
BRANCH   4   5
HETATM    5  C   UNL     1      -9.023  14.049  67.526  1.00  0.00    -0.195 C  
HETATM    6  C   UNL     1     -10.420  13.385  67.596  1.00  0.00    -0.242 C  
HETATM    7  C   UNL     1     -11.224  13.880  68.796  1.00  0.00    -0.302 A  
HETATM    8  C   UNL     1     -11.148  13.541  66.258  1.00  0.00    -0.300 A  
HETATM    9  C   UNL     1     -11.559  15.235  68.946  1.00  0.00    -0.365 A  
HETATM   10  C   UNL     1     -12.093  12.594  65.863  1.00  0.00    -0.459 A  
HETATM   11  C   UNL     1     -12.645  12.682  64.585  1.00  0.00    -0.517 A  
HETATM   12  C   UNL     1     -12.173  15.692  70.116  1.00  0.00    -0.387 A  
HETATM   13  C   UNL     1     -12.251  13.712  63.740  1.00  0.00    -0.413 A  
HETATM   14  C   UNL     1     -12.472  14.795  71.139  1.00  0.00    -0.329 A  
HETATM   15  C   UNL     1     -11.336  14.631  64.217  1.00  0.00    -0.098 A  
HETATM   16  C   UNL     1     -12.185  13.441  70.993  1.00  0.00    -0.312 A  
HETATM   17 BR   UNL     1     -13.236  15.426  72.750  1.00  0.00    -0.657 Br 
HETATM   18  N   UNL     1     -10.790  14.574  65.451  1.00  0.00    -0.332 NA 
HETATM   19  C   UNL     1     -11.565  12.985  69.827  1.00  0.00    -0.286 A  
ENDBRANCH   4   5
ENDBRANCH   2   4
TORSDOF 2
ENDMDL
MODEL       24
REMARK 921   NORMALIZED FREE ENERGY PREDICTED BY IDOCK:   -5.21 KCAL/MOL
REMARK 922        TOTAL FREE ENERGY PREDICTED BY IDOCK:   -5.98 KCAL/MOL
REMARK 923 INTER-LIGAND FREE ENERGY PREDICTED BY IDOCK:   -5.82 KCAL/MOL
REMARK 924 INTRA-LIGAND FREE ENERGY PREDICTED BY IDOCK:   -0.16 KCAL/MOL
REMARK 927      BINDING AFFINITY PREDICTED BY RF-SCORE:    0.00 PKD
ROOT
HETATM    1  C   UNL     1     -12.555   9.469  71.825  1.00  0.00    -0.405 C  
HETATM    2  N   UNL     1     -12.732  10.565  70.869  1.00  0.00    -0.376 NA 
HETATM    3  C   UNL     1     -13.010  11.808  71.594  1.00  0.00    -0.362 C  
ENDROOT
BRANCH   2   4
HETATM    4  C   UNL     1     -11.541  10.757  70.019  1.00  0.00    -0.334 C  
BRANCH   4   5
HETATM    5  C   UNL     1     -11.818  11.359  68.636  1.00  0.00    -0.377 C  
HETATM    6  C   UNL     1     -10.557  11.679  67.795  1.00  0.00    -0.227 C  
HETATM    7  C   UNL     1      -9.759  10.420  67.467  1.00  0.00    -0.195 A  
HETATM    8  C   UNL     1     -10.938  12.508  66.564  1.00  0.00    -0.266 A  
HETATM    9  C   UNL     1     -10.320   9.368  66.726  1.00  0.00    -0.303 A  
HETATM   10  C   UNL     1     -10.013  13.387  66.001  1.00  0.00    -0.300 A  
HETATM   11  C   UNL     1     -10.422  14.227  64.966  1.00  0.00    -0.458 A  
HETATM   12  C   UNL     1      -9.624   8.168  66.553  1.00  0.00    -0.303 A  
HETATM   13  C   UNL     1     -11.734  14.165  64.514  1.00  0.00    -0.426 A  
HETATM   14  C   UNL     1      -8.356   8.015  67.107  1.00  0.00    -0.121 A  
HETATM   15  C   UNL     1     -12.582  13.244  65.100  1.00  0.00    -0.453 A  
HETATM   16  C   UNL     1      -7.765   9.061  67.810  1.00  0.00    -0.097 A  
HETATM   17 BR   UNL     1      -7.447   6.366  66.935  1.00  0.00    -0.085 Br 
HETATM   18  N   UNL     1     -12.211  12.414  66.098  1.00  0.00    -0.609 NA 
HETATM   19  C   UNL     1      -8.462  10.258  67.988  1.00  0.00    -0.118 A  
ENDBRANCH   4   5
ENDBRANCH   2   4
TORSDOF 2
ENDMDL
MODEL       25
REMARK 921   NORMALIZED FREE ENERGY PREDICTED BY IDOCK:   -5.13 KCAL/MOL
REMARK 922        TOTAL FREE ENERGY PREDICTED BY IDOCK:   -5.89 KCAL/MOL
REMARK 923 INTER-LIGAND FREE ENERGY PREDICTED BY IDOCK:   -5.66 KCAL/MOL
REMARK 924 INTRA-LIGAND FREE ENERGY PREDICTED BY IDOCK:   -0.23 KCAL/MOL
REMARK 927      BINDING AFFINITY PREDICTED BY RF-SCORE:    0.00 PKD
ROOT
HETATM    1  C   UNL     1      -7.533  16.642  68.997  1.00  0.00    -0.232 C  
HETATM    2  N   UNL     1      -7.798  15.326  68.411  1.00  0.00    -0.118 NA 
HETATM    3  C   UNL     1      -6.784  14.372  68.869  1.00  0.00    -0.098 C  
ENDROOT
BRANCH   2   4
HETATM    4  C   UNL     1      -9.136  14.819  68.770  1.00  0.00    -0.191 C  
BRANCH   4   5
HETATM    5  C   UNL     1     -10.056  14.508  67.583  1.00  0.00    -0.228 C  
HETATM    6  C   UNL     1      -9.938  13.071  67.019  1.00  0.00    -0.242 C  
HETATM    7  C   UNL     1     -10.344  12.021  68.051  1.00  0.00    -0.206 A  
HETATM    8  C   UNL     1     -10.695  12.958  65.692  1.00  0.00    -0.274 A  
HETATM    9  C   UNL     1     -11.637  11.994  68.598  1.00  0.00    -0.372 A  
HETATM   10  C   UNL     1     -10.288  12.032  64.732  1.00  0.00    -0.318 A  
HETATM   11  C   UNL     1     -10.905  12.038  63.482  1.00  0.00    -0.509 A  
HETATM   12  C   UNL     1     -11.950  11.115  69.641  1.00  0.00    -0.429 A  
HETATM   13  C   UNL     1     -11.914  12.957  63.223  1.00  0.00    -0.516 A  
HETATM   14  C   UNL     1     -10.978  10.248  70.133  1.00  0.00    -0.314 A  
HETATM   15  C   UNL     1     -12.285  13.819  64.237  1.00  0.00    -0.400 A  
HETATM   16  C   UNL     1      -9.703  10.231  69.576  1.00  0.00    -0.235 A  
HETATM   17 BR   UNL     1     -11.383   9.113  71.591  1.00  0.00    -0.458 Br 
HETATM   18  N   UNL     1     -11.710  13.831  65.458  1.00  0.00    -0.334 NA 
HETATM   19  C   UNL     1      -9.388  11.113  68.539  1.00  0.00    -0.190 A  
ENDBRANCH   4   5
ENDBRANCH   2   4
TORSDOF 2
ENDMDL
MODEL       26
REMARK 921   NORMALIZED FREE ENERGY PREDICTED BY IDOCK:   -5.13 KCAL/MOL
REMARK 922        TOTAL FREE ENERGY PREDICTED BY IDOCK:   -5.89 KCAL/MOL
REMARK 923 INTER-LIGAND FREE ENERGY PREDICTED BY IDOCK:   -5.57 KCAL/MOL
REMARK 924 INTRA-LIGAND FREE ENERGY PREDICTED BY IDOCK:   -0.32 KCAL/MOL
REMARK 927      BINDING AFFINITY PREDICTED BY RF-SCORE:    0.00 PKD
ROOT
HETATM    1  C   UNL     1      -5.829  12.940  67.586  1.00  0.00    -0.136 C  
HETATM    2  N   UNL     1      -7.041  12.350  68.161  1.00  0.00    -0.087 NA 
HETATM    3  C   UNL     1      -6.690  11.575  69.354  1.00  0.00    -0.116 C  
ENDROOT
BRANCH   2   4
HETATM    4  C   UNL     1      -8.037  13.375  68.525  1.00  0.00    -0.105 C  
BRANCH   4   5
HETATM    5  C   UNL     1      -9.151  13.597  67.495  1.00  0.00    -0.213 C  
HETATM    6  C   UNL     1      -9.824  12.306  66.966  1.00  0.00    -0.211 C  
HETATM    7  C   UNL     1     -10.535  11.541  68.079  1.00  0.00    -0.214 A  
HETATM    8  C   UNL     1     -10.721  12.629  65.768  1.00  0.00    -0.268 A  
HETATM    9  C   UNL     1     -11.587  12.117  68.809  1.00  0.00    -0.380 A  
HETATM   10  C   UNL     1     -10.954  11.662  64.789  1.00  0.00    -0.351 A  
HETATM   11  C   UNL     1     -11.662  12.019  63.642  1.00  0.00    -0.587 A  
HETATM   12  C   UNL     1     -12.134  11.456  69.914  1.00  0.00    -0.404 A  
HETATM   13  C   UNL     1     -12.127  13.320  63.502  1.00  0.00    -0.550 A  
HETATM   14  C   UNL     1     -11.643  10.208  70.288  1.00  0.00    -0.302 A  
HETATM   15  C   UNL     1     -11.885  14.211  64.531  1.00  0.00    -0.436 A  
HETATM   16  C   UNL     1     -10.629   9.601  69.552  1.00  0.00    -0.247 A  
HETATM   17 BR   UNL     1     -12.333   9.349  71.825  1.00  0.00    -0.480 Br 
HETATM   18  N   UNL     1     -11.209  13.893  65.655  1.00  0.00    -0.303 NA 
HETATM   19  C   UNL     1     -10.079  10.264  68.453  1.00  0.00    -0.178 A  
ENDBRANCH   4   5
ENDBRANCH   2   4
TORSDOF 2
ENDMDL
MODEL       27
REMARK 921   NORMALIZED FREE ENERGY PREDICTED BY IDOCK:   -5.10 KCAL/MOL
REMARK 922        TOTAL FREE ENERGY PREDICTED BY IDOCK:   -5.86 KCAL/MOL
REMARK 923 INTER-LIGAND FREE ENERGY PREDICTED BY IDOCK:   -5.59 KCAL/MOL
REMARK 924 INTRA-LIGAND FREE ENERGY PREDICTED BY IDOCK:   -0.27 KCAL/MOL
REMARK 927      BINDING AFFINITY PREDICTED BY RF-SCORE:    0.00 PKD
ROOT
HETATM    1  C   UNL     1     -12.529  12.153  71.037  1.00  0.00    -0.269 C  
HETATM    2  N   UNL     1     -12.624  13.540  70.574  1.00  0.00    -0.279 NA 
HETATM    3  C   UNL     1     -12.445  14.449  71.710  1.00  0.00    -0.339 C  
ENDROOT
BRANCH   2   4
HETATM    4  C   UNL     1     -11.616  13.851  69.543  1.00  0.00    -0.301 C  
BRANCH   4   5
HETATM    5  C   UNL     1     -11.964  13.374  68.127  1.00  0.00    -0.356 C  
HETATM    6  C   UNL     1     -10.788  12.748  67.337  1.00  0.00    -0.265 C  
HETATM    7  C   UNL     1     -10.266  11.479  68.007  1.00  0.00    -0.205 A  
HETATM    8  C   UNL     1     -11.178  12.555  65.869  1.00  0.00    -0.320 A  
HETATM    9  C   UNL     1     -11.091  10.360  68.200  1.00  0.00    -0.344 A  
HETATM   10  C   UNL     1     -10.198  12.579  64.877  1.00  0.00    -0.301 A  
HETATM   11  C   UNL     1     -10.590  12.536  63.539  1.00  0.00    -0.394 A  
HETATM   12  C   UNL     1     -10.639   9.260  68.937  1.00  0.00    -0.222 A  
HETATM   13  C   UNL     1     -11.941  12.461  63.224  1.00  0.00    -0.509 A  
HETATM   14  C   UNL     1      -9.354   9.265  69.474  1.00  0.00    -0.173 A  
HETATM   15  C   UNL     1     -12.849  12.407  64.264  1.00  0.00    -0.258 A  
HETATM   16  C   UNL     1      -8.506  10.349  69.259  1.00  0.00    -0.162 A  
HETATM   17 BR   UNL     1      -8.771   7.810  70.531  1.00  0.00    -0.141 Br 
HETATM   18  N   UNL     1     -12.499  12.441  65.568  1.00  0.00    -0.591 NA 
HETATM   19  C   UNL     1      -8.960  11.449  68.528  1.00  0.00    -0.158 A  
ENDBRANCH   4   5
ENDBRANCH   2   4
TORSDOF 2
ENDMDL
MODEL       28
REMARK 921   NORMALIZED FREE ENERGY PREDICTED BY IDOCK:   -5.10 KCAL/MOL
REMARK 922        TOTAL FREE ENERGY PREDICTED BY IDOCK:   -5.85 KCAL/MOL
REMARK 923 INTER-LIGAND FREE ENERGY PREDICTED BY IDOCK:   -5.66 KCAL/MOL
REMARK 924 INTRA-LIGAND FREE ENERGY PREDICTED BY IDOCK:   -0.19 KCAL/MOL
REMARK 927      BINDING AFFINITY PREDICTED BY RF-SCORE:    0.00 PKD
ROOT
HETATM    1  C   UNL     1     -10.648  13.172  64.288  1.00  0.00    -0.412 C  
HETATM    2  N   UNL     1     -10.952  14.100  65.380  1.00  0.00    -0.313 NA 
HETATM    3  C   UNL     1     -11.049  15.464  64.852  1.00  0.00    -0.423 C  
ENDROOT
BRANCH   2   4
HETATM    4  C   UNL     1     -12.213  13.757  66.064  1.00  0.00    -0.457 C  
BRANCH   4   5
HETATM    5  C   UNL     1     -12.352  14.306  67.490  1.00  0.00    -0.084 C  
HETATM    6  C   UNL     1     -11.928  13.330  68.615  1.00  0.00    -0.345 C  
HETATM    7  C   UNL     1     -10.446  12.974  68.528  1.00  0.00    -0.261 A  
HETATM    8  C   UNL     1     -12.353  13.877  69.980  1.00  0.00    -0.316 A  
HETATM    9  C   UNL     1      -9.449  13.958  68.631  1.00  0.00    -0.123 A  
HETATM   10  C   UNL     1     -12.626  13.001  71.030  1.00  0.00    -0.386 A  
HETATM   11  C   UNL     1     -13.140  13.512  72.222  1.00  0.00    -0.488 A  
HETATM   12  C   UNL     1      -8.106  13.636  68.411  1.00  0.00    -0.146 A  
HETATM   13  C   UNL     1     -13.359  14.878  72.340  1.00  0.00    -0.502 A  
HETATM   14  C   UNL     1      -7.747  12.326  68.103  1.00  0.00    -0.138 A  
HETATM   15  C   UNL     1     -13.032  15.686  71.268  1.00  0.00    -0.492 A  
HETATM   16  C   UNL     1      -8.716  11.329  68.037  1.00  0.00    -0.144 A  
HETATM   17 BR   UNL     1      -5.940  11.907  67.735  1.00  0.00    -0.075 Br 
HETATM   18  N   UNL     1     -12.527  15.220  70.105  1.00  0.00    -0.352 NA 
HETATM   19  C   UNL     1     -10.058  11.651  68.250  1.00  0.00    -0.206 A  
ENDBRANCH   4   5
ENDBRANCH   2   4
TORSDOF 2
ENDMDL
MODEL       29
REMARK 921   NORMALIZED FREE ENERGY PREDICTED BY IDOCK:   -5.09 KCAL/MOL
REMARK 922        TOTAL FREE ENERGY PREDICTED BY IDOCK:   -5.84 KCAL/MOL
REMARK 923 INTER-LIGAND FREE ENERGY PREDICTED BY IDOCK:   -5.45 KCAL/MOL
REMARK 924 INTRA-LIGAND FREE ENERGY PREDICTED BY IDOCK:   -0.39 KCAL/MOL
REMARK 927      BINDING AFFINITY PREDICTED BY RF-SCORE:    0.00 PKD
ROOT
HETATM    1  C   UNL     1     -12.751  11.754  63.542  1.00  0.00    -0.306 C  
HETATM    2  N   UNL     1     -11.692  12.750  63.355  1.00  0.00    -0.522 NA 
HETATM    3  C   UNL     1     -11.991  13.940  64.156  1.00  0.00    -0.428 C  
ENDROOT
BRANCH   2   4
HETATM    4  C   UNL     1     -10.367  12.228  63.740  1.00  0.00    -0.435 C  
BRANCH   4   5
HETATM    5  C   UNL     1     -10.392  10.992  64.647  1.00  0.00    -0.410 C  
HETATM    6  C   UNL     1      -9.520  11.096  65.924  1.00  0.00    -0.241 C  
HETATM    7  C   UNL     1     -10.002  12.210  66.850  1.00  0.00    -0.217 A  
HETATM    8  C   UNL     1      -9.413   9.729  66.605  1.00  0.00    -0.171 A  
HETATM    9  C   UNL     1     -11.293  12.198  67.402  1.00  0.00    -0.393 A  
HETATM   10  C   UNL     1      -8.288   9.416  67.369  1.00  0.00    -0.125 A  
HETATM   11  C   UNL     1      -8.150   8.121  67.868  1.00  0.00    -0.128 A  
HETATM   12  C   UNL     1     -11.765  13.292  68.134  1.00  0.00    -0.397 A  
HETATM   13  C   UNL     1      -9.134   7.178  67.604  1.00  0.00    -0.127 A  
HETATM   14  C   UNL     1     -10.945  14.400  68.333  1.00  0.00    -0.248 A  
HETATM   15  C   UNL     1     -10.235   7.574  66.869  1.00  0.00    -0.289 A  
HETATM   16  C   UNL     1      -9.647  14.414  67.829  1.00  0.00    -0.216 A  
HETATM   17 BR   UNL     1     -11.610  15.907  69.261  1.00  0.00    -0.353 Br 
HETATM   18  N   UNL     1     -10.399   8.822  66.378  1.00  0.00    -0.212 NA 
HETATM   19  C   UNL     1      -9.178  13.324  67.092  1.00  0.00    -0.235 A  
ENDBRANCH   4   5
ENDBRANCH   2   4
TORSDOF 2
ENDMDL
MODEL       30
REMARK 921   NORMALIZED FREE ENERGY PREDICTED BY IDOCK:   -5.06 KCAL/MOL
REMARK 922        TOTAL FREE ENERGY PREDICTED BY IDOCK:   -5.81 KCAL/MOL
REMARK 923 INTER-LIGAND FREE ENERGY PREDICTED BY IDOCK:   -5.58 KCAL/MOL
REMARK 924 INTRA-LIGAND FREE ENERGY PREDICTED BY IDOCK:   -0.24 KCAL/MOL
REMARK 927      BINDING AFFINITY PREDICTED BY RF-SCORE:    0.00 PKD
ROOT
HETATM    1  C   UNL     1      -9.970  18.736  68.670  1.00  0.00    -0.394 C  
HETATM    2  N   UNL     1     -10.417  19.266  67.379  1.00  0.00    -0.431 NA 
HETATM    3  C   UNL     1      -9.871  20.613  67.187  1.00  0.00    -0.357 C  
ENDROOT
BRANCH   2   4
HETATM    4  C   UNL     1      -9.999  18.410  66.254  1.00  0.00    -0.366 C  
BRANCH   4   5
HETATM    5  C   UNL     1     -10.736  17.069  66.146  1.00  0.00    -0.099 C  
HETATM    6  C   UNL     1      -9.836  15.847  65.834  1.00  0.00    -0.383 C  
HETATM    7  C   UNL     1      -8.822  15.591  66.945  1.00  0.00    -0.284 A  
HETATM    8  C   UNL     1     -10.698  14.629  65.491  1.00  0.00    -0.349 A  
HETATM    9  C   UNL     1      -9.229  15.301  68.257  1.00  0.00    -0.189 A  
HETATM   10  C   UNL     1     -10.201  13.638  64.644  1.00  0.00    -0.338 A  
HETATM   11  C   UNL     1     -11.048  12.607  64.239  1.00  0.00    -0.405 A  
HETATM   12  C   UNL     1      -8.291  15.206  69.290  1.00  0.00    -0.211 A  
HETATM   13  C   UNL     1     -12.361  12.584  64.692  1.00  0.00    -0.547 A  
HETATM   14  C   UNL     1      -6.937  15.386  69.017  1.00  0.00    -0.138 A  
HETATM   15  C   UNL     1     -12.769  13.582  65.557  1.00  0.00    -0.440 A  
HETATM   16  C   UNL     1      -6.510  15.633  67.715  1.00  0.00    -0.181 A  
HETATM   17 BR   UNL     1      -5.678  15.330  70.426  1.00  0.00    -0.109 Br 
HETATM   18  N   UNL     1     -11.969  14.588  65.971  1.00  0.00    -0.348 NA 
HETATM   19  C   UNL     1      -7.447  15.734  66.685  1.00  0.00    -0.006 A  
ENDBRANCH   4   5
ENDBRANCH   2   4
TORSDOF 2
ENDMDL
MODEL       31
REMARK 921   NORMALIZED FREE ENERGY PREDICTED BY IDOCK:   -5.06 KCAL/MOL
REMARK 922        TOTAL FREE ENERGY PREDICTED BY IDOCK:   -5.81 KCAL/MOL
REMARK 923 INTER-LIGAND FREE ENERGY PREDICTED BY IDOCK:   -5.49 KCAL/MOL
REMARK 924 INTRA-LIGAND FREE ENERGY PREDICTED BY IDOCK:   -0.32 KCAL/MOL
REMARK 927      BINDING AFFINITY PREDICTED BY RF-SCORE:    0.00 PKD
ROOT
HETATM    1  C   UNL     1     -12.967  13.871  65.329  1.00  0.00    -0.297 C  
HETATM    2  N   UNL     1     -11.687  13.886  66.043  1.00  0.00    -0.350 NA 
HETATM    3  C   UNL     1     -11.351  12.527  66.476  1.00  0.00    -0.334 C  
ENDROOT
BRANCH   2   4
HETATM    4  C   UNL     1     -10.592  14.411  65.206  1.00  0.00    -0.382 C  
BRANCH   4   5
HETATM    5  C   UNL     1     -10.215  15.875  65.469  1.00  0.00    -0.394 C  
HETATM    6  C   UNL     1      -9.981  16.236  66.956  1.00  0.00    -0.255 C  
HETATM    7  C   UNL     1      -8.802  15.467  67.548  1.00  0.00    -0.190 A  
HETATM    8  C   UNL     1      -9.874  17.754  67.123  1.00  0.00    -0.311 A  
HETATM    9  C   UNL     1      -7.505  15.600  67.028  1.00  0.00    -0.228 A  
HETATM   10  C   UNL     1     -10.244  18.353  68.327  1.00  0.00    -0.412 A  
HETATM   11  C   UNL     1     -10.265  19.745  68.411  1.00  0.00    -0.568 A  
HETATM   12  C   UNL     1      -6.465  14.787  67.491  1.00  0.00    -0.090 A  
HETATM   13  C   UNL     1      -9.911  20.503  67.302  1.00  0.00    -0.581 A  
HETATM   14  C   UNL     1      -6.711  13.845  68.487  1.00  0.00    -0.100 A  
HETATM   15  C   UNL     1      -9.523  19.836  66.156  1.00  0.00    -0.383 A  
HETATM   16  C   UNL     1      -7.981  13.726  69.044  1.00  0.00     0.136 A  
HETATM   17 BR   UNL     1      -5.322  12.697  69.059  1.00  0.00    -0.068 Br 
HETATM   18  N   UNL     1      -9.486  18.490  66.047  1.00  0.00    -0.494 NA 
HETATM   19  C   UNL     1      -9.021  14.534  68.578  1.00  0.00    -0.188 A  
ENDBRANCH   4   5
ENDBRANCH   2   4
TORSDOF 2
ENDMDL
MODEL       32
REMARK 921   NORMALIZED FREE ENERGY PREDICTED BY IDOCK:   -5.04 KCAL/MOL
REMARK 922        TOTAL FREE ENERGY PREDICTED BY IDOCK:   -5.79 KCAL/MOL
REMARK 923 INTER-LIGAND FREE ENERGY PREDICTED BY IDOCK:   -5.61 KCAL/MOL
REMARK 924 INTRA-LIGAND FREE ENERGY PREDICTED BY IDOCK:   -0.18 KCAL/MOL
REMARK 927      BINDING AFFINITY PREDICTED BY RF-SCORE:    0.00 PKD
ROOT
HETATM    1  C   UNL     1     -12.762  10.485  71.503  1.00  0.00    -0.452 C  
HETATM    2  N   UNL     1     -11.712  10.968  70.604  1.00  0.00    -0.321 NA 
HETATM    3  C   UNL     1     -10.722   9.908  70.391  1.00  0.00    -0.318 C  
ENDROOT
BRANCH   2   4
HETATM    4  C   UNL     1     -12.252  11.394  69.299  1.00  0.00    -0.204 C  
BRANCH   4   5
HETATM    5  C   UNL     1     -11.354  11.093  68.092  1.00  0.00    -0.377 C  
HETATM    6  C   UNL     1     -11.475  12.095  66.917  1.00  0.00    -0.414 C  
HETATM    7  C   UNL     1     -11.041  13.501  67.325  1.00  0.00    -0.302 A  
HETATM    8  C   UNL     1     -10.745  11.557  65.684  1.00  0.00    -0.267 A  
HETATM    9  C   UNL     1      -9.738  13.765  67.775  1.00  0.00    -0.230 A  
HETATM   10  C   UNL     1     -11.166  11.926  64.406  1.00  0.00    -0.401 A  
HETATM   11  C   UNL     1     -10.574  11.321  63.298  1.00  0.00    -0.326 A  
HETATM   12  C   UNL     1      -9.398  15.027  68.273  1.00  0.00    -0.192 A  
HETATM   13  C   UNL     1      -9.576  10.373  63.489  1.00  0.00    -0.361 A  
HETATM   14  C   UNL     1     -10.354  16.038  68.312  1.00  0.00    -0.261 A  
HETATM   15  C   UNL     1      -9.190  10.086  64.784  1.00  0.00    -0.249 A  
HETATM   16  C   UNL     1     -11.641  15.809  67.832  1.00  0.00    -0.153 A  
HETATM   17 BR   UNL     1      -9.913  17.721  69.054  1.00  0.00    -0.203 Br 
HETATM   18  N   UNL     1      -9.740  10.661  65.875  1.00  0.00    -0.211 NA 
HETATM   19  C   UNL     1     -11.982  14.547  67.340  1.00  0.00    -0.367 A  
ENDBRANCH   4   5
ENDBRANCH   2   4
TORSDOF 2
ENDMDL
MODEL       33
REMARK 921   NORMALIZED FREE ENERGY PREDICTED BY IDOCK:   -5.03 KCAL/MOL
REMARK 922        TOTAL FREE ENERGY PREDICTED BY IDOCK:   -5.78 KCAL/MOL
REMARK 923 INTER-LIGAND FREE ENERGY PREDICTED BY IDOCK:   -5.44 KCAL/MOL
REMARK 924 INTRA-LIGAND FREE ENERGY PREDICTED BY IDOCK:   -0.34 KCAL/MOL
REMARK 927      BINDING AFFINITY PREDICTED BY RF-SCORE:    0.00 PKD
ROOT
HETATM    1  C   UNL     1     -11.981   7.938  72.315  1.00  0.00    -0.337 C  
HETATM    2  N   UNL     1     -12.949   8.708  71.530  1.00  0.00    -0.325 NA 
HETATM    3  C   UNL     1     -14.289   8.536  72.099  1.00  0.00    -0.436 C  
ENDROOT
BRANCH   2   4
HETATM    4  C   UNL     1     -12.618  10.145  71.497  1.00  0.00    -0.434 C  
BRANCH   4   5
HETATM    5  C   UNL     1     -12.398  10.732  70.097  1.00  0.00    -0.401 C  
HETATM    6  C   UNL     1     -10.916  10.922  69.689  1.00  0.00    -0.311 C  
HETATM    7  C   UNL     1     -10.171   9.591  69.624  1.00  0.00    -0.234 A  
HETATM    8  C   UNL     1     -10.822  11.747  68.403  1.00  0.00    -0.223 A  
HETATM    9  C   UNL     1     -10.567   8.572  68.743  1.00  0.00    -0.162 A  
HETATM   10  C   UNL     1      -9.694  12.529  68.156  1.00  0.00    -0.222 A  
HETATM   11  C   UNL     1      -9.687  13.374  67.046  1.00  0.00    -0.239 A  
HETATM   12  C   UNL     1      -9.962   7.312  68.793  1.00  0.00    -0.167 A  
HETATM   13  C   UNL     1     -10.795  13.412  66.209  1.00  0.00    -0.294 A  
HETATM   14  C   UNL     1      -8.946   7.066  69.714  1.00  0.00    -0.141 A  
HETATM   15  C   UNL     1     -11.860  12.582  66.502  1.00  0.00    -0.367 A  
HETATM   16  C   UNL     1      -8.511   8.076  70.567  1.00  0.00    -0.125 A  
HETATM   17 BR   UNL     1      -8.179   5.342  69.830  1.00  0.00    -0.099 Br 
HETATM   18  N   UNL     1     -11.892  11.749  67.564  1.00  0.00    -0.617 NA 
HETATM   19  C   UNL     1      -9.120   9.333  70.522  1.00  0.00    -0.307 A  
ENDBRANCH   4   5
ENDBRANCH   2   4
TORSDOF 2
ENDMDL
MODEL       34
REMARK 921   NORMALIZED FREE ENERGY PREDICTED BY IDOCK:   -4.98 KCAL/MOL
REMARK 922        TOTAL FREE ENERGY PREDICTED BY IDOCK:   -5.72 KCAL/MOL
REMARK 923 INTER-LIGAND FREE ENERGY PREDICTED BY IDOCK:   -5.41 KCAL/MOL
REMARK 924 INTRA-LIGAND FREE ENERGY PREDICTED BY IDOCK:   -0.30 KCAL/MOL
REMARK 927      BINDING AFFINITY PREDICTED BY RF-SCORE:    0.00 PKD
ROOT
HETATM    1  C   UNL     1      -8.774   9.245  68.470  1.00  0.00    -0.128 C  
HETATM    2  N   UNL     1      -9.755  10.250  68.886  1.00  0.00    -0.179 NA 
HETATM    3  C   UNL     1     -10.387   9.828  70.139  1.00  0.00    -0.282 C  
ENDROOT
BRANCH   2   4
HETATM    4  C   UNL     1      -9.142  11.578  69.077  1.00  0.00     0.141 C  
BRANCH   4   5
HETATM    5  C   UNL     1      -9.502  12.622  68.012  1.00  0.00    -0.209 C  
HETATM    6  C   UNL     1     -11.002  12.998  67.941  1.00  0.00    -0.264 C  
HETATM    7  C   UNL     1     -11.486  13.648  69.235  1.00  0.00    -0.344 A  
HETATM    8  C   UNL     1     -11.281  13.833  66.688  1.00  0.00    -0.318 A  
HETATM    9  C   UNL     1     -10.927  14.846  69.707  1.00  0.00    -0.280 A  
HETATM   10  C   UNL     1     -12.541  13.799  66.092  1.00  0.00    -0.423 A  
HETATM   11  C   UNL     1     -12.733  14.461  64.880  1.00  0.00    -0.191 A  
HETATM   12  C   UNL     1     -11.284  15.354  70.960  1.00  0.00    -0.408 A  
HETATM   13  C   UNL     1     -11.672  15.143  64.298  1.00  0.00    -0.234 A  
HETATM   14  C   UNL     1     -12.213  14.676  71.745  1.00  0.00    -0.338 A  
HETATM   15  C   UNL     1     -10.464  15.159  64.967  1.00  0.00    -0.389 A  
HETATM   16  C   UNL     1     -12.810  13.508  71.277  1.00  0.00    -0.420 A  
HETATM   17 BR   UNL     1     -12.640  15.325  73.469  1.00  0.00    -0.741 Br 
HETATM   18  N   UNL     1     -10.250  14.534  66.145  1.00  0.00    -0.293 NA 
HETATM   19  C   UNL     1     -12.449  12.998  70.028  1.00  0.00    -0.112 A  
ENDBRANCH   4   5
ENDBRANCH   2   4
TORSDOF 2
ENDMDL
MODEL       35
REMARK 921   NORMALIZED FREE ENERGY PREDICTED BY IDOCK:   -4.97 KCAL/MOL
REMARK 922        TOTAL FREE ENERGY PREDICTED BY IDOCK:   -5.71 KCAL/MOL
REMARK 923 INTER-LIGAND FREE ENERGY PREDICTED BY IDOCK:   -5.60 KCAL/MOL
REMARK 924 INTRA-LIGAND FREE ENERGY PREDICTED BY IDOCK:   -0.12 KCAL/MOL
REMARK 927      BINDING AFFINITY PREDICTED BY RF-SCORE:    0.00 PKD
ROOT
HETATM    1  C   UNL     1     -11.603  14.812  64.719  1.00  0.00    -0.418 C  
HETATM    2  N   UNL     1     -11.916  13.978  65.882  1.00  0.00    -0.388 NA 
HETATM    3  C   UNL     1     -12.247  12.621  65.437  1.00  0.00    -0.459 C  
ENDROOT
BRANCH   2   4
HETATM    4  C   UNL     1     -10.792  13.913  66.836  1.00  0.00    -0.286 C  
BRANCH   4   5
HETATM    5  C   UNL     1     -10.052  15.237  67.062  1.00  0.00    -0.248 C  
HETATM    6  C   UNL     1     -10.903  16.366  67.696  1.00  0.00    -0.280 C  
HETATM    7  C   UNL     1     -11.382  15.996  69.097  1.00  0.00    -0.352 A  
HETATM    8  C   UNL     1     -10.151  17.698  67.630  1.00  0.00    -0.339 A  
HETATM    9  C   UNL     1     -10.474  15.726  70.134  1.00  0.00    -0.288 A  
HETATM   10  C   UNL     1     -10.859  18.898  67.574  1.00  0.00    -0.440 A  
HETATM   11  C   UNL     1     -10.158  20.088  67.380  1.00  0.00    -0.568 A  
HETATM   12  C   UNL     1     -10.926  15.256  71.371  1.00  0.00    -0.179 A  
HETATM   13  C   UNL     1      -8.775  20.054  67.257  1.00  0.00    -0.417 A  
HETATM   14  C   UNL     1     -12.289  15.067  71.587  1.00  0.00    -0.342 A  
HETATM   15  C   UNL     1      -8.142  18.829  67.359  1.00  0.00    -0.251 A  
HETATM   16  C   UNL     1     -13.208  15.369  70.585  1.00  0.00    -0.356 A  
HETATM   17 BR   UNL     1     -12.892  14.362  73.235  1.00  0.00    -0.216 Br 
HETATM   18  N   UNL     1      -8.794  17.663  67.552  1.00  0.00    -0.230 NA 
HETATM   19  C   UNL     1     -12.756  15.832  69.348  1.00  0.00     0.458 A  
ENDBRANCH   4   5
ENDBRANCH   2   4
TORSDOF 2
ENDMDL
MODEL       36
REMARK 921   NORMALIZED FREE ENERGY PREDICTED BY IDOCK:   -4.95 KCAL/MOL
REMARK 922        TOTAL FREE ENERGY PREDICTED BY IDOCK:   -5.69 KCAL/MOL
REMARK 923 INTER-LIGAND FREE ENERGY PREDICTED BY IDOCK:   -5.51 KCAL/MOL
REMARK 924 INTRA-LIGAND FREE ENERGY PREDICTED BY IDOCK:   -0.18 KCAL/MOL
REMARK 927      BINDING AFFINITY PREDICTED BY RF-SCORE:    0.00 PKD
ROOT
HETATM    1  C   UNL     1     -10.408   9.001  68.206  1.00  0.00    -0.209 C  
HETATM    2  N   UNL     1     -10.701   9.274  69.616  1.00  0.00    -0.230 NA 
HETATM    3  C   UNL     1      -9.601   8.781  70.449  1.00  0.00    -0.182 C  
ENDROOT
BRANCH   2   4
HETATM    4  C   UNL     1     -10.894  10.714  69.873  1.00  0.00    -0.241 C  
BRANCH   4   5
HETATM    5  C   UNL     1     -10.637  11.631  68.670  1.00  0.00    -0.236 C  
HETATM    6  C   UNL     1     -11.761  12.653  68.371  1.00  0.00    -0.377 C  
HETATM    7  C   UNL     1     -11.951  13.640  69.520  1.00  0.00    -0.397 A  
HETATM    8  C   UNL     1     -11.522  13.322  67.015  1.00  0.00    -0.339 A  
HETATM    9  C   UNL     1     -10.913  14.490  69.935  1.00  0.00    -0.147 A  
HETATM   10  C   UNL     1     -12.601  13.796  66.269  1.00  0.00    -0.372 A  
HETATM   11  C   UNL     1     -12.373  14.280  64.981  1.00  0.00    -0.434 A  
HETATM   12  C   UNL     1     -11.058  15.288  71.074  1.00  0.00    -0.337 A  
HETATM   13  C   UNL     1     -11.080  14.287  64.473  1.00  0.00    -0.321 A  
HETATM   14  C   UNL     1     -12.247  15.253  71.799  1.00  0.00    -0.360 A  
HETATM   15  C   UNL     1     -10.059  13.833  65.286  1.00  0.00    -0.288 A  
HETATM   16  C   UNL     1     -13.303  14.448  71.380  1.00  0.00    -0.420 A  
HETATM   17 BR   UNL     1     -12.415  16.276  73.380  1.00  0.00    -0.590 Br 
HETATM   18  N   UNL     1     -10.249  13.366  66.538  1.00  0.00    -0.276 NA 
HETATM   19  C   UNL     1     -13.155  13.646  70.246  1.00  0.00     0.248 A  
ENDBRANCH   4   5
ENDBRANCH   2   4
TORSDOF 2
ENDMDL
MODEL       37
REMARK 921   NORMALIZED FREE ENERGY PREDICTED BY IDOCK:   -4.94 KCAL/MOL
REMARK 922        TOTAL FREE ENERGY PREDICTED BY IDOCK:   -5.68 KCAL/MOL
REMARK 923 INTER-LIGAND FREE ENERGY PREDICTED BY IDOCK:   -5.51 KCAL/MOL
REMARK 924 INTRA-LIGAND FREE ENERGY PREDICTED BY IDOCK:   -0.17 KCAL/MOL
REMARK 927      BINDING AFFINITY PREDICTED BY RF-SCORE:    0.00 PKD
ROOT
HETATM    1  C   UNL     1     -12.880  13.851  72.178  1.00  0.00    -0.298 C  
HETATM    2  N   UNL     1     -12.493  15.132  71.580  1.00  0.00    -0.324 NA 
HETATM    3  C   UNL     1     -12.157  16.086  72.641  1.00  0.00    -0.538 C  
ENDROOT
BRANCH   2   4
HETATM    4  C   UNL     1     -11.340  14.993  70.672  1.00  0.00    -0.271 C  
BRANCH   4   5
HETATM    5  C   UNL     1     -11.175  16.124  69.649  1.00  0.00    -0.331 C  
HETATM    6  C   UNL     1      -9.710  16.502  69.318  1.00  0.00    -0.193 C  
HETATM    7  C   UNL     1      -8.958  15.343  68.670  1.00  0.00    -0.191 A  
HETATM    8  C   UNL     1      -9.669  17.798  68.503  1.00  0.00    -0.343 A  
HETATM    9  C   UNL     1      -9.378  14.787  67.451  1.00  0.00    -0.199 A  
HETATM   10  C   UNL     1      -8.556  18.636  68.580  1.00  0.00    -0.370 A  
HETATM   11  C   UNL     1      -8.595  19.872  67.936  1.00  0.00    -0.341 A  
HETATM   12  C   UNL     1      -8.762  13.639  66.942  1.00  0.00    -0.162 A  
HETATM   13  C   UNL     1      -9.733  20.239  67.228  1.00  0.00    -0.590 A  
HETATM   14  C   UNL     1      -7.711  13.048  67.639  1.00  0.00    -0.161 A  
HETATM   15  C   UNL     1     -10.781  19.340  67.170  1.00  0.00    -0.480 A  
HETATM   16  C   UNL     1      -7.253  13.608  68.828  1.00  0.00    -0.100 A  
HETATM   17 BR   UNL     1      -6.928  11.455  66.987  1.00  0.00    -0.142 Br 
HETATM   18  N   UNL     1     -10.768  18.134  67.778  1.00  0.00    -0.392 NA 
HETATM   19  C   UNL     1      -7.873  14.750  69.340  1.00  0.00    -0.083 A  
ENDBRANCH   4   5
ENDBRANCH   2   4
TORSDOF 2
ENDMDL
MODEL       38
REMARK 921   NORMALIZED FREE ENERGY PREDICTED BY IDOCK:   -4.91 KCAL/MOL
REMARK 922        TOTAL FREE ENERGY PREDICTED BY IDOCK:   -5.64 KCAL/MOL
REMARK 923 INTER-LIGAND FREE ENERGY PREDICTED BY IDOCK:   -5.17 KCAL/MOL
REMARK 924 INTRA-LIGAND FREE ENERGY PREDICTED BY IDOCK:   -0.46 KCAL/MOL
REMARK 927      BINDING AFFINITY PREDICTED BY RF-SCORE:    0.00 PKD
ROOT
HETATM    1  C   UNL     1     -10.289   9.805  70.282  1.00  0.00    -0.291 C  
HETATM    2  N   UNL     1      -8.843   9.687  70.081  1.00  0.00    -0.228 NA 
HETATM    3  C   UNL     1      -8.487   8.278  69.897  1.00  0.00    -0.127 C  
ENDROOT
BRANCH   2   4
HETATM    4  C   UNL     1      -8.381  10.459  68.913  1.00  0.00    -0.138 C  
BRANCH   4   5
HETATM    5  C   UNL     1      -9.494  10.973  67.990  1.00  0.00    -0.169 C  
HETATM    6  C   UNL     1      -9.418  10.472  66.527  1.00  0.00    -0.200 C  
HETATM    7  C   UNL     1      -9.572   8.956  66.437  1.00  0.00    -0.304 A  
HETATM    8  C   UNL     1     -10.405  11.246  65.649  1.00  0.00    -0.256 A  
HETATM    9  C   UNL     1     -10.735   8.310  66.886  1.00  0.00    -0.179 A  
HETATM   10  C   UNL     1     -10.144  11.421  64.290  1.00  0.00    -0.347 A  
HETATM   11  C   UNL     1     -10.987  12.240  63.540  1.00  0.00    -0.521 A  
HETATM   12  C   UNL     1     -10.804   6.913  66.925  1.00  0.00    -0.380 A  
HETATM   13  C   UNL     1     -12.069  12.856  64.157  1.00  0.00    -0.503 A  
HETATM   14  C   UNL     1      -9.717   6.152  66.501  1.00  0.00    -0.145 A  
HETATM   15  C   UNL     1     -12.281  12.607  65.499  1.00  0.00    -0.440 A  
HETATM   16  C   UNL     1      -8.571   6.774  66.014  1.00  0.00    -0.149 A  
HETATM   17 BR   UNL     1      -9.785   4.267  66.623  1.00  0.00    -0.235 Br 
HETATM   18  N   UNL     1     -11.486  11.813  66.249  1.00  0.00    -0.411 NA 
HETATM   19  C   UNL     1      -8.499   8.169  65.981  1.00  0.00    -0.150 A  
ENDBRANCH   4   5
ENDBRANCH   2   4
TORSDOF 2
ENDMDL
MODEL       39
REMARK 921   NORMALIZED FREE ENERGY PREDICTED BY IDOCK:   -4.87 KCAL/MOL
REMARK 922        TOTAL FREE ENERGY PREDICTED BY IDOCK:   -5.60 KCAL/MOL
REMARK 923 INTER-LIGAND FREE ENERGY PREDICTED BY IDOCK:   -5.32 KCAL/MOL
REMARK 924 INTRA-LIGAND FREE ENERGY PREDICTED BY IDOCK:   -0.28 KCAL/MOL
REMARK 927      BINDING AFFINITY PREDICTED BY RF-SCORE:    0.00 PKD
ROOT
HETATM    1  C   UNL     1      -5.631   9.237  71.620  1.00  0.00    -0.072 C  
HETATM    2  N   UNL     1      -6.803   9.825  70.966  1.00  0.00    -0.325 NA 
HETATM    3  C   UNL     1      -6.379  10.934  70.107  1.00  0.00    -0.149 C  
ENDROOT
BRANCH   2   4
HETATM    4  C   UNL     1      -7.538   8.838  70.153  1.00  0.00    -0.072 C  
BRANCH   4   5
HETATM    5  C   UNL     1      -9.011   8.645  70.536  1.00  0.00    -0.185 C  
HETATM    6  C   UNL     1      -9.940   9.836  70.196  1.00  0.00    -0.315 C  
HETATM    7  C   UNL     1     -10.008  10.090  68.692  1.00  0.00    -0.176 A  
HETATM    8  C   UNL     1     -11.310   9.644  70.852  1.00  0.00    -0.360 A  
HETATM    9  C   UNL     1     -10.482   9.112  67.804  1.00  0.00    -0.306 A  
HETATM   10  C   UNL     1     -12.081  10.754  71.197  1.00  0.00    -0.415 A  
HETATM   11  C   UNL     1     -13.262  10.561  71.913  1.00  0.00    -0.526 A  
HETATM   12  C   UNL     1     -10.409   9.309  66.421  1.00  0.00    -0.238 A  
HETATM   13  C   UNL     1     -13.648   9.273  72.259  1.00  0.00    -0.544 A  
HETATM   14  C   UNL     1      -9.874  10.491  65.916  1.00  0.00    -0.234 A  
HETATM   15  C   UNL     1     -12.849   8.222  71.852  1.00  0.00    -0.344 A  
HETATM   16  C   UNL     1      -9.436  11.491  66.781  1.00  0.00    -0.202 A  
HETATM   17 BR   UNL     1      -9.708  10.725  64.047  1.00  0.00    -0.397 Br 
HETATM   18  N   UNL     1     -11.704   8.378  71.152  1.00  0.00    -0.279 NA 
HETATM   19  C   UNL     1      -9.504  11.291  68.161  1.00  0.00    -0.184 A  
ENDBRANCH   4   5
ENDBRANCH   2   4
TORSDOF 2
ENDMDL
MODEL       40
REMARK 921   NORMALIZED FREE ENERGY PREDICTED BY IDOCK:   -4.86 KCAL/MOL
REMARK 922        TOTAL FREE ENERGY PREDICTED BY IDOCK:   -5.58 KCAL/MOL
REMARK 923 INTER-LIGAND FREE ENERGY PREDICTED BY IDOCK:   -5.41 KCAL/MOL
REMARK 924 INTRA-LIGAND FREE ENERGY PREDICTED BY IDOCK:   -0.17 KCAL/MOL
REMARK 927      BINDING AFFINITY PREDICTED BY RF-SCORE:    0.00 PKD
ROOT
HETATM    1  C   UNL     1     -13.977  13.770  72.150  1.00  0.00    -0.544 C  
HETATM    2  N   UNL     1     -13.709  15.097  71.590  1.00  0.00    -0.441 NA 
HETATM    3  C   UNL     1     -12.891  15.869  72.530  1.00  0.00    -0.440 C  
ENDROOT
BRANCH   2   4
HETATM    4  C   UNL     1     -13.013  15.021  70.292  1.00  0.00    -0.167 C  
BRANCH   4   5
HETATM    5  C   UNL     1     -12.226  13.727  70.049  1.00  0.00    -0.407 C  
HETATM    6  C   UNL     1     -11.802  13.483  68.580  1.00  0.00    -0.398 C  
HETATM    7  C   UNL     1     -10.848  14.563  68.077  1.00  0.00    -0.249 A  
HETATM    8  C   UNL     1     -11.266  12.058  68.413  1.00  0.00    -0.262 A  
HETATM    9  C   UNL     1      -9.603  14.783  68.687  1.00  0.00    -0.218 A  
HETATM   10  C   UNL     1     -11.373  11.410  67.183  1.00  0.00    -0.327 A  
HETATM   11  C   UNL     1     -11.000  10.070  67.090  1.00  0.00    -0.177 A  
HETATM   12  C   UNL     1      -8.802  15.864  68.304  1.00  0.00    -0.179 A  
HETATM   13  C   UNL     1     -10.523   9.413  68.217  1.00  0.00    -0.260 A  
HETATM   14  C   UNL     1      -9.234  16.725  67.298  1.00  0.00    -0.228 A  
HETATM   15  C   UNL     1     -10.414  10.133  69.392  1.00  0.00    -0.233 A  
HETATM   16  C   UNL     1     -10.447  16.500  66.653  1.00  0.00    -0.266 A  
HETATM   17 BR   UNL     1      -8.185  18.228  66.832  1.00  0.00    -0.271 Br 
HETATM   18  N   UNL     1     -10.761  11.432  69.510  1.00  0.00    -0.115 NA 
HETATM   19  C   UNL     1     -11.249  15.424  67.040  1.00  0.00    -0.229 A  
ENDBRANCH   4   5
ENDBRANCH   2   4
TORSDOF 2
ENDMDL
MODEL       41
REMARK 921   NORMALIZED FREE ENERGY PREDICTED BY IDOCK:   -4.84 KCAL/MOL
REMARK 922        TOTAL FREE ENERGY PREDICTED BY IDOCK:   -5.56 KCAL/MOL
REMARK 923 INTER-LIGAND FREE ENERGY PREDICTED BY IDOCK:   -5.44 KCAL/MOL
REMARK 924 INTRA-LIGAND FREE ENERGY PREDICTED BY IDOCK:   -0.12 KCAL/MOL
REMARK 927      BINDING AFFINITY PREDICTED BY RF-SCORE:    0.00 PKD
ROOT
HETATM    1  C   UNL     1     -13.806  14.738  71.231  1.00  0.00    -0.390 C  
HETATM    2  N   UNL     1     -12.711  15.679  70.982  1.00  0.00    -0.466 NA 
HETATM    3  C   UNL     1     -11.645  15.461  71.964  1.00  0.00    -0.459 C  
ENDROOT
BRANCH   2   4
HETATM    4  C   UNL     1     -12.154  15.534  69.624  1.00  0.00    -0.328 C  
BRANCH   4   5
HETATM    5  C   UNL     1     -10.690  15.966  69.470  1.00  0.00    -0.288 C  
HETATM    6  C   UNL     1      -9.710  14.836  69.068  1.00  0.00    -0.190 C  
HETATM    7  C   UNL     1     -10.043  14.257  67.695  1.00  0.00    -0.229 A  
HETATM    8  C   UNL     1      -8.263  15.317  69.202  1.00  0.00    -0.234 A  
HETATM    9  C   UNL     1     -10.026  15.056  66.540  1.00  0.00    -0.276 A  
HETATM   10  C   UNL     1      -7.245  14.402  69.474  1.00  0.00    -0.051 A  
HETATM   11  C   UNL     1      -5.958  14.878  69.724  1.00  0.00    -0.123 A  
HETATM   12  C   UNL     1     -10.466  14.545  65.315  1.00  0.00    -0.411 A  
HETATM   13  C   UNL     1      -5.716  16.245  69.688  1.00  0.00    -0.163 A  
HETATM   14  C   UNL     1     -10.913  13.229  65.231  1.00  0.00    -0.291 A  
HETATM   15  C   UNL     1      -6.769  17.085  69.377  1.00  0.00    -0.208 A  
HETATM   16  C   UNL     1     -10.898  12.409  66.357  1.00  0.00    -0.291 A  
HETATM   17 BR   UNL     1     -11.576  12.562  63.591  1.00  0.00    -0.608 Br 
HETATM   18  N   UNL     1      -8.023  16.652  69.125  1.00  0.00    -0.204 NA 
HETATM   19  C   UNL     1     -10.465  12.920  67.582  1.00  0.00    -0.228 A  
ENDBRANCH   4   5
ENDBRANCH   2   4
TORSDOF 2
ENDMDL
MODEL       42
REMARK 921   NORMALIZED FREE ENERGY PREDICTED BY IDOCK:   -4.81 KCAL/MOL
REMARK 922        TOTAL FREE ENERGY PREDICTED BY IDOCK:   -5.54 KCAL/MOL
REMARK 923 INTER-LIGAND FREE ENERGY PREDICTED BY IDOCK:   -5.12 KCAL/MOL
REMARK 924 INTRA-LIGAND FREE ENERGY PREDICTED BY IDOCK:   -0.42 KCAL/MOL
REMARK 927      BINDING AFFINITY PREDICTED BY RF-SCORE:    0.00 PKD
ROOT
HETATM    1  C   UNL     1     -12.148  13.820  67.242  1.00  0.00    -0.357 C  
HETATM    2  N   UNL     1     -12.122  13.702  68.702  1.00  0.00    -0.349 NA 
HETATM    3  C   UNL     1     -11.138  12.690  69.094  1.00  0.00    -0.195 C  
ENDROOT
BRANCH   2   4
HETATM    4  C   UNL     1     -11.787  14.981  69.356  1.00  0.00    -0.329 C  
BRANCH   4   5
HETATM    5  C   UNL     1     -11.403  16.120  68.402  1.00  0.00    -0.345 C  
HETATM    6  C   UNL     1     -10.015  16.755  68.662  1.00  0.00    -0.276 C  
HETATM    7  C   UNL     1      -8.885  15.749  68.465  1.00  0.00    -0.193 A  
HETATM    8  C   UNL     1      -9.855  18.034  67.836  1.00  0.00    -0.308 A  
HETATM    9  C   UNL     1      -8.669  15.121  67.228  1.00  0.00    -0.221 A  
HETATM   10  C   UNL     1      -9.025  19.060  68.290  1.00  0.00    -0.372 A  
HETATM   11  C   UNL     1      -8.998  20.266  67.591  1.00  0.00    -0.393 A  
HETATM   12  C   UNL     1      -7.720  14.102  67.102  1.00  0.00    -0.021 A  
HETATM   13  C   UNL     1      -9.787  20.418  66.458  1.00  0.00    -0.452 A  
HETATM   14  C   UNL     1      -6.968  13.713  68.208  1.00  0.00    -0.109 A  
HETATM   15  C   UNL     1     -10.556  19.344  66.052  1.00  0.00    -0.480 A  
HETATM   16  C   UNL     1      -7.138  14.351  69.433  1.00  0.00    -0.113 A  
HETATM   17 BR   UNL     1      -5.737  12.286  68.053  1.00  0.00    -0.074 Br 
HETATM   18  N   UNL     1     -10.597  18.163  66.704  1.00  0.00    -0.324 NA 
HETATM   19  C   UNL     1      -8.091  15.365  69.561  1.00  0.00    -0.207 A  
ENDBRANCH   4   5
ENDBRANCH   2   4
TORSDOF 2
ENDMDL
MODEL       43
REMARK 921   NORMALIZED FREE ENERGY PREDICTED BY IDOCK:   -4.81 KCAL/MOL
REMARK 922        TOTAL FREE ENERGY PREDICTED BY IDOCK:   -5.53 KCAL/MOL
REMARK 923 INTER-LIGAND FREE ENERGY PREDICTED BY IDOCK:   -5.35 KCAL/MOL
REMARK 924 INTRA-LIGAND FREE ENERGY PREDICTED BY IDOCK:   -0.18 KCAL/MOL
REMARK 927      BINDING AFFINITY PREDICTED BY RF-SCORE:    0.00 PKD
ROOT
HETATM    1  C   UNL     1     -13.532  13.590  72.516  1.00  0.00    -0.556 C  
HETATM    2  N   UNL     1     -13.445  14.163  71.170  1.00  0.00    -0.281 NA 
HETATM    3  C   UNL     1     -13.110  15.586  71.264  1.00  0.00    -0.511 C  
ENDROOT
BRANCH   2   4
HETATM    4  C   UNL     1     -12.433  13.481  70.342  1.00  0.00    -0.275 C  
BRANCH   4   5
HETATM    5  C   UNL     1     -11.885  14.306  69.171  1.00  0.00    -0.368 C  
HETATM    6  C   UNL     1     -10.437  13.959  68.743  1.00  0.00    -0.229 C  
HETATM    7  C   UNL     1     -10.325  12.525  68.233  1.00  0.00    -0.241 A  
HETATM    8  C   UNL     1      -9.910  15.008  67.760  1.00  0.00    -0.220 A  
HETATM    9  C   UNL     1     -11.053  12.085  67.115  1.00  0.00    -0.344 A  
HETATM   10  C   UNL     1      -8.542  15.270  67.685  1.00  0.00    -0.178 A  
HETATM   11  C   UNL     1      -8.097  16.319  66.881  1.00  0.00    -0.270 A  
HETATM   12  C   UNL     1     -11.045  10.737  66.746  1.00  0.00    -0.153 A  
HETATM   13  C   UNL     1      -9.021  17.073  66.169  1.00  0.00    -0.243 A  
HETATM   14  C   UNL     1     -10.298   9.819  67.481  1.00  0.00    -0.237 A  
HETATM   15  C   UNL     1     -10.356  16.730  66.268  1.00  0.00    -0.310 A  
HETATM   16  C   UNL     1      -9.538  10.243  68.568  1.00  0.00    -0.165 A  
HETATM   17 BR   UNL     1     -10.347   7.985  67.025  1.00  0.00    -0.410 Br 
HETATM   18  N   UNL     1     -10.814  15.716  67.032  1.00  0.00    -0.315 NA 
HETATM   19  C   UNL     1      -9.550  11.589  68.941  1.00  0.00    -0.045 A  
ENDBRANCH   4   5
ENDBRANCH   2   4
TORSDOF 2
ENDMDL
MODEL       44
REMARK 921   NORMALIZED FREE ENERGY PREDICTED BY IDOCK:   -4.79 KCAL/MOL
REMARK 922        TOTAL FREE ENERGY PREDICTED BY IDOCK:   -5.50 KCAL/MOL
REMARK 923 INTER-LIGAND FREE ENERGY PREDICTED BY IDOCK:   -5.13 KCAL/MOL
REMARK 924 INTRA-LIGAND FREE ENERGY PREDICTED BY IDOCK:   -0.38 KCAL/MOL
REMARK 927      BINDING AFFINITY PREDICTED BY RF-SCORE:    0.00 PKD
ROOT
HETATM    1  C   UNL     1     -10.424   5.962  68.833  1.00  0.00    -0.259 C  
HETATM    2  N   UNL     1      -9.821   6.906  67.889  1.00  0.00    -0.132 NA 
HETATM    3  C   UNL     1      -9.311   6.177  66.725  1.00  0.00    -0.140 C  
ENDROOT
BRANCH   2   4
HETATM    4  C   UNL     1     -10.785   7.927  67.435  1.00  0.00    -0.208 C  
BRANCH   4   5
HETATM    5  C   UNL     1     -10.370   9.379  67.702  1.00  0.00    -0.303 C  
HETATM    6  C   UNL     1     -11.125  10.077  68.860  1.00  0.00    -0.219 C  
HETATM    7  C   UNL     1     -10.863   9.395  70.200  1.00  0.00    -0.287 A  
HETATM    8  C   UNL     1     -10.824  11.578  68.861  1.00  0.00    -0.218 A  
HETATM    9  C   UNL     1      -9.568   9.304  70.735  1.00  0.00    -0.341 A  
HETATM   10  C   UNL     1     -11.762  12.479  69.366  1.00  0.00    -0.383 A  
HETATM   11  C   UNL     1     -11.524  13.846  69.235  1.00  0.00    -0.348 A  
HETATM   12  C   UNL     1      -9.327   8.557  71.893  1.00  0.00    -0.337 A  
HETATM   13  C   UNL     1     -10.359  14.282  68.616  1.00  0.00    -0.246 A  
HETATM   14  C   UNL     1     -10.380   7.908  72.533  1.00  0.00    -0.285 A  
HETATM   15  C   UNL     1      -9.463  13.328  68.173  1.00  0.00    -0.222 A  
HETATM   16  C   UNL     1     -11.678   8.020  72.041  1.00  0.00    -0.375 A  
HETATM   17 BR   UNL     1     -10.040   6.839  74.055  1.00  0.00    -0.387 Br 
HETATM   18  N   UNL     1      -9.663  11.998  68.291  1.00  0.00    -0.202 NA 
HETATM   19  C   UNL     1     -11.918   8.760  70.881  1.00  0.00    -0.235 A  
ENDBRANCH   4   5
ENDBRANCH   2   4
TORSDOF 2
ENDMDL
MODEL       45
REMARK 921   NORMALIZED FREE ENERGY PREDICTED BY IDOCK:   -4.78 KCAL/MOL
REMARK 922        TOTAL FREE ENERGY PREDICTED BY IDOCK:   -5.50 KCAL/MOL
REMARK 923 INTER-LIGAND FREE ENERGY PREDICTED BY IDOCK:   -5.28 KCAL/MOL
REMARK 924 INTRA-LIGAND FREE ENERGY PREDICTED BY IDOCK:   -0.22 KCAL/MOL
REMARK 927      BINDING AFFINITY PREDICTED BY RF-SCORE:    0.00 PKD
ROOT
HETATM    1  C   UNL     1     -12.880  10.263  71.277  1.00  0.00    -0.422 C  
HETATM    2  N   UNL     1     -11.690  10.796  70.609  1.00  0.00    -0.342 NA 
HETATM    3  C   UNL     1     -10.636   9.779  70.598  1.00  0.00    -0.313 C  
ENDROOT
BRANCH   2   4
HETATM    4  C   UNL     1     -11.974  11.212  69.222  1.00  0.00    -0.351 C  
BRANCH   4   5
HETATM    5  C   UNL     1     -11.775  12.706  68.936  1.00  0.00    -0.370 C  
HETATM    6  C   UNL     1     -10.355  13.100  68.459  1.00  0.00    -0.245 C  
HETATM    7  C   UNL     1     -10.003  12.446  67.125  1.00  0.00    -0.211 A  
HETATM    8  C   UNL     1     -10.199  14.623  68.460  1.00  0.00    -0.240 A  
HETATM    9  C   UNL     1     -10.758  12.692  65.967  1.00  0.00    -0.295 A  
HETATM   10  C   UNL     1      -8.941  15.197  68.649  1.00  0.00    -0.191 A  
HETATM   11  C   UNL     1      -8.843  16.582  68.780  1.00  0.00    -0.255 A  
HETATM   12  C   UNL     1     -10.507  11.980  64.789  1.00  0.00    -0.335 A  
HETATM   13  C   UNL     1      -9.992  17.358  68.712  1.00  0.00    -0.329 A  
HETATM   14  C   UNL     1      -9.491  11.028  64.756  1.00  0.00    -0.230 A  
HETATM   15  C   UNL     1     -11.197  16.719  68.489  1.00  0.00    -0.176 A  
HETATM   16  C   UNL     1      -8.704  10.800  65.882  1.00  0.00    -0.189 A  
HETATM   17 BR   UNL     1      -9.201  10.016  63.186  1.00  0.00    -0.286 Br 
HETATM   18  N   UNL     1     -11.322  15.382  68.351  1.00  0.00    -0.324 NA 
HETATM   19  C   UNL     1      -8.959  11.506  67.060  1.00  0.00    -0.174 A  
ENDBRANCH   4   5
ENDBRANCH   2   4
TORSDOF 2
ENDMDL
MODEL       46
REMARK 921   NORMALIZED FREE ENERGY PREDICTED BY IDOCK:   -4.78 KCAL/MOL
REMARK 922        TOTAL FREE ENERGY PREDICTED BY IDOCK:   -5.49 KCAL/MOL
REMARK 923 INTER-LIGAND FREE ENERGY PREDICTED BY IDOCK:   -5.34 KCAL/MOL
REMARK 924 INTRA-LIGAND FREE ENERGY PREDICTED BY IDOCK:   -0.16 KCAL/MOL
REMARK 927      BINDING AFFINITY PREDICTED BY RF-SCORE:    0.00 PKD
ROOT
HETATM    1  C   UNL     1      -5.893   9.585  70.189  1.00  0.00    -0.042 C  
HETATM    2  N   UNL     1      -6.636  10.826  70.427  1.00  0.00    -0.301 NA 
HETATM    3  C   UNL     1      -5.757  11.975  70.191  1.00  0.00    -0.152 C  
ENDROOT
BRANCH   2   4
HETATM    4  C   UNL     1      -7.821  10.937  69.557  1.00  0.00     0.027 C  
BRANCH   4   5
HETATM    5  C   UNL     1      -8.872   9.836  69.743  1.00  0.00    -0.241 C  
HETATM    6  C   UNL     1     -10.301  10.338  70.066  1.00  0.00    -0.255 C  
HETATM    7  C   UNL     1     -10.880  11.175  68.927  1.00  0.00    -0.261 A  
HETATM    8  C   UNL     1     -11.193   9.167  70.487  1.00  0.00    -0.264 A  
HETATM    9  C   UNL     1     -11.064  10.637  67.644  1.00  0.00    -0.385 A  
HETATM   10  C   UNL     1     -12.266   9.381  71.351  1.00  0.00    -0.438 A  
HETATM   11  C   UNL     1     -12.982   8.282  71.826  1.00  0.00    -0.367 A  
HETATM   12  C   UNL     1     -11.464  11.453  66.580  1.00  0.00    -0.124 A  
HETATM   13  C   UNL     1     -12.617   7.003  71.423  1.00  0.00    -0.428 A  
HETATM   14  C   UNL     1     -11.697  12.809  66.795  1.00  0.00    -0.392 A  
HETATM   15  C   UNL     1     -11.564   6.875  70.538  1.00  0.00    -0.346 A  
HETATM   16  C   UNL     1     -11.559  13.352  68.070  1.00  0.00    -0.369 A  
HETATM   17 BR   UNL     1     -12.166  13.924  65.343  1.00  0.00    -0.498 Br 
HETATM   18  N   UNL     1     -10.858   7.921  70.057  1.00  0.00    -0.248 NA 
HETATM   19  C   UNL     1     -11.154  12.539  69.130  1.00  0.00    -0.254 A  
ENDBRANCH   4   5
ENDBRANCH   2   4
TORSDOF 2
ENDMDL
MODEL       47
REMARK 921   NORMALIZED FREE ENERGY PREDICTED BY IDOCK:   -4.71 KCAL/MOL
REMARK 922        TOTAL FREE ENERGY PREDICTED BY IDOCK:   -5.42 KCAL/MOL
REMARK 923 INTER-LIGAND FREE ENERGY PREDICTED BY IDOCK:   -5.11 KCAL/MOL
REMARK 924 INTRA-LIGAND FREE ENERGY PREDICTED BY IDOCK:   -0.31 KCAL/MOL
REMARK 927      BINDING AFFINITY PREDICTED BY RF-SCORE:    0.00 PKD
ROOT
HETATM    1  C   UNL     1     -12.286  14.725  64.016  1.00  0.00    -0.155 C  
HETATM    2  N   UNL     1     -12.928  13.877  65.024  1.00  0.00    -0.752 NA 
HETATM    3  C   UNL     1     -12.614  12.471  64.755  1.00  0.00    -0.413 C  
ENDROOT
BRANCH   2   4
HETATM    4  C   UNL     1     -12.493  14.216  66.392  1.00  0.00    -0.318 C  
BRANCH   4   5
HETATM    5  C   UNL     1     -11.055  14.737  66.509  1.00  0.00    -0.334 C  
HETATM    6  C   UNL     1     -10.253  14.190  67.715  1.00  0.00    -0.242 C  
HETATM    7  C   UNL     1     -10.063  12.677  67.631  1.00  0.00    -0.218 A  
HETATM    8  C   UNL     1      -8.945  14.969  67.880  1.00  0.00    -0.175 A  
HETATM    9  C   UNL     1      -9.380  12.083  66.558  1.00  0.00    -0.226 A  
HETATM   10  C   UNL     1      -8.360  15.093  69.140  1.00  0.00    -0.221 A  
HETATM   11  C   UNL     1      -7.244  15.916  69.288  1.00  0.00    -0.217 A  
HETATM   12  C   UNL     1      -9.335  10.692  66.425  1.00  0.00    -0.195 A  
HETATM   13  C   UNL     1      -6.736  16.585  68.182  1.00  0.00    -0.145 A  
HETATM   14  C   UNL     1      -9.960   9.883  67.372  1.00  0.00    -0.189 A  
HETATM   15  C   UNL     1      -7.350  16.383  66.961  1.00  0.00    -0.220 A  
HETATM   16  C   UNL     1     -10.607  10.453  68.465  1.00  0.00    -0.237 A  
HETATM   17 BR   UNL     1      -9.961   8.005  67.151  1.00  0.00    -0.334 Br 
HETATM   18  N   UNL     1      -8.427  15.588  66.786  1.00  0.00    -0.259 NA 
HETATM   19  C   UNL     1     -10.658  11.842  68.594  1.00  0.00    -0.259 A  
ENDBRANCH   4   5
ENDBRANCH   2   4
TORSDOF 2
ENDMDL
MODEL       48
REMARK 921   NORMALIZED FREE ENERGY PREDICTED BY IDOCK:   -4.68 KCAL/MOL
REMARK 922        TOTAL FREE ENERGY PREDICTED BY IDOCK:   -5.38 KCAL/MOL
REMARK 923 INTER-LIGAND FREE ENERGY PREDICTED BY IDOCK:   -5.01 KCAL/MOL
REMARK 924 INTRA-LIGAND FREE ENERGY PREDICTED BY IDOCK:   -0.38 KCAL/MOL
REMARK 927      BINDING AFFINITY PREDICTED BY RF-SCORE:    0.00 PKD
ROOT
HETATM    1  C   UNL     1      -7.165   9.363  70.785  1.00  0.00    -0.113 C  
HETATM    2  N   UNL     1      -6.878  10.713  70.291  1.00  0.00    -0.265 NA 
HETATM    3  C   UNL     1      -5.460  11.018  70.495  1.00  0.00    -0.114 C  
ENDROOT
BRANCH   2   4
HETATM    4  C   UNL     1      -7.204  10.859  68.860  1.00  0.00    -0.095 C  
BRANCH   4   5
HETATM    5  C   UNL     1      -8.399  11.771  68.553  1.00  0.00    -0.131 C  
HETATM    6  C   UNL     1      -9.591  11.077  67.848  1.00  0.00    -0.180 C  
HETATM    7  C   UNL     1     -10.208   9.986  68.720  1.00  0.00    -0.201 A  
HETATM    8  C   UNL     1     -10.598  12.121  67.360  1.00  0.00    -0.226 A  
HETATM    9  C   UNL     1     -10.766  10.278  69.974  1.00  0.00    -0.345 A  
HETATM   10  C   UNL     1     -11.398  11.854  66.248  1.00  0.00    -0.394 A  
HETATM   11  C   UNL     1     -12.211  12.868  65.741  1.00  0.00    -0.498 A  
HETATM   12  C   UNL     1     -11.201   9.251  70.818  1.00  0.00    -0.351 A  
HETATM   13  C   UNL     1     -12.214  14.113  66.356  1.00  0.00    -0.473 A  
HETATM   14  C   UNL     1     -11.095   7.924  70.407  1.00  0.00    -0.245 A  
HETATM   15  C   UNL     1     -11.420  14.290  67.473  1.00  0.00    -0.345 A  
HETATM   16  C   UNL     1     -10.583   7.616  69.149  1.00  0.00    -0.195 A  
HETATM   17 BR   UNL     1     -11.616   6.533  71.577  1.00  0.00    -0.378 Br 
HETATM   18  N   UNL     1     -10.628  13.326  67.990  1.00  0.00    -0.234 NA 
HETATM   19  C   UNL     1     -10.142   8.642  68.310  1.00  0.00    -0.225 A  
ENDBRANCH   4   5
ENDBRANCH   2   4
TORSDOF 2
ENDMDL
MODEL       49
REMARK 921   NORMALIZED FREE ENERGY PREDICTED BY IDOCK:   -4.66 KCAL/MOL
REMARK 922        TOTAL FREE ENERGY PREDICTED BY IDOCK:   -5.37 KCAL/MOL
REMARK 923 INTER-LIGAND FREE ENERGY PREDICTED BY IDOCK:   -5.20 KCAL/MOL
REMARK 924 INTRA-LIGAND FREE ENERGY PREDICTED BY IDOCK:   -0.16 KCAL/MOL
REMARK 927      BINDING AFFINITY PREDICTED BY RF-SCORE:    0.00 PKD
ROOT
HETATM    1  C   UNL     1     -12.396  15.613  70.651  1.00  0.00    -0.413 C  
HETATM    2  N   UNL     1     -11.981  14.239  70.355  1.00  0.00    -0.313 NA 
HETATM    3  C   UNL     1     -12.767  13.305  71.165  1.00  0.00    -0.320 C  
ENDROOT
BRANCH   2   4
HETATM    4  C   UNL     1     -12.152  13.905  68.928  1.00  0.00    -0.319 C  
BRANCH   4   5
HETATM    5  C   UNL     1     -11.171  12.860  68.382  1.00  0.00    -0.305 C  
HETATM    6  C   UNL     1     -10.777  13.043  66.895  1.00  0.00    -0.273 C  
HETATM    7  C   UNL     1     -10.040  14.359  66.662  1.00  0.00    -0.276 A  
HETATM    8  C   UNL     1     -10.017  11.812  66.393  1.00  0.00    -0.211 A  
HETATM    9  C   UNL     1      -8.823  14.642  67.303  1.00  0.00    -0.220 A  
HETATM   10  C   UNL     1     -10.069  11.462  65.043  1.00  0.00    -0.323 A  
HETATM   11  C   UNL     1      -9.481  10.266  64.633  1.00  0.00    -0.351 A  
HETATM   12  C   UNL     1      -8.233  15.904  67.186  1.00  0.00    -0.233 A  
HETATM   13  C   UNL     1      -8.853   9.456  65.570  1.00  0.00    -0.220 A  
HETATM   14  C   UNL     1      -8.846  16.889  66.415  1.00  0.00    -0.287 A  
HETATM   15  C   UNL     1      -8.814   9.888  66.882  1.00  0.00    -0.134 A  
HETATM   16  C   UNL     1     -10.032  16.615  65.738  1.00  0.00    -0.271 A  
HETATM   17 BR   UNL     1      -8.085  18.617  66.318  1.00  0.00    -0.227 Br 
HETATM   18  N   UNL     1      -9.368  11.044  67.307  1.00  0.00    -0.156 NA 
HETATM   19  C   UNL     1     -10.625  15.357  65.860  1.00  0.00    -0.349 A  
ENDBRANCH   4   5
ENDBRANCH   2   4
TORSDOF 2
ENDMDL
MODEL       50
REMARK 921   NORMALIZED FREE ENERGY PREDICTED BY IDOCK:   -4.65 KCAL/MOL
REMARK 922        TOTAL FREE ENERGY PREDICTED BY IDOCK:   -5.36 KCAL/MOL
REMARK 923 INTER-LIGAND FREE ENERGY PREDICTED BY IDOCK:   -4.98 KCAL/MOL
REMARK 924 INTRA-LIGAND FREE ENERGY PREDICTED BY IDOCK:   -0.38 KCAL/MOL
REMARK 927      BINDING AFFINITY PREDICTED BY RF-SCORE:    0.00 PKD
ROOT
HETATM    1  C   UNL     1      -9.163   8.122  68.752  1.00  0.00    -0.144 C  
HETATM    2  N   UNL     1     -10.480   8.720  68.987  1.00  0.00    -0.216 NA 
HETATM    3  C   UNL     1     -11.057   8.170  70.216  1.00  0.00    -0.221 C  
ENDROOT
BRANCH   2   4
HETATM    4  C   UNL     1     -10.408  10.189  69.102  1.00  0.00    -0.219 C  
BRANCH   4   5
HETATM    5  C   UNL     1     -11.039  10.966  67.939  1.00  0.00    -0.362 C  
HETATM    6  C   UNL     1     -10.040  11.754  67.057  1.00  0.00    -0.232 C  
HETATM    7  C   UNL     1      -9.051  10.828  66.353  1.00  0.00    -0.188 A  
HETATM    8  C   UNL     1     -10.794  12.689  66.107  1.00  0.00    -0.273 A  
HETATM    9  C   UNL     1      -9.485   9.838  65.456  1.00  0.00    -0.324 A  
HETATM   10  C   UNL     1     -10.193  13.866  65.662  1.00  0.00    -0.344 A  
HETATM   11  C   UNL     1     -10.945  14.766  64.907  1.00  0.00    -0.425 A  
HETATM   12  C   UNL     1      -8.582   8.911  64.927  1.00  0.00    -0.198 A  
HETATM   13  C   UNL     1     -12.269  14.468  64.609  1.00  0.00    -0.474 A  
HETATM   14  C   UNL     1      -7.236   8.974  65.280  1.00  0.00    -0.088 A  
HETATM   15  C   UNL     1     -12.782  13.265  65.056  1.00  0.00    -0.375 A  
HETATM   16  C   UNL     1      -6.779   9.973  66.135  1.00  0.00    -0.100 A  
HETATM   17 BR   UNL     1      -6.030   7.675  64.622  1.00  0.00    -0.038 Br 
HETATM   18  N   UNL     1     -12.076  12.373  65.783  1.00  0.00    -0.610 NA 
HETATM   19  C   UNL     1      -7.682  10.895  66.668  1.00  0.00    -0.146 A  
ENDBRANCH   4   5
ENDBRANCH   2   4
TORSDOF 2
ENDMDL
MODEL       51
REMARK 921   NORMALIZED FREE ENERGY PREDICTED BY IDOCK:   -4.65 KCAL/MOL
REMARK 922        TOTAL FREE ENERGY PREDICTED BY IDOCK:   -5.35 KCAL/MOL
REMARK 923 INTER-LIGAND FREE ENERGY PREDICTED BY IDOCK:   -5.19 KCAL/MOL
REMARK 924 INTRA-LIGAND FREE ENERGY PREDICTED BY IDOCK:   -0.16 KCAL/MOL
REMARK 927      BINDING AFFINITY PREDICTED BY RF-SCORE:    0.00 PKD
ROOT
HETATM    1  C   UNL     1      -9.369   8.829  69.675  1.00  0.00    -0.158 C  
HETATM    2  N   UNL     1     -10.784   9.213  69.651  1.00  0.00    -0.230 NA 
HETATM    3  C   UNL     1     -11.168   9.750  70.959  1.00  0.00    -0.381 C  
ENDROOT
BRANCH   2   4
HETATM    4  C   UNL     1     -11.066  10.221  68.612  1.00  0.00    -0.239 C  
BRANCH   4   5
HETATM    5  C   UNL     1     -10.133  10.182  67.395  1.00  0.00    -0.251 C  
HETATM    6  C   UNL     1     -10.566  11.076  66.206  1.00  0.00    -0.295 C  
HETATM    7  C   UNL     1     -10.576  12.555  66.583  1.00  0.00    -0.259 A  
HETATM    8  C   UNL     1      -9.721  10.759  64.970  1.00  0.00    -0.269 A  
HETATM    9  C   UNL     1      -9.410  13.212  67.007  1.00  0.00    -0.238 A  
HETATM   10  C   UNL     1     -10.248  10.956  63.694  1.00  0.00    -0.395 A  
HETATM   11  C   UNL     1      -9.513  10.537  62.586  1.00  0.00    -0.326 A  
HETATM   12  C   UNL     1      -9.464  14.527  67.479  1.00  0.00    -0.203 A  
HETATM   13  C   UNL     1      -8.272   9.942  62.775  1.00  0.00    -0.148 A  
HETATM   14  C   UNL     1     -10.682  15.201  67.518  1.00  0.00    -0.284 A  
HETATM   15  C   UNL     1      -7.803   9.812  64.068  1.00  0.00    -0.141 A  
HETATM   16  C   UNL     1     -11.843  14.582  67.064  1.00  0.00    -0.408 A  
HETATM   17 BR   UNL     1     -10.765  16.953  68.225  1.00  0.00    -0.363 Br 
HETATM   18  N   UNL     1      -8.489  10.215  65.158  1.00  0.00    -0.153 NA 
HETATM   19  C   UNL     1     -11.790  13.266  66.598  1.00  0.00    -0.447 A  
ENDBRANCH   4   5
ENDBRANCH   2   4
TORSDOF 2
ENDMDL
MODEL       52
REMARK 921   NORMALIZED FREE ENERGY PREDICTED BY IDOCK:   -4.65 KCAL/MOL
REMARK 922        TOTAL FREE ENERGY PREDICTED BY IDOCK:   -5.35 KCAL/MOL
REMARK 923 INTER-LIGAND FREE ENERGY PREDICTED BY IDOCK:   -4.99 KCAL/MOL
REMARK 924 INTRA-LIGAND FREE ENERGY PREDICTED BY IDOCK:   -0.37 KCAL/MOL
REMARK 927      BINDING AFFINITY PREDICTED BY RF-SCORE:    0.00 PKD
ROOT
HETATM    1  C   UNL     1      -7.451  11.517  66.854  1.00  0.00    -0.145 C  
HETATM    2  N   UNL     1      -7.148  10.533  67.896  1.00  0.00    -0.082 NA 
HETATM    3  C   UNL     1      -5.698  10.456  68.091  1.00  0.00    -0.040 C  
ENDROOT
BRANCH   2   4
HETATM    4  C   UNL     1      -7.791  10.870  69.180  1.00  0.00    -0.119 C  
BRANCH   4   5
HETATM    5  C   UNL     1      -8.964   9.965  69.579  1.00  0.00    -0.224 C  
HETATM    6  C   UNL     1     -10.315  10.694  69.787  1.00  0.00    -0.146 C  
HETATM    7  C   UNL     1     -10.810  11.350  68.500  1.00  0.00    -0.251 A  
HETATM    8  C   UNL     1     -11.333   9.749  70.431  1.00  0.00    -0.297 A  
HETATM    9  C   UNL     1     -11.084  10.592  67.350  1.00  0.00    -0.341 A  
HETATM   10  C   UNL     1     -12.356  10.262  71.229  1.00  0.00    -0.506 A  
HETATM   11  C   UNL     1     -13.190   9.377  71.911  1.00  0.00    -0.507 A  
HETATM   12  C   UNL     1     -11.403  11.221  66.143  1.00  0.00    -0.035 A  
HETATM   13  C   UNL     1     -12.991   8.009  71.777  1.00  0.00    -0.354 A  
HETATM   14  C   UNL     1     -11.465  12.611  66.079  1.00  0.00    -0.368 A  
HETATM   15  C   UNL     1     -11.979   7.578  70.941  1.00  0.00    -0.251 A  
HETATM   16  C   UNL     1     -11.238  13.378  67.218  1.00  0.00    -0.319 A  
HETATM   17 BR   UNL     1     -11.825  13.461  64.429  1.00  0.00    -0.480 Br 
HETATM   18  N   UNL     1     -11.161   8.411  70.262  1.00  0.00    -0.240 NA 
HETATM   19  C   UNL     1     -10.913  12.750  68.423  1.00  0.00    -0.281 A  
ENDBRANCH   4   5
ENDBRANCH   2   4
TORSDOF 2
ENDMDL
MODEL       53
REMARK 921   NORMALIZED FREE ENERGY PREDICTED BY IDOCK:   -4.63 KCAL/MOL
REMARK 922        TOTAL FREE ENERGY PREDICTED BY IDOCK:   -5.33 KCAL/MOL
REMARK 923 INTER-LIGAND FREE ENERGY PREDICTED BY IDOCK:   -5.15 KCAL/MOL
REMARK 924 INTRA-LIGAND FREE ENERGY PREDICTED BY IDOCK:   -0.18 KCAL/MOL
REMARK 927      BINDING AFFINITY PREDICTED BY RF-SCORE:    0.00 PKD
ROOT
HETATM    1  C   UNL     1      -6.161  15.087  70.181  1.00  0.00    -0.156 C  
HETATM    2  N   UNL     1      -6.570  14.353  68.980  1.00  0.00    -0.096 NA 
HETATM    3  C   UNL     1      -6.060  12.981  69.047  1.00  0.00    -0.089 C  
ENDROOT
BRANCH   2   4
HETATM    4  C   UNL     1      -8.037  14.317  68.827  1.00  0.00    -0.109 C  
BRANCH   4   5
HETATM    5  C   UNL     1      -8.723  15.688  68.796  1.00  0.00    -0.197 C  
HETATM    6  C   UNL     1      -9.007  16.249  67.381  1.00  0.00    -0.197 C  
HETATM    7  C   UNL     1      -9.976  15.363  66.603  1.00  0.00    -0.271 A  
HETATM    8  C   UNL     1      -9.444  17.714  67.469  1.00  0.00    -0.256 A  
HETATM    9  C   UNL     1     -11.280  15.120  67.065  1.00  0.00    -0.308 A  
HETATM   10  C   UNL     1      -9.195  18.583  66.407  1.00  0.00    -0.281 A  
HETATM   11  C   UNL     1      -9.480  19.939  66.561  1.00  0.00    -0.516 A  
HETATM   12  C   UNL     1     -12.106  14.199  66.415  1.00  0.00    -0.475 A  
HETATM   13  C   UNL     1     -10.011  20.394  67.762  1.00  0.00    -0.477 A  
HETATM   14  C   UNL     1     -11.642  13.524  65.288  1.00  0.00    -0.311 A  
HETATM   15  C   UNL     1     -10.261  19.466  68.755  1.00  0.00    -0.331 A  
HETATM   16  C   UNL     1     -10.368  13.782  64.790  1.00  0.00    -0.422 A  
HETATM   17 BR   UNL     1     -12.733  12.225  64.453  1.00  0.00    -0.238 Br 
HETATM   18  N   UNL     1     -10.002  18.147  68.631  1.00  0.00    -0.383 NA 
HETATM   19  C   UNL     1      -9.540  14.697  65.443  1.00  0.00    -0.040 A  
ENDBRANCH   4   5
ENDBRANCH   2   4
TORSDOF 2
ENDMDL
MODEL       54
REMARK 921   NORMALIZED FREE ENERGY PREDICTED BY IDOCK:   -4.60 KCAL/MOL
REMARK 922        TOTAL FREE ENERGY PREDICTED BY IDOCK:   -5.29 KCAL/MOL
REMARK 923 INTER-LIGAND FREE ENERGY PREDICTED BY IDOCK:   -5.08 KCAL/MOL
REMARK 924 INTRA-LIGAND FREE ENERGY PREDICTED BY IDOCK:   -0.21 KCAL/MOL
REMARK 927      BINDING AFFINITY PREDICTED BY RF-SCORE:    0.00 PKD
ROOT
HETATM    1  C   UNL     1      -9.994   5.112  67.216  1.00  0.00    -0.186 C  
HETATM    2  N   UNL     1      -9.587   6.520  67.203  1.00  0.00    -0.131 NA 
HETATM    3  C   UNL     1      -8.728   6.770  66.042  1.00  0.00    -0.146 C  
ENDROOT
BRANCH   2   4
HETATM    4  C   UNL     1     -10.746   7.431  67.152  1.00  0.00    -0.330 C  
BRANCH   4   5
HETATM    5  C   UNL     1     -10.400   8.920  67.033  1.00  0.00    -0.340 C  
HETATM    6  C   UNL     1     -11.004   9.825  68.135  1.00  0.00    -0.228 C  
HETATM    7  C   UNL     1     -10.477   9.460  69.521  1.00  0.00    -0.229 A  
HETATM    8  C   UNL     1     -10.817  11.301  67.771  1.00  0.00    -0.235 A  
HETATM    9  C   UNL     1      -9.109   9.535  69.827  1.00  0.00    -0.219 A  
HETATM   10  C   UNL     1     -11.722  12.255  68.235  1.00  0.00    -0.392 A  
HETATM   11  C   UNL     1     -11.609  13.569  67.783  1.00  0.00    -0.374 A  
HETATM   12  C   UNL     1      -8.627   9.067  71.053  1.00  0.00    -0.264 A  
HETATM   13  C   UNL     1     -10.597  13.901  66.891  1.00  0.00    -0.280 A  
HETATM   14  C   UNL     1      -9.511   8.535  71.989  1.00  0.00    -0.294 A  
HETATM   15  C   UNL     1      -9.718  12.907  66.505  1.00  0.00    -0.257 A  
HETATM   16  C   UNL     1     -10.876   8.490  71.721  1.00  0.00    -0.374 A  
HETATM   17 BR   UNL     1      -8.849   7.835  73.617  1.00  0.00    -0.340 Br 
HETATM   18  N   UNL     1      -9.799  11.628  66.932  1.00  0.00    -0.196 NA 
HETATM   19  C   UNL     1     -11.356   8.952  70.493  1.00  0.00    -0.268 A  
ENDBRANCH   4   5
ENDBRANCH   2   4
TORSDOF 2
ENDMDL
MODEL       55
REMARK 921   NORMALIZED FREE ENERGY PREDICTED BY IDOCK:   -4.59 KCAL/MOL
REMARK 922        TOTAL FREE ENERGY PREDICTED BY IDOCK:   -5.29 KCAL/MOL
REMARK 923 INTER-LIGAND FREE ENERGY PREDICTED BY IDOCK:   -5.34 KCAL/MOL
REMARK 924 INTRA-LIGAND FREE ENERGY PREDICTED BY IDOCK:    0.05 KCAL/MOL
REMARK 927      BINDING AFFINITY PREDICTED BY RF-SCORE:    0.00 PKD
ROOT
HETATM    1  C   UNL     1     -12.021  14.737  64.217  1.00  0.00    -0.368 C  
HETATM    2  N   UNL     1     -12.805  13.880  65.111  1.00  0.00    -0.748 NA 
HETATM    3  C   UNL     1     -12.501  12.474  64.832  1.00  0.00    -0.450 C  
ENDROOT
BRANCH   2   4
HETATM    4  C   UNL     1     -12.528  14.162  66.532  1.00  0.00    -0.270 C  
BRANCH   4   5
HETATM    5  C   UNL     1     -11.606  13.153  67.229  1.00  0.00    -0.404 C  
HETATM    6  C   UNL     1     -10.112  13.243  66.829  1.00  0.00    -0.258 C  
HETATM    7  C   UNL     1      -9.502  14.588  67.214  1.00  0.00    -0.218 A  
HETATM    8  C   UNL     1      -9.344  12.036  67.375  1.00  0.00    -0.178 A  
HETATM    9  C   UNL     1      -9.451  15.014  68.551  1.00  0.00    -0.203 A  
HETATM   10  C   UNL     1      -8.207  11.573  66.712  1.00  0.00    -0.164 A  
HETATM   11  C   UNL     1      -7.602  10.396  67.150  1.00  0.00    -0.096 A  
HETATM   12  C   UNL     1      -9.016  16.304  68.871  1.00  0.00    -0.248 A  
HETATM   13  C   UNL     1      -8.136   9.716  68.237  1.00  0.00    -0.105 A  
HETATM   14  C   UNL     1      -8.614  17.172  67.859  1.00  0.00    -0.214 A  
HETATM   15  C   UNL     1      -9.244  10.256  68.863  1.00  0.00    -0.175 A  
HETATM   16  C   UNL     1      -8.617  16.754  66.531  1.00  0.00    -0.312 A  
HETATM   17 BR   UNL     1      -8.095  18.939  68.287  1.00  0.00    -0.366 Br 
HETATM   18  N   UNL     1      -9.846  11.398  68.465  1.00  0.00    -0.195 NA 
HETATM   19  C   UNL     1      -9.058  15.468  66.211  1.00  0.00    -0.369 A  
ENDBRANCH   4   5
ENDBRANCH   2   4
TORSDOF 2
ENDMDL
MODEL       56
REMARK 921   NORMALIZED FREE ENERGY PREDICTED BY IDOCK:   -4.58 KCAL/MOL
REMARK 922        TOTAL FREE ENERGY PREDICTED BY IDOCK:   -5.27 KCAL/MOL
REMARK 923 INTER-LIGAND FREE ENERGY PREDICTED BY IDOCK:   -4.89 KCAL/MOL
REMARK 924 INTRA-LIGAND FREE ENERGY PREDICTED BY IDOCK:   -0.39 KCAL/MOL
REMARK 927      BINDING AFFINITY PREDICTED BY RF-SCORE:    0.00 PKD
ROOT
HETATM    1  C   UNL     1      -7.112   9.961  68.797  1.00  0.00    -0.067 C  
HETATM    2  N   UNL     1      -7.258  11.415  68.700  1.00  0.00    -0.093 NA 
HETATM    3  C   UNL     1      -6.140  12.067  69.388  1.00  0.00    -0.098 C  
ENDROOT
BRANCH   2   4
HETATM    4  C   UNL     1      -7.298  11.876  67.299  1.00  0.00    -0.146 C  
BRANCH   4   5
HETATM    5  C   UNL     1      -8.628  12.497  66.855  1.00  0.00    -0.158 C  
HETATM    6  C   UNL     1      -9.448  11.647  65.854  1.00  0.00    -0.246 C  
HETATM    7  C   UNL     1      -9.879  10.314  66.461  1.00  0.00    -0.265 A  
HETATM    8  C   UNL     1     -10.607  12.470  65.285  1.00  0.00    -0.290 A  
HETATM    9  C   UNL     1     -10.697  10.259  67.601  1.00  0.00    -0.339 A  
HETATM   10  C   UNL     1     -11.105  12.189  64.013  1.00  0.00    -0.449 A  
HETATM   11  C   UNL     1     -12.069  13.034  63.462  1.00  0.00    -0.617 A  
HETATM   12  C   UNL     1     -10.968   9.036  68.224  1.00  0.00     0.025 A  
HETATM   13  C   UNL     1     -12.516  14.127  64.191  1.00  0.00    -0.267 A  
HETATM   14  C   UNL     1     -10.435   7.859  67.705  1.00  0.00    -0.212 A  
HETATM   15  C   UNL     1     -12.000  14.320  65.459  1.00  0.00    -0.385 A  
HETATM   16  C   UNL     1      -9.656   7.889  66.552  1.00  0.00    -0.281 A  
HETATM   17 BR   UNL     1     -10.742   6.217  68.591  1.00  0.00    -0.401 Br 
HETATM   18  N   UNL     1     -11.072  13.515  66.020  1.00  0.00    -0.292 NA 
HETATM   19  C   UNL     1      -9.380   9.110  65.933  1.00  0.00    -0.306 A  
ENDBRANCH   4   5
ENDBRANCH   2   4
TORSDOF 2
ENDMDL
MODEL       57
REMARK 921   NORMALIZED FREE ENERGY PREDICTED BY IDOCK:   -4.57 KCAL/MOL
REMARK 922        TOTAL FREE ENERGY PREDICTED BY IDOCK:   -5.26 KCAL/MOL
REMARK 923 INTER-LIGAND FREE ENERGY PREDICTED BY IDOCK:   -5.04 KCAL/MOL
REMARK 924 INTRA-LIGAND FREE ENERGY PREDICTED BY IDOCK:   -0.22 KCAL/MOL
REMARK 927      BINDING AFFINITY PREDICTED BY RF-SCORE:    0.00 PKD
ROOT
HETATM    1  C   UNL     1      -8.152   5.110  73.513  1.00  0.00    -0.110 C  
HETATM    2  N   UNL     1      -9.442   4.445  73.312  1.00  0.00    -0.119 NA 
HETATM    3  C   UNL     1     -10.413   4.957  74.284  1.00  0.00    -0.288 C  
ENDROOT
BRANCH   2   4
HETATM    4  C   UNL     1      -9.967   4.652  71.950  1.00  0.00    -0.189 C  
BRANCH   4   5
HETATM    5  C   UNL     1     -11.104   5.676  71.837  1.00  0.00    -0.278 C  
HETATM    6  C   UNL     1     -10.713   7.022  71.180  1.00  0.00    -0.253 C  
HETATM    7  C   UNL     1     -10.273   6.839  69.729  1.00  0.00    -0.207 A  
HETATM    8  C   UNL     1     -11.837   8.046  71.359  1.00  0.00    -0.295 A  
HETATM    9  C   UNL     1     -11.139   6.305  68.762  1.00  0.00    -0.424 A  
HETATM   10  C   UNL     1     -11.542   9.409  71.403  1.00  0.00    -0.451 A  
HETATM   11  C   UNL     1     -12.561  10.312  71.701  1.00  0.00    -0.534 A  
HETATM   12  C   UNL     1     -10.678   6.016  67.474  1.00  0.00    -0.383 A  
HETATM   13  C   UNL     1     -13.846   9.840  71.937  1.00  0.00    -0.242 A  
HETATM   14  C   UNL     1      -9.351   6.271  67.139  1.00  0.00    -0.123 A  
HETATM   15  C   UNL     1     -14.067   8.479  71.841  1.00  0.00    -0.447 A  
HETATM   16  C   UNL     1      -8.486   6.839  68.071  1.00  0.00    -0.120 A  
HETATM   17 BR   UNL     1      -8.710   5.812  65.420  1.00  0.00    -0.082 Br 
HETATM   18  N   UNL     1     -13.101   7.582  71.549  1.00  0.00    -0.361 NA 
HETATM   19  C   UNL     1      -8.946   7.122  69.359  1.00  0.00    -0.136 A  
ENDBRANCH   4   5
ENDBRANCH   2   4
TORSDOF 2
ENDMDL
MODEL       58
REMARK 921   NORMALIZED FREE ENERGY PREDICTED BY IDOCK:   -4.53 KCAL/MOL
REMARK 922        TOTAL FREE ENERGY PREDICTED BY IDOCK:   -5.22 KCAL/MOL
REMARK 923 INTER-LIGAND FREE ENERGY PREDICTED BY IDOCK:   -5.06 KCAL/MOL
REMARK 924 INTRA-LIGAND FREE ENERGY PREDICTED BY IDOCK:   -0.16 KCAL/MOL
REMARK 927      BINDING AFFINITY PREDICTED BY RF-SCORE:    0.00 PKD
ROOT
HETATM    1  C   UNL     1     -11.950  14.318  69.139  1.00  0.00    -0.335 C  
HETATM    2  N   UNL     1     -11.823  13.289  70.174  1.00  0.00    -0.297 NA 
HETATM    3  C   UNL     1     -12.845  13.500  71.203  1.00  0.00    -0.309 C  
ENDROOT
BRANCH   2   4
HETATM    4  C   UNL     1     -11.966  11.928  69.622  1.00  0.00    -0.298 C  
BRANCH   4   5
HETATM    5  C   UNL     1     -11.473  10.799  70.535  1.00  0.00    -0.367 C  
HETATM    6  C   UNL     1     -11.269   9.431  69.838  1.00  0.00    -0.180 C  
HETATM    7  C   UNL     1     -10.188   9.498  68.763  1.00  0.00    -0.215 A  
HETATM    8  C   UNL     1     -11.037   8.334  70.881  1.00  0.00    -0.261 A  
HETATM    9  C   UNL     1      -8.864   9.844  69.075  1.00  0.00    -0.156 A  
HETATM   10  C   UNL     1     -11.402   7.017  70.603  1.00  0.00    -0.349 A  
HETATM   11  C   UNL     1     -11.305   6.061  71.613  1.00  0.00    -0.313 A  
HETATM   12  C   UNL     1      -7.919  10.035  68.062  1.00  0.00    -0.101 A  
HETATM   13  C   UNL     1     -10.840   6.436  72.867  1.00  0.00    -0.286 A  
HETATM   14  C   UNL     1      -8.287   9.868  66.729  1.00  0.00    -0.125 A  
HETATM   15  C   UNL     1     -10.466   7.753  73.055  1.00  0.00    -0.369 A  
HETATM   16  C   UNL     1      -9.585   9.484  66.401  1.00  0.00    -0.273 A  
HETATM   17 BR   UNL     1      -7.029  10.198  65.357  1.00  0.00    -0.141 Br 
HETATM   18  N   UNL     1     -10.542   8.699  72.094  1.00  0.00    -0.341 NA 
HETATM   19  C   UNL     1     -10.530   9.300  67.413  1.00  0.00    -0.340 A  
ENDBRANCH   4   5
ENDBRANCH   2   4
TORSDOF 2
ENDMDL
MODEL       59
REMARK 921   NORMALIZED FREE ENERGY PREDICTED BY IDOCK:   -4.52 KCAL/MOL
REMARK 922        TOTAL FREE ENERGY PREDICTED BY IDOCK:   -5.21 KCAL/MOL
REMARK 923 INTER-LIGAND FREE ENERGY PREDICTED BY IDOCK:   -5.05 KCAL/MOL
REMARK 924 INTRA-LIGAND FREE ENERGY PREDICTED BY IDOCK:   -0.17 KCAL/MOL
REMARK 927      BINDING AFFINITY PREDICTED BY RF-SCORE:    0.00 PKD
ROOT
HETATM    1  C   UNL     1     -12.022   9.651  71.499  1.00  0.00    -0.406 C  
HETATM    2  N   UNL     1     -12.887  10.715  70.982  1.00  0.00    -0.386 NA 
HETATM    3  C   UNL     1     -13.163  11.682  72.047  1.00  0.00    -0.338 C  
ENDROOT
BRANCH   2   4
HETATM    4  C   UNL     1     -12.278  11.416  69.837  1.00  0.00    -0.277 C  
BRANCH   4   5
HETATM    5  C   UNL     1     -11.059  10.719  69.218  1.00  0.00    -0.312 C  
HETATM    6  C   UNL     1     -10.854  10.975  67.704  1.00  0.00    -0.306 C  
HETATM    7  C   UNL     1     -10.591  12.450  67.409  1.00  0.00    -0.237 A  
HETATM    8  C   UNL     1      -9.783  10.033  67.148  1.00  0.00    -0.174 A  
HETATM    9  C   UNL     1      -9.483  13.120  67.951  1.00  0.00    -0.218 A  
HETATM   10  C   UNL     1      -9.820   9.647  65.808  1.00  0.00    -0.373 A  
HETATM   11  C   UNL     1      -8.915   8.686  65.357  1.00  0.00    -0.181 A  
HETATM   12  C   UNL     1      -9.333  14.500  67.784  1.00  0.00    -0.198 A  
HETATM   13  C   UNL     1      -7.995   8.143  66.244  1.00  0.00    -0.101 A  
HETATM   14  C   UNL     1     -10.282  15.219  67.060  1.00  0.00    -0.260 A  
HETATM   15  C   UNL     1      -7.999   8.602  67.547  1.00  0.00    -0.106 A  
HETATM   16  C   UNL     1     -11.366  14.566  66.480  1.00  0.00    -0.354 A  
HETATM   17 BR   UNL     1     -10.117  17.095  66.897  1.00  0.00    -0.306 Br 
HETATM   18  N   UNL     1      -8.858   9.536  68.011  1.00  0.00    -0.124 NA 
HETATM   19  C   UNL     1     -11.519  13.189  66.653  1.00  0.00    -0.389 A  
ENDBRANCH   4   5
ENDBRANCH   2   4
TORSDOF 2
ENDMDL
MODEL       60
REMARK 921   NORMALIZED FREE ENERGY PREDICTED BY IDOCK:   -4.51 KCAL/MOL
REMARK 922        TOTAL FREE ENERGY PREDICTED BY IDOCK:   -5.20 KCAL/MOL
REMARK 923 INTER-LIGAND FREE ENERGY PREDICTED BY IDOCK:   -5.02 KCAL/MOL
REMARK 924 INTRA-LIGAND FREE ENERGY PREDICTED BY IDOCK:   -0.18 KCAL/MOL
REMARK 927      BINDING AFFINITY PREDICTED BY RF-SCORE:    0.00 PKD
ROOT
HETATM    1  C   UNL     1     -12.343  14.608  64.037  1.00  0.00    -0.132 C  
HETATM    2  N   UNL     1     -12.731  13.240  64.388  1.00  0.00    -0.667 NA 
HETATM    3  C   UNL     1     -12.173  12.305  63.406  1.00  0.00    -0.527 C  
ENDROOT
BRANCH   2   4
HETATM    4  C   UNL     1     -12.266  12.860  65.735  1.00  0.00    -0.439 C  
BRANCH   4   5
HETATM    5  C   UNL     1     -10.920  12.127  65.778  1.00  0.00    -0.338 C  
HETATM    6  C   UNL     1     -10.089  12.352  67.065  1.00  0.00    -0.223 C  
HETATM    7  C   UNL     1     -10.807  11.822  68.304  1.00  0.00    -0.259 A  
HETATM    8  C   UNL     1      -8.673  11.797  66.886  1.00  0.00    -0.189 A  
HETATM    9  C   UNL     1     -11.143  10.465  68.431  1.00  0.00    -0.322 A  
HETATM   10  C   UNL     1      -7.609  12.356  67.594  1.00  0.00    -0.141 A  
HETATM   11  C   UNL     1      -6.312  11.925  67.317  1.00  0.00    -0.143 A  
HETATM   12  C   UNL     1     -11.921  10.022  69.506  1.00  0.00     0.096 A  
HETATM   13  C   UNL     1      -6.109  10.946  66.353  1.00  0.00    -0.131 A  
HETATM   14  C   UNL     1     -12.356  10.929  70.469  1.00  0.00    -0.374 A  
HETATM   15  C   UNL     1      -7.217  10.417  65.719  1.00  0.00    -0.143 A  
HETATM   16  C   UNL     1     -11.998  12.272  70.382  1.00  0.00    -0.349 A  
HETATM   17 BR   UNL     1     -13.467  10.341  71.881  1.00  0.00    -0.318 Br 
HETATM   18  N   UNL     1      -8.484  10.810  65.972  1.00  0.00    -0.166 NA 
HETATM   19  C   UNL     1     -11.227  12.716  69.306  1.00  0.00    -0.255 A  
ENDBRANCH   4   5
ENDBRANCH   2   4
TORSDOF 2
ENDMDL
MODEL       61
REMARK 921   NORMALIZED FREE ENERGY PREDICTED BY IDOCK:   -4.51 KCAL/MOL
REMARK 922        TOTAL FREE ENERGY PREDICTED BY IDOCK:   -5.19 KCAL/MOL
REMARK 923 INTER-LIGAND FREE ENERGY PREDICTED BY IDOCK:   -4.94 KCAL/MOL
REMARK 924 INTRA-LIGAND FREE ENERGY PREDICTED BY IDOCK:   -0.25 KCAL/MOL
REMARK 927      BINDING AFFINITY PREDICTED BY RF-SCORE:    0.00 PKD
ROOT
HETATM    1  C   UNL     1      -7.859  10.040  69.451  1.00  0.00    -0.141 C  
HETATM    2  N   UNL     1      -7.740  11.444  69.050  1.00  0.00    -0.103 NA 
HETATM    3  C   UNL     1      -6.484  11.997  69.567  1.00  0.00    -0.109 C  
ENDROOT
BRANCH   2   4
HETATM    4  C   UNL     1      -7.772  11.606  67.584  1.00  0.00    -0.133 C  
BRANCH   4   5
HETATM    5  C   UNL     1      -8.564  12.818  67.079  1.00  0.00    -0.177 C  
HETATM    6  C   UNL     1     -10.030  12.524  66.676  1.00  0.00    -0.243 C  
HETATM    7  C   UNL     1     -10.859  12.045  67.865  1.00  0.00    -0.254 A  
HETATM    8  C   UNL     1     -10.632  13.730  65.949  1.00  0.00    -0.289 A  
HETATM    9  C   UNL     1     -11.045  12.848  69.001  1.00  0.00    -0.284 A  
HETATM   10  C   UNL     1     -11.648  13.544  65.011  1.00  0.00    -0.345 A  
HETATM   11  C   UNL     1     -12.087  14.638  64.266  1.00  0.00    -0.437 A  
HETATM   12  C   UNL     1     -11.689  12.342  70.134  1.00  0.00    -0.266 A  
HETATM   13  C   UNL     1     -11.514  15.885  64.478  1.00  0.00    -0.287 A  
HETATM   14  C   UNL     1     -12.166  11.034  70.135  1.00  0.00    -0.344 A  
HETATM   15  C   UNL     1     -10.537  15.995  65.449  1.00  0.00    -0.408 A  
HETATM   16  C   UNL     1     -12.028  10.234  69.003  1.00  0.00     0.119 A  
HETATM   17 BR   UNL     1     -12.972  10.327  71.693  1.00  0.00    -0.588 Br 
HETATM   18  N   UNL     1     -10.096  14.956  66.190  1.00  0.00    -0.282 NA 
HETATM   19  C   UNL     1     -11.379  10.738  67.874  1.00  0.00    -0.372 A  
ENDBRANCH   4   5
ENDBRANCH   2   4
TORSDOF 2
ENDMDL
MODEL       62
REMARK 921   NORMALIZED FREE ENERGY PREDICTED BY IDOCK:   -4.49 KCAL/MOL
REMARK 922        TOTAL FREE ENERGY PREDICTED BY IDOCK:   -5.18 KCAL/MOL
REMARK 923 INTER-LIGAND FREE ENERGY PREDICTED BY IDOCK:   -5.13 KCAL/MOL
REMARK 924 INTRA-LIGAND FREE ENERGY PREDICTED BY IDOCK:   -0.05 KCAL/MOL
REMARK 927      BINDING AFFINITY PREDICTED BY RF-SCORE:    0.00 PKD
ROOT
HETATM    1  C   UNL     1      -9.320  19.211  67.059  1.00  0.00    -0.309 C  
HETATM    2  N   UNL     1      -8.607  18.578  65.947  1.00  0.00    -0.463 NA 
HETATM    3  C   UNL     1      -7.346  19.285  65.706  1.00  0.00    -0.235 C  
ENDROOT
BRANCH   2   4
HETATM    4  C   UNL     1      -8.321  17.155  66.211  1.00  0.00    -0.263 C  
BRANCH   4   5
HETATM    5  C   UNL     1      -8.903  16.605  67.519  1.00  0.00    -0.202 C  
HETATM    6  C   UNL     1     -10.327  16.007  67.404  1.00  0.00    -0.294 C  
HETATM    7  C   UNL     1     -10.361  14.795  66.477  1.00  0.00    -0.287 A  
HETATM    8  C   UNL     1     -10.903  15.737  68.797  1.00  0.00    -0.274 A  
HETATM    9  C   UNL     1      -9.604  13.644  66.748  1.00  0.00    -0.277 A  
HETATM   10  C   UNL     1     -12.282  15.770  69.002  1.00  0.00    -0.050 A  
HETATM   11  C   UNL     1     -12.775  15.653  70.301  1.00  0.00    -0.248 A  
HETATM   12  C   UNL     1      -9.539  12.599  65.821  1.00  0.00    -0.117 A  
HETATM   13  C   UNL     1     -11.888  15.498  71.358  1.00  0.00    -0.461 A  
HETATM   14  C   UNL     1     -10.241  12.690  64.622  1.00  0.00    -0.294 A  
HETATM   15  C   UNL     1     -10.537  15.440  71.070  1.00  0.00     0.130 A  
HETATM   16  C   UNL     1     -11.030  13.805  64.352  1.00  0.00    -0.356 A  
HETATM   17 BR   UNL     1     -10.094  11.310  63.338  1.00  0.00    -0.467 Br 
HETATM   18  N   UNL     1     -10.031  15.544  69.822  1.00  0.00    -0.284 NA 
HETATM   19  C   UNL     1     -11.091  14.852  65.276  1.00  0.00    -0.382 A  
ENDBRANCH   4   5
ENDBRANCH   2   4
TORSDOF 2
ENDMDL
MODEL       63
REMARK 921   NORMALIZED FREE ENERGY PREDICTED BY IDOCK:   -4.46 KCAL/MOL
REMARK 922        TOTAL FREE ENERGY PREDICTED BY IDOCK:   -5.15 KCAL/MOL
REMARK 923 INTER-LIGAND FREE ENERGY PREDICTED BY IDOCK:   -4.96 KCAL/MOL
REMARK 924 INTRA-LIGAND FREE ENERGY PREDICTED BY IDOCK:   -0.18 KCAL/MOL
REMARK 927      BINDING AFFINITY PREDICTED BY RF-SCORE:    0.00 PKD
ROOT
HETATM    1  C   UNL     1     -12.247  11.580  70.126  1.00  0.00    -0.308 C  
HETATM    2  N   UNL     1     -12.057  11.294  68.701  1.00  0.00    -0.570 NA 
HETATM    3  C   UNL     1     -11.798  12.544  67.981  1.00  0.00    -0.325 C  
ENDROOT
BRANCH   2   4
HETATM    4  C   UNL     1     -10.940  10.360  68.468  1.00  0.00    -0.254 C  
BRANCH   4   5
HETATM    5  C   UNL     1     -10.367   9.700  69.728  1.00  0.00    -0.266 C  
HETATM    6  C   UNL     1     -10.710   8.199  69.898  1.00  0.00    -0.241 C  
HETATM    7  C   UNL     1     -10.122   7.353  68.771  1.00  0.00    -0.184 A  
HETATM    8  C   UNL     1     -10.318   7.721  71.299  1.00  0.00    -0.198 A  
HETATM    9  C   UNL     1      -8.737   7.293  68.545  1.00  0.00    -0.123 A  
HETATM   10  C   UNL     1     -11.008   6.666  71.895  1.00  0.00    -0.277 A  
HETATM   11  C   UNL     1     -10.725   6.335  73.219  1.00  0.00    -0.284 A  
HETATM   12  C   UNL     1      -8.226   6.625  67.428  1.00  0.00    -0.121 A  
HETATM   13  C   UNL     1      -9.760   7.055  73.912  1.00  0.00    -0.331 A  
HETATM   14  C   UNL     1      -9.094   6.001  66.535  1.00  0.00    -0.146 A  
HETATM   15  C   UNL     1      -9.095   8.064  73.242  1.00  0.00    -0.282 A  
HETATM   16  C   UNL     1     -10.467   6.014  66.764  1.00  0.00    -0.329 A  
HETATM   17 BR   UNL     1      -8.407   5.162  64.987  1.00  0.00    -0.148 Br 
HETATM   18  N   UNL     1      -9.343   8.402  71.958  1.00  0.00    -0.236 NA 
HETATM   19  C   UNL     1     -10.978   6.686  67.877  1.00  0.00    -0.342 A  
ENDBRANCH   4   5
ENDBRANCH   2   4
TORSDOF 2
ENDMDL
MODEL       64
REMARK 921   NORMALIZED FREE ENERGY PREDICTED BY IDOCK:   -4.46 KCAL/MOL
REMARK 922        TOTAL FREE ENERGY PREDICTED BY IDOCK:   -5.14 KCAL/MOL
REMARK 923 INTER-LIGAND FREE ENERGY PREDICTED BY IDOCK:   -5.61 KCAL/MOL
REMARK 924 INTRA-LIGAND FREE ENERGY PREDICTED BY IDOCK:    0.47 KCAL/MOL
REMARK 927      BINDING AFFINITY PREDICTED BY RF-SCORE:    0.00 PKD
ROOT
HETATM    1  C   UNL     1     -12.532  11.798  63.740  1.00  0.00    -0.327 C  
HETATM    2  N   UNL     1     -11.775  12.565  64.732  1.00  0.00    -0.342 NA 
HETATM    3  C   UNL     1     -10.445  12.875  64.200  1.00  0.00    -0.406 C  
ENDROOT
BRANCH   2   4
HETATM    4  C   UNL     1     -12.454  13.822  65.098  1.00  0.00    -0.450 C  
BRANCH   4   5
HETATM    5  C   UNL     1     -11.525  15.012  65.367  1.00  0.00    -0.287 C  
HETATM    6  C   UNL     1     -11.120  15.208  66.849  1.00  0.00    -0.314 C  
HETATM    7  C   UNL     1     -10.320  14.021  67.380  1.00  0.00    -0.259 A  
HETATM    8  C   UNL     1     -10.420  16.557  67.033  1.00  0.00    -0.289 A  
HETATM    9  C   UNL     1      -9.092  13.651  66.809  1.00  0.00    -0.230 A  
HETATM   10  C   UNL     1     -10.487  17.217  68.260  1.00  0.00    -0.373 A  
HETATM   11  C   UNL     1      -9.957  18.502  68.366  1.00  0.00    -0.414 A  
HETATM   12  C   UNL     1      -8.441  12.482  67.216  1.00  0.00    -0.185 A  
HETATM   13  C   UNL     1      -9.370  19.093  67.255  1.00  0.00    -0.351 A  
HETATM   14  C   UNL     1      -9.005  11.682  68.207  1.00  0.00    -0.185 A  
HETATM   15  C   UNL     1      -9.312  18.363  66.084  1.00  0.00    -0.137 A  
HETATM   16  C   UNL     1     -10.201  12.054  68.814  1.00  0.00    -0.145 A  
HETATM   17 BR   UNL     1      -8.160  10.065  68.705  1.00  0.00    -0.107 Br 
HETATM   18  N   UNL     1      -9.810  17.114  65.954  1.00  0.00    -0.532 NA 
HETATM   19  C   UNL     1     -10.854  13.218  68.404  1.00  0.00    -0.279 A  
ENDBRANCH   4   5
ENDBRANCH   2   4
TORSDOF 2
ENDMDL
MODEL       65
REMARK 921   NORMALIZED FREE ENERGY PREDICTED BY IDOCK:   -4.46 KCAL/MOL
REMARK 922        TOTAL FREE ENERGY PREDICTED BY IDOCK:   -5.14 KCAL/MOL
REMARK 923 INTER-LIGAND FREE ENERGY PREDICTED BY IDOCK:   -4.97 KCAL/MOL
REMARK 924 INTRA-LIGAND FREE ENERGY PREDICTED BY IDOCK:   -0.16 KCAL/MOL
REMARK 927      BINDING AFFINITY PREDICTED BY RF-SCORE:    0.00 PKD
ROOT
HETATM    1  C   UNL     1     -10.733  15.445  69.347  1.00  0.00    -0.258 C  
HETATM    2  N   UNL     1      -9.551  15.466  68.480  1.00  0.00    -0.196 NA 
HETATM    3  C   UNL     1      -8.528  16.336  69.067  1.00  0.00    -0.244 C  
ENDROOT
BRANCH   2   4
HETATM    4  C   UNL     1      -8.985  14.118  68.284  1.00  0.00    -0.188 C  
BRANCH   4   5
HETATM    5  C   UNL     1      -9.437  13.401  67.005  1.00  0.00    -0.247 C  
HETATM    6  C   UNL     1      -9.244  11.864  67.011  1.00  0.00    -0.191 C  
HETATM    7  C   UNL     1     -10.083  11.192  68.095  1.00  0.00    -0.193 A  
HETATM    8  C   UNL     1      -9.477  11.296  65.608  1.00  0.00    -0.229 A  
HETATM    9  C   UNL     1     -11.483  11.291  68.106  1.00  0.00    -0.376 A  
HETATM   10  C   UNL     1      -8.830  10.125  65.213  1.00  0.00    -0.201 A  
HETATM   11  C   UNL     1      -8.952   9.699  63.891  1.00  0.00    -0.254 A  
HETATM   12  C   UNL     1     -12.225  10.788  69.179  1.00  0.00    -0.122 A  
HETATM   13  C   UNL     1      -9.717  10.442  63.001  1.00  0.00    -0.288 A  
HETATM   14  C   UNL     1     -11.574  10.168  70.243  1.00  0.00    -0.302 A  
HETATM   15  C   UNL     1     -10.355  11.571  63.477  1.00  0.00    -0.433 A  
HETATM   16  C   UNL     1     -10.189  10.023  70.231  1.00  0.00    -0.266 A  
HETATM   17 BR   UNL     1     -12.571   9.553  71.727  1.00  0.00    -0.507 Br 
HETATM   18  N   UNL     1     -10.262  12.004  64.753  1.00  0.00    -0.272 NA 
HETATM   19  C   UNL     1      -9.448  10.531  69.163  1.00  0.00    -0.205 A  
ENDBRANCH   4   5
ENDBRANCH   2   4
TORSDOF 2
ENDMDL
MODEL       66
REMARK 921   NORMALIZED FREE ENERGY PREDICTED BY IDOCK:   -4.40 KCAL/MOL
REMARK 922        TOTAL FREE ENERGY PREDICTED BY IDOCK:   -5.07 KCAL/MOL
REMARK 923 INTER-LIGAND FREE ENERGY PREDICTED BY IDOCK:   -4.77 KCAL/MOL
REMARK 924 INTRA-LIGAND FREE ENERGY PREDICTED BY IDOCK:   -0.30 KCAL/MOL
REMARK 927      BINDING AFFINITY PREDICTED BY RF-SCORE:    0.00 PKD
ROOT
HETATM    1  C   UNL     1      -7.288   5.278  72.794  1.00  0.00    -0.095 C  
HETATM    2  N   UNL     1      -7.745   6.126  71.689  1.00  0.00    -0.100 NA 
HETATM    3  C   UNL     1      -6.597   6.522  70.869  1.00  0.00    -0.053 C  
ENDROOT
BRANCH   2   4
HETATM    4  C   UNL     1      -8.734   5.439  70.838  1.00  0.00    -0.134 C  
BRANCH   4   5
HETATM    5  C   UNL     1     -10.172   5.958  70.961  1.00  0.00    -0.266 C  
HETATM    6  C   UNL     1     -10.344   7.480  70.730  1.00  0.00    -0.205 C  
HETATM    7  C   UNL     1      -9.954   7.886  69.311  1.00  0.00    -0.190 A  
HETATM    8  C   UNL     1     -11.754   7.921  71.134  1.00  0.00    -0.285 A  
HETATM    9  C   UNL     1     -10.620   7.364  68.190  1.00  0.00    -0.216 A  
HETATM   10  C   UNL     1     -11.978   9.225  71.575  1.00  0.00    -0.439 A  
HETATM   11  C   UNL     1     -13.239   9.566  72.063  1.00  0.00    -0.539 A  
HETATM   12  C   UNL     1     -10.161   7.638  66.898  1.00  0.00    -0.365 A  
HETATM   13  C   UNL     1     -14.243   8.607  72.092  1.00  0.00    -0.520 A  
HETATM   14  C   UNL     1      -9.044   8.449  66.715  1.00  0.00    -0.157 A  
HETATM   15  C   UNL     1     -13.953   7.347  71.605  1.00  0.00    -0.403 A  
HETATM   16  C   UNL     1      -8.395   9.010  67.812  1.00  0.00    -0.117 A  
HETATM   17 BR   UNL     1      -8.382   8.760  64.972  1.00  0.00    -0.191 Br 
HETATM   18  N   UNL     1     -12.744   6.990  71.121  1.00  0.00    -0.363 NA 
HETATM   19  C   UNL     1      -8.849   8.730  69.103  1.00  0.00    -0.137 A  
ENDBRANCH   4   5
ENDBRANCH   2   4
TORSDOF 2
ENDMDL
MODEL       67
REMARK 921   NORMALIZED FREE ENERGY PREDICTED BY IDOCK:   -4.39 KCAL/MOL
REMARK 922        TOTAL FREE ENERGY PREDICTED BY IDOCK:   -5.06 KCAL/MOL
REMARK 923 INTER-LIGAND FREE ENERGY PREDICTED BY IDOCK:   -4.88 KCAL/MOL
REMARK 924 INTRA-LIGAND FREE ENERGY PREDICTED BY IDOCK:   -0.18 KCAL/MOL
REMARK 927      BINDING AFFINITY PREDICTED BY RF-SCORE:    0.00 PKD
ROOT
HETATM    1  C   UNL     1      -6.417  17.482  69.198  1.00  0.00    -0.240 C  
HETATM    2  N   UNL     1      -6.448  16.214  68.463  1.00  0.00    -0.114 NA 
HETATM    3  C   UNL     1      -5.129  15.954  67.880  1.00  0.00    -0.125 C  
ENDROOT
BRANCH   2   4
HETATM    4  C   UNL     1      -6.826  15.082  69.329  1.00  0.00    -0.149 C  
BRANCH   4   5
HETATM    5  C   UNL     1      -7.693  14.009  68.657  1.00  0.00    -0.135 C  
HETATM    6  C   UNL     1      -9.221  14.247  68.746  1.00  0.00    -0.112 C  
HETATM    7  C   UNL     1      -9.638  15.525  68.025  1.00  0.00    -0.203 A  
HETATM    8  C   UNL     1      -9.979  13.000  68.284  1.00  0.00    -0.235 A  
HETATM    9  C   UNL     1      -9.416  15.697  66.649  1.00  0.00    -0.282 A  
HETATM   10  C   UNL     1     -11.250  12.727  68.791  1.00  0.00    -0.327 A  
HETATM   11  C   UNL     1     -11.865  11.521  68.459  1.00  0.00    -0.365 A  
HETATM   12  C   UNL     1      -9.678  16.924  66.032  1.00  0.00    -0.260 A  
HETATM   13  C   UNL     1     -11.207  10.624  67.627  1.00  0.00    -0.361 A  
HETATM   14  C   UNL     1     -10.178  17.985  66.783  1.00  0.00    -0.364 A  
HETATM   15  C   UNL     1      -9.965  10.981  67.138  1.00  0.00    -0.187 A  
HETATM   16  C   UNL     1     -10.444  17.823  68.140  1.00  0.00    -0.382 A  
HETATM   17 BR   UNL     1     -10.463  19.665  65.963  1.00  0.00    -0.574 Br 
HETATM   18  N   UNL     1      -9.348  12.144  67.436  1.00  0.00    -0.177 NA 
HETATM   19  C   UNL     1     -10.177  16.599  68.757  1.00  0.00    -0.288 A  
ENDBRANCH   4   5
ENDBRANCH   2   4
TORSDOF 2
ENDMDL
MODEL       68
REMARK 921   NORMALIZED FREE ENERGY PREDICTED BY IDOCK:   -4.38 KCAL/MOL
REMARK 922        TOTAL FREE ENERGY PREDICTED BY IDOCK:   -5.06 KCAL/MOL
REMARK 923 INTER-LIGAND FREE ENERGY PREDICTED BY IDOCK:   -4.85 KCAL/MOL
REMARK 924 INTRA-LIGAND FREE ENERGY PREDICTED BY IDOCK:   -0.21 KCAL/MOL
REMARK 927      BINDING AFFINITY PREDICTED BY RF-SCORE:    0.00 PKD
ROOT
HETATM    1  C   UNL     1      -7.441   7.470  66.689  1.00  0.00    -0.092 C  
HETATM    2  N   UNL     1      -8.756   7.237  66.087  1.00  0.00    -0.151 NA 
HETATM    3  C   UNL     1      -9.250   5.916  66.487  1.00  0.00    -0.145 C  
ENDROOT
BRANCH   2   4
HETATM    4  C   UNL     1      -9.738   8.262  66.487  1.00  0.00    -0.253 C  
BRANCH   4   5
HETATM    5  C   UNL     1     -10.407   8.029  67.848  1.00  0.00    -0.282 C  
HETATM    6  C   UNL     1      -9.942   8.977  68.980  1.00  0.00    -0.191 C  
HETATM    7  C   UNL     1     -10.284  10.434  68.676  1.00  0.00    -0.196 A  
HETATM    8  C   UNL     1     -10.469   8.488  70.332  1.00  0.00    -0.207 A  
HETATM    9  C   UNL     1     -11.612  10.853  68.498  1.00  0.00    -0.360 A  
HETATM   10  C   UNL     1      -9.764   8.772  71.501  1.00  0.00    -0.361 A  
HETATM   11  C   UNL     1     -10.189   8.204  72.702  1.00  0.00    -0.388 A  
HETATM   12  C   UNL     1     -11.898  12.158  68.085  1.00  0.00    -0.362 A  
HETATM   13  C   UNL     1     -11.307   7.379  72.710  1.00  0.00    -0.356 A  
HETATM   14  C   UNL     1     -10.859  13.058  67.861  1.00  0.00    -0.242 A  
HETATM   15  C   UNL     1     -11.972   7.174  71.517  1.00  0.00    -0.326 A  
HETATM   16  C   UNL     1      -9.538  12.674  68.072  1.00  0.00    -0.213 A  
HETATM   17 BR   UNL     1     -11.243  14.800  67.232  1.00  0.00    -0.364 Br 
HETATM   18  N   UNL     1     -11.587   7.715  70.341  1.00  0.00    -0.182 NA 
HETATM   19  C   UNL     1      -9.252  11.369  68.478  1.00  0.00    -0.174 A  
ENDBRANCH   4   5
ENDBRANCH   2   4
TORSDOF 2
ENDMDL
MODEL       69
REMARK 921   NORMALIZED FREE ENERGY PREDICTED BY IDOCK:   -4.33 KCAL/MOL
REMARK 922        TOTAL FREE ENERGY PREDICTED BY IDOCK:   -4.99 KCAL/MOL
REMARK 923 INTER-LIGAND FREE ENERGY PREDICTED BY IDOCK:   -4.79 KCAL/MOL
REMARK 924 INTRA-LIGAND FREE ENERGY PREDICTED BY IDOCK:   -0.21 KCAL/MOL
REMARK 927      BINDING AFFINITY PREDICTED BY RF-SCORE:    0.00 PKD
ROOT
HETATM    1  C   UNL     1      -6.306   8.444  72.792  1.00  0.00    -0.091 C  
HETATM    2  N   UNL     1      -7.351   7.494  73.186  1.00  0.00    -0.074 NA 
HETATM    3  C   UNL     1      -8.138   8.060  74.285  1.00  0.00    -0.258 C  
ENDROOT
BRANCH   2   4
HETATM    4  C   UNL     1      -8.251   7.166  72.065  1.00  0.00    -0.099 C  
BRANCH   4   5
HETATM    5  C   UNL     1      -9.610   7.878  72.090  1.00  0.00    -0.255 C  
HETATM    6  C   UNL     1      -9.928   8.730  70.837  1.00  0.00    -0.279 C  
HETATM    7  C   UNL     1     -10.012   7.875  69.575  1.00  0.00    -0.189 A  
HETATM    8  C   UNL     1     -11.169   9.593  71.083  1.00  0.00    -0.384 A  
HETATM    9  C   UNL     1     -10.958   6.845  69.450  1.00  0.00    -0.274 A  
HETATM   10  C   UNL     1     -11.319  10.808  70.415  1.00  0.00    -0.342 A  
HETATM   11  C   UNL     1     -12.388  11.637  70.754  1.00  0.00    -0.454 A  
HETATM   12  C   UNL     1     -10.932   5.984  68.348  1.00  0.00    -0.340 A  
HETATM   13  C   UNL     1     -13.281  11.234  71.738  1.00  0.00    -0.480 A  
HETATM   14  C   UNL     1      -9.970   6.155  67.356  1.00  0.00    -0.141 A  
HETATM   15  C   UNL     1     -13.084  10.001  72.330  1.00  0.00    -0.291 A  
HETATM   16  C   UNL     1      -9.050   7.196  67.441  1.00  0.00    -0.124 A  
HETATM   17 BR   UNL     1      -9.890   4.946  65.905  1.00  0.00    -0.205 Br 
HETATM   18  N   UNL     1     -12.063   9.174  72.018  1.00  0.00    -0.372 NA 
HETATM   19  C   UNL     1      -9.072   8.052  68.545  1.00  0.00    -0.136 A  
ENDBRANCH   4   5
ENDBRANCH   2   4
TORSDOF 2
ENDMDL
MODEL       70
REMARK 921   NORMALIZED FREE ENERGY PREDICTED BY IDOCK:   -4.32 KCAL/MOL
REMARK 922        TOTAL FREE ENERGY PREDICTED BY IDOCK:   -4.98 KCAL/MOL
REMARK 923 INTER-LIGAND FREE ENERGY PREDICTED BY IDOCK:   -4.79 KCAL/MOL
REMARK 924 INTRA-LIGAND FREE ENERGY PREDICTED BY IDOCK:   -0.19 KCAL/MOL
REMARK 927      BINDING AFFINITY PREDICTED BY RF-SCORE:    0.00 PKD
ROOT
HETATM    1  C   UNL     1      -8.880   9.492  62.657  1.00  0.00    -0.244 C  
HETATM    2  N   UNL     1      -8.007   8.823  63.626  1.00  0.00    -0.150 NA 
HETATM    3  C   UNL     1      -6.608   9.133  63.319  1.00  0.00    -0.090 C  
ENDROOT
BRANCH   2   4
HETATM    4  C   UNL     1      -8.300   9.234  65.012  1.00  0.00    -0.154 C  
BRANCH   4   5
HETATM    5  C   UNL     1      -8.808  10.673  65.172  1.00  0.00    -0.207 C  
HETATM    6  C   UNL     1     -10.129  10.819  65.967  1.00  0.00    -0.305 C  
HETATM    7  C   UNL     1      -9.978  10.346  67.410  1.00  0.00    -0.226 A  
HETATM    8  C   UNL     1     -10.671  12.245  65.837  1.00  0.00    -0.258 A  
HETATM    9  C   UNL     1      -9.065  10.952  68.288  1.00  0.00    -0.158 A  
HETATM   10  C   UNL     1     -12.043  12.482  65.931  1.00  0.00    -0.420 A  
HETATM   11  C   UNL     1     -12.525  13.766  65.677  1.00  0.00    -0.541 A  
HETATM   12  C   UNL     1      -8.840  10.419  69.561  1.00  0.00    -0.111 A  
HETATM   13  C   UNL     1     -11.634  14.778  65.345  1.00  0.00    -0.316 A  
HETATM   14  C   UNL     1      -9.538   9.286  69.973  1.00  0.00    -0.209 A  
HETATM   15  C   UNL     1     -10.287  14.472  65.306  1.00  0.00    -0.410 A  
HETATM   16  C   UNL     1     -10.478   8.696  69.133  1.00  0.00    -0.223 A  
HETATM   17 BR   UNL     1      -9.180   8.525  71.666  1.00  0.00    -0.328 Br 
HETATM   18  N   UNL     1      -9.790  13.241  65.554  1.00  0.00    -0.193 NA 
HETATM   19  C   UNL     1     -10.698   9.224  67.859  1.00  0.00    -0.248 A  
ENDBRANCH   4   5
ENDBRANCH   2   4
TORSDOF 2
ENDMDL
MODEL       71
REMARK 921   NORMALIZED FREE ENERGY PREDICTED BY IDOCK:   -4.31 KCAL/MOL
REMARK 922        TOTAL FREE ENERGY PREDICTED BY IDOCK:   -4.98 KCAL/MOL
REMARK 923 INTER-LIGAND FREE ENERGY PREDICTED BY IDOCK:   -4.80 KCAL/MOL
REMARK 924 INTRA-LIGAND FREE ENERGY PREDICTED BY IDOCK:   -0.17 KCAL/MOL
REMARK 927      BINDING AFFINITY PREDICTED BY RF-SCORE:    0.00 PKD
ROOT
HETATM    1  C   UNL     1     -12.265  14.234  66.102  1.00  0.00    -0.410 C  
HETATM    2  N   UNL     1     -11.567  13.511  67.168  1.00  0.00    -0.337 NA 
HETATM    3  C   UNL     1     -12.032  13.992  68.472  1.00  0.00    -0.348 C  
ENDROOT
BRANCH   2   4
HETATM    4  C   UNL     1     -11.784  12.055  67.085  1.00  0.00    -0.273 C  
BRANCH   4   5
HETATM    5  C   UNL     1     -11.293  11.252  68.296  1.00  0.00    -0.359 C  
HETATM    6  C   UNL     1     -10.829   9.808  67.982  1.00  0.00    -0.276 C  
HETATM    7  C   UNL     1      -9.623   9.790  67.047  1.00  0.00    -0.218 A  
HETATM    8  C   UNL     1     -10.616   9.025  69.281  1.00  0.00    -0.213 A  
HETATM    9  C   UNL     1      -8.408  10.394  67.407  1.00  0.00    -0.121 A  
HETATM   10  C   UNL     1     -10.777   7.640  69.297  1.00  0.00    -0.169 A  
HETATM   11  C   UNL     1     -10.709   6.965  70.516  1.00  0.00    -0.267 A  
HETATM   12  C   UNL     1      -7.359  10.489  66.487  1.00  0.00    -0.125 A  
HETATM   13  C   UNL     1     -10.476   7.683  71.682  1.00  0.00    -0.229 A  
HETATM   14  C   UNL     1      -7.512   9.968  65.204  1.00  0.00    -0.139 A  
HETATM   15  C   UNL     1     -10.293   9.049  71.580  1.00  0.00    -0.350 A  
HETATM   16  C   UNL     1      -8.694   9.328  64.841  1.00  0.00    -0.224 A  
HETATM   17 BR   UNL     1      -6.121  10.162  63.938  1.00  0.00    -0.126 Br 
HETATM   18  N   UNL     1     -10.346   9.727  70.414  1.00  0.00    -0.283 NA 
HETATM   19  C   UNL     1      -9.744   9.239  65.759  1.00  0.00    -0.339 A  
ENDBRANCH   4   5
ENDBRANCH   2   4
TORSDOF 2
ENDMDL
MODEL       72
REMARK 921   NORMALIZED FREE ENERGY PREDICTED BY IDOCK:   -4.30 KCAL/MOL
REMARK 922        TOTAL FREE ENERGY PREDICTED BY IDOCK:   -4.97 KCAL/MOL
REMARK 923 INTER-LIGAND FREE ENERGY PREDICTED BY IDOCK:   -4.79 KCAL/MOL
REMARK 924 INTRA-LIGAND FREE ENERGY PREDICTED BY IDOCK:   -0.18 KCAL/MOL
REMARK 927      BINDING AFFINITY PREDICTED BY RF-SCORE:    0.00 PKD
ROOT
HETATM    1  C   UNL     1     -12.458  14.061  65.345  1.00  0.00    -0.498 C  
HETATM    2  N   UNL     1     -11.537  13.447  66.306  1.00  0.00    -0.330 NA 
HETATM    3  C   UNL     1     -11.905  13.851  67.665  1.00  0.00    -0.386 C  
ENDROOT
BRANCH   2   4
HETATM    4  C   UNL     1     -11.547  11.974  66.220  1.00  0.00    -0.310 C  
BRANCH   4   5
HETATM    5  C   UNL     1     -10.397  11.361  65.410  1.00  0.00    -0.331 C  
HETATM    6  C   UNL     1      -9.208  10.836  66.252  1.00  0.00    -0.195 C  
HETATM    7  C   UNL     1      -9.626   9.693  67.174  1.00  0.00    -0.210 A  
HETATM    8  C   UNL     1      -8.025  10.495  65.342  1.00  0.00    -0.129 A  
HETATM    9  C   UNL     1     -10.149   8.494  66.664  1.00  0.00    -0.364 A  
HETATM   10  C   UNL     1      -6.721  10.574  65.832  1.00  0.00    -0.130 A  
HETATM   11  C   UNL     1      -5.655  10.389  64.952  1.00  0.00    -0.143 A  
HETATM   12  C   UNL     1     -10.654   7.514  67.525  1.00  0.00    -0.331 A  
HETATM   13  C   UNL     1      -5.913  10.122  63.613  1.00  0.00    -0.139 A  
HETATM   14  C   UNL     1     -10.627   7.719  68.902  1.00  0.00    -0.150 A  
HETATM   15  C   UNL     1      -7.232  10.025  63.211  1.00  0.00    -0.134 A  
HETATM   16  C   UNL     1     -10.075   8.884  69.429  1.00  0.00    -0.202 A  
HETATM   17 BR   UNL     1     -11.377   6.427  70.061  1.00  0.00    -0.487 Br 
HETATM   18  N   UNL     1      -8.283  10.193  64.042  1.00  0.00    -0.160 NA 
HETATM   19  C   UNL     1      -9.576   9.865  68.569  1.00  0.00    -0.159 A  
ENDBRANCH   4   5
ENDBRANCH   2   4
TORSDOF 2
ENDMDL
MODEL       73
REMARK 921   NORMALIZED FREE ENERGY PREDICTED BY IDOCK:   -4.28 KCAL/MOL
REMARK 922        TOTAL FREE ENERGY PREDICTED BY IDOCK:   -4.94 KCAL/MOL
REMARK 923 INTER-LIGAND FREE ENERGY PREDICTED BY IDOCK:   -4.64 KCAL/MOL
REMARK 924 INTRA-LIGAND FREE ENERGY PREDICTED BY IDOCK:   -0.30 KCAL/MOL
REMARK 927      BINDING AFFINITY PREDICTED BY RF-SCORE:    0.00 PKD
ROOT
HETATM    1  C   UNL     1      -5.955  12.382  69.862  1.00  0.00    -0.146 C  
HETATM    2  N   UNL     1      -6.774  13.546  69.510  1.00  0.00    -0.060 NA 
HETATM    3  C   UNL     1      -6.531  14.625  70.472  1.00  0.00    -0.053 C  
ENDROOT
BRANCH   2   4
HETATM    4  C   UNL     1      -6.483  14.036  68.150  1.00  0.00    -0.126 C  
BRANCH   4   5
HETATM    5  C   UNL     1      -7.639  13.908  67.149  1.00  0.00     0.045 C  
HETATM    6  C   UNL     1      -8.871  14.797  67.450  1.00  0.00    -0.203 C  
HETATM    7  C   UNL     1      -8.527  16.283  67.386  1.00  0.00    -0.190 A  
HETATM    8  C   UNL     1     -10.046  14.395  66.554  1.00  0.00    -0.276 A  
HETATM    9  C   UNL     1      -8.046  16.874  66.207  1.00  0.00    -0.351 A  
HETATM   10  C   UNL     1     -11.356  14.594  66.990  1.00  0.00    -0.362 A  
HETATM   11  C   UNL     1     -12.407  14.100  66.217  1.00  0.00    -0.451 A  
HETATM   12  C   UNL     1      -7.606  18.201  66.203  1.00  0.00    -0.278 A  
HETATM   13  C   UNL     1     -12.129  13.432  65.032  1.00  0.00    -0.436 A  
HETATM   14  C   UNL     1      -7.657  18.953  67.375  1.00  0.00    -0.230 A  
HETATM   15  C   UNL     1     -10.807  13.305  64.651  1.00  0.00    -0.382 A  
HETATM   16  C   UNL     1      -8.169  18.397  68.545  1.00  0.00    -0.338 A  
HETATM   17 BR   UNL     1      -6.994  20.723  67.386  1.00  0.00    -0.427 Br 
HETATM   18  N   UNL     1      -9.769  13.779  65.374  1.00  0.00    -0.120 NA 
HETATM   19  C   UNL     1      -8.603  17.070  68.550  1.00  0.00    -0.257 A  
ENDBRANCH   4   5
ENDBRANCH   2   4
TORSDOF 2
ENDMDL
MODEL       74
REMARK 921   NORMALIZED FREE ENERGY PREDICTED BY IDOCK:   -4.26 KCAL/MOL
REMARK 922        TOTAL FREE ENERGY PREDICTED BY IDOCK:   -4.92 KCAL/MOL
REMARK 923 INTER-LIGAND FREE ENERGY PREDICTED BY IDOCK:   -4.73 KCAL/MOL
REMARK 924 INTRA-LIGAND FREE ENERGY PREDICTED BY IDOCK:   -0.20 KCAL/MOL
REMARK 927      BINDING AFFINITY PREDICTED BY RF-SCORE:    0.00 PKD
ROOT
HETATM    1  C   UNL     1     -11.241   9.103  71.635  1.00  0.00    -0.377 C  
HETATM    2  N   UNL     1      -9.789   8.969  71.780  1.00  0.00    -0.305 NA 
HETATM    3  C   UNL     1      -9.449   7.567  72.037  1.00  0.00    -0.140 C  
ENDROOT
BRANCH   2   4
HETATM    4  C   UNL     1      -9.068   9.430  70.579  1.00  0.00    -0.256 C  
BRANCH   4   5
HETATM    5  C   UNL     1      -9.922  10.195  69.559  1.00  0.00    -0.257 C  
HETATM    6  C   UNL     1      -9.433  10.103  68.092  1.00  0.00    -0.151 C  
HETATM    7  C   UNL     1      -9.478   8.670  67.569  1.00  0.00    -0.181 A  
HETATM    8  C   UNL     1     -10.192  11.105  67.218  1.00  0.00    -0.193 A  
HETATM    9  C   UNL     1     -10.682   7.952  67.500  1.00  0.00    -0.252 A  
HETATM   10  C   UNL     1      -9.589  11.632  66.075  1.00  0.00    -0.249 A  
HETATM   11  C   UNL     1     -10.245  12.640  65.369  1.00  0.00    -0.301 A  
HETATM   12  C   UNL     1     -10.686   6.598  67.149  1.00  0.00    -0.440 A  
HETATM   13  C   UNL     1     -11.482  13.091  65.811  1.00  0.00    -0.367 A  
HETATM   14  C   UNL     1      -9.487   5.956  66.850  1.00  0.00    -0.135 A  
HETATM   15  C   UNL     1     -12.030  12.495  66.931  1.00  0.00    -0.236 A  
HETATM   16  C   UNL     1      -8.287   6.661  66.872  1.00  0.00    -0.114 A  
HETATM   17 BR   UNL     1      -9.484   4.108  66.447  1.00  0.00    -0.215 Br 
HETATM   18  N   UNL     1     -11.422  11.513  67.630  1.00  0.00    -0.437 NA 
HETATM   19  C   UNL     1      -8.283   8.012  67.228  1.00  0.00    -0.122 A  
ENDBRANCH   4   5
ENDBRANCH   2   4
TORSDOF 2
ENDMDL
MODEL       75
REMARK 921   NORMALIZED FREE ENERGY PREDICTED BY IDOCK:   -4.26 KCAL/MOL
REMARK 922        TOTAL FREE ENERGY PREDICTED BY IDOCK:   -4.92 KCAL/MOL
REMARK 923 INTER-LIGAND FREE ENERGY PREDICTED BY IDOCK:   -4.73 KCAL/MOL
REMARK 924 INTRA-LIGAND FREE ENERGY PREDICTED BY IDOCK:   -0.19 KCAL/MOL
REMARK 927      BINDING AFFINITY PREDICTED BY RF-SCORE:    0.00 PKD
ROOT
HETATM    1  C   UNL     1      -9.886  10.751  65.624  1.00  0.00    -0.245 C  
HETATM    2  N   UNL     1      -9.858   9.312  65.901  1.00  0.00    -0.290 NA 
HETATM    3  C   UNL     1      -8.472   8.880  66.106  1.00  0.00    -0.125 C  
ENDROOT
BRANCH   2   4
HETATM    4  C   UNL     1     -10.655   8.961  67.091  1.00  0.00    -0.231 C  
BRANCH   4   5
HETATM    5  C   UNL     1     -10.984  10.134  68.024  1.00  0.00    -0.326 C  
HETATM    6  C   UNL     1     -11.282   9.742  69.492  1.00  0.00    -0.181 C  
HETATM    7  C   UNL     1     -10.071   9.099  70.165  1.00  0.00    -0.233 A  
HETATM    8  C   UNL     1     -11.849  10.941  70.257  1.00  0.00    -0.361 A  
HETATM    9  C   UNL     1      -8.859   9.792  70.309  1.00  0.00    -0.188 A  
HETATM   10  C   UNL     1     -12.708  10.739  71.337  1.00  0.00    -0.544 A  
HETATM   11  C   UNL     1     -13.317  11.843  71.933  1.00  0.00    -0.405 A  
HETATM   12  C   UNL     1      -7.722   9.144  70.801  1.00  0.00    -0.162 A  
HETATM   13  C   UNL     1     -13.049  13.116  71.446  1.00  0.00    -0.352 A  
HETATM   14  C   UNL     1      -7.791   7.802  71.166  1.00  0.00    -0.089 A  
HETATM   15  C   UNL     1     -12.160  13.238  70.395  1.00  0.00    -0.327 A  
HETATM   16  C   UNL     1      -8.995   7.108  71.070  1.00  0.00    -0.150 A  
HETATM   17 BR   UNL     1      -6.236   6.907  71.762  1.00  0.00    -0.038 Br 
HETATM   18  N   UNL     1     -11.551  12.188  69.803  1.00  0.00    -0.289 NA 
HETATM   19  C   UNL     1     -10.129   7.754  70.573  1.00  0.00    -0.192 A  
ENDBRANCH   4   5
ENDBRANCH   2   4
TORSDOF 2
ENDMDL
MODEL       76
REMARK 921   NORMALIZED FREE ENERGY PREDICTED BY IDOCK:   -4.24 KCAL/MOL
REMARK 922        TOTAL FREE ENERGY PREDICTED BY IDOCK:   -4.89 KCAL/MOL
REMARK 923 INTER-LIGAND FREE ENERGY PREDICTED BY IDOCK:   -4.71 KCAL/MOL
REMARK 924 INTRA-LIGAND FREE ENERGY PREDICTED BY IDOCK:   -0.18 KCAL/MOL
REMARK 927      BINDING AFFINITY PREDICTED BY RF-SCORE:    0.00 PKD
ROOT
HETATM    1  C   UNL     1     -10.127  18.111  69.007  1.00  0.00    -0.275 C  
HETATM    2  N   UNL     1     -10.653  17.281  67.920  1.00  0.00    -0.379 NA 
HETATM    3  C   UNL     1     -10.240  17.844  66.631  1.00  0.00    -0.371 C  
ENDROOT
BRANCH   2   4
HETATM    4  C   UNL     1     -10.182  15.886  68.011  1.00  0.00    -0.238 C  
BRANCH   4   5
HETATM    5  C   UNL     1     -10.942  14.884  67.133  1.00  0.00    -0.323 C  
HETATM    6  C   UNL     1     -10.049  13.953  66.275  1.00  0.00    -0.306 C  
HETATM    7  C   UNL     1      -9.171  13.053  67.141  1.00  0.00    -0.226 A  
HETATM    8  C   UNL     1     -10.903  13.190  65.258  1.00  0.00    -0.297 A  
HETATM    9  C   UNL     1      -9.729  12.137  68.047  1.00  0.00    -0.203 A  
HETATM   10  C   UNL     1     -10.344  12.775  64.049  1.00  0.00    -0.392 A  
HETATM   11  C   UNL     1     -11.171  12.201  63.084  1.00  0.00    -0.258 A  
HETATM   12  C   UNL     1      -8.914  11.420  68.929  1.00  0.00    -0.016 A  
HETATM   13  C   UNL     1     -12.526  12.048  63.349  1.00  0.00    -0.625 A  
HETATM   14  C   UNL     1      -7.534  11.604  68.903  1.00  0.00    -0.092 A  
HETATM   15  C   UNL     1     -12.998  12.452  64.583  1.00  0.00     0.003 A  
HETATM   16  C   UNL     1      -6.958  12.478  67.984  1.00  0.00    -0.095 A  
HETATM   17 BR   UNL     1      -6.439  10.690  70.145  1.00  0.00    -0.141 Br 
HETATM   18  N   UNL     1     -12.220  13.004  65.539  1.00  0.00    -0.447 NA 
HETATM   19  C   UNL     1      -7.773  13.197  67.107  1.00  0.00    -0.032 A  
ENDBRANCH   4   5
ENDBRANCH   2   4
TORSDOF 2
ENDMDL
MODEL       77
REMARK 921   NORMALIZED FREE ENERGY PREDICTED BY IDOCK:   -4.23 KCAL/MOL
REMARK 922        TOTAL FREE ENERGY PREDICTED BY IDOCK:   -4.88 KCAL/MOL
REMARK 923 INTER-LIGAND FREE ENERGY PREDICTED BY IDOCK:   -4.73 KCAL/MOL
REMARK 924 INTRA-LIGAND FREE ENERGY PREDICTED BY IDOCK:   -0.15 KCAL/MOL
REMARK 927      BINDING AFFINITY PREDICTED BY RF-SCORE:    0.00 PKD
ROOT
HETATM    1  C   UNL     1     -13.371   9.591  72.116  1.00  0.00    -0.461 C  
HETATM    2  N   UNL     1     -13.047  10.657  71.165  1.00  0.00    -0.361 NA 
HETATM    3  C   UNL     1     -13.135  11.956  71.838  1.00  0.00    -0.369 C  
ENDROOT
BRANCH   2   4
HETATM    4  C   UNL     1     -11.696  10.499  70.594  1.00  0.00    -0.357 C  
BRANCH   4   5
HETATM    5  C   UNL     1     -10.913   9.281  71.100  1.00  0.00    -0.409 C  
HETATM    6  C   UNL     1     -10.780   8.118  70.086  1.00  0.00    -0.243 C  
HETATM    7  C   UNL     1      -9.999   8.536  68.843  1.00  0.00    -0.197 A  
HETATM    8  C   UNL     1     -10.221   6.872  70.778  1.00  0.00    -0.195 A  
HETATM    9  C   UNL     1      -8.668   8.976  68.927  1.00  0.00    -0.136 A  
HETATM   10  C   UNL     1     -10.541   5.602  70.297  1.00  0.00    -0.370 A  
HETATM   11  C   UNL     1     -10.131   4.483  71.020  1.00  0.00    -0.222 A  
HETATM   12  C   UNL     1      -8.013   9.485  67.801  1.00  0.00    -0.099 A  
HETATM   13  C   UNL     1      -9.408   4.654  72.194  1.00  0.00    -0.175 A  
HETATM   14  C   UNL     1      -8.678   9.543  66.579  1.00  0.00    -0.134 A  
HETATM   15  C   UNL     1      -9.100   5.943  72.586  1.00  0.00    -0.130 A  
HETATM   16  C   UNL     1      -9.984   9.073  66.465  1.00  0.00    -0.355 A  
HETATM   17 BR   UNL     1      -7.816  10.298  65.075  1.00  0.00    -0.107 Br 
HETATM   18  N   UNL     1      -9.478   7.045  71.903  1.00  0.00    -0.141 NA 
HETATM   19  C   UNL     1     -10.640   8.571  67.591  1.00  0.00    -0.268 A  
ENDBRANCH   4   5
ENDBRANCH   2   4
TORSDOF 2
ENDMDL
MODEL       78
REMARK 921   NORMALIZED FREE ENERGY PREDICTED BY IDOCK:   -4.20 KCAL/MOL
REMARK 922        TOTAL FREE ENERGY PREDICTED BY IDOCK:   -4.85 KCAL/MOL
REMARK 923 INTER-LIGAND FREE ENERGY PREDICTED BY IDOCK:   -4.69 KCAL/MOL
REMARK 924 INTRA-LIGAND FREE ENERGY PREDICTED BY IDOCK:   -0.16 KCAL/MOL
REMARK 927      BINDING AFFINITY PREDICTED BY RF-SCORE:    0.00 PKD
ROOT
HETATM    1  C   UNL     1     -13.619   9.028  72.427  1.00  0.00    -0.477 C  
HETATM    2  N   UNL     1     -13.161   9.999  71.429  1.00  0.00    -0.396 NA 
HETATM    3  C   UNL     1     -13.167  11.342  72.014  1.00  0.00    -0.327 C  
ENDROOT
BRANCH   2   4
HETATM    4  C   UNL     1     -11.804   9.691  70.939  1.00  0.00    -0.323 C  
BRANCH   4   5
HETATM    5  C   UNL     1     -11.229  10.700  69.936  1.00  0.00    -0.378 C  
HETATM    6  C   UNL     1      -9.802  10.380  69.428  1.00  0.00    -0.235 C  
HETATM    7  C   UNL     1      -9.756   9.065  68.655  1.00  0.00    -0.168 A  
HETATM    8  C   UNL     1      -9.236  11.573  68.652  1.00  0.00    -0.132 A  
HETATM    9  C   UNL     1     -10.509   8.875  67.486  1.00  0.00    -0.337 A  
HETATM   10  C   UNL     1      -7.858  11.787  68.607  1.00  0.00    -0.117 A  
HETATM   11  C   UNL     1      -7.374  12.950  68.010  1.00  0.00    -0.120 A  
HETATM   12  C   UNL     1     -10.563   7.621  66.869  1.00  0.00    -0.359 A  
HETATM   13  C   UNL     1      -8.269  13.863  67.466  1.00  0.00    -0.196 A  
HETATM   14  C   UNL     1      -9.852   6.551  67.407  1.00  0.00    -0.133 A  
HETATM   15  C   UNL     1      -9.617  13.563  67.519  1.00  0.00    -0.221 A  
HETATM   16  C   UNL     1      -9.066   6.730  68.542  1.00  0.00    -0.129 A  
HETATM   17 BR   UNL     1      -9.983   4.840  66.614  1.00  0.00    -0.279 Br 
HETATM   18  N   UNL     1     -10.114  12.442  68.085  1.00  0.00    -0.218 NA 
HETATM   19  C   UNL     1      -9.017   7.980  69.162  1.00  0.00    -0.145 A  
ENDBRANCH   4   5
ENDBRANCH   2   4
TORSDOF 2
ENDMDL
MODEL       79
REMARK 921   NORMALIZED FREE ENERGY PREDICTED BY IDOCK:   -4.20 KCAL/MOL
REMARK 922        TOTAL FREE ENERGY PREDICTED BY IDOCK:   -4.85 KCAL/MOL
REMARK 923 INTER-LIGAND FREE ENERGY PREDICTED BY IDOCK:   -4.65 KCAL/MOL
REMARK 924 INTRA-LIGAND FREE ENERGY PREDICTED BY IDOCK:   -0.20 KCAL/MOL
REMARK 927      BINDING AFFINITY PREDICTED BY RF-SCORE:    0.00 PKD
ROOT
HETATM    1  C   UNL     1     -13.058   7.987  71.449  1.00  0.00    -0.237 C  
HETATM    2  N   UNL     1     -12.073   8.832  72.130  1.00  0.00    -0.367 NA 
HETATM    3  C   UNL     1     -11.072   7.986  72.786  1.00  0.00    -0.381 C  
ENDROOT
BRANCH   2   4
HETATM    4  C   UNL     1     -11.393   9.751  71.198  1.00  0.00    -0.389 C  
BRANCH   4   5
HETATM    5  C   UNL     1     -10.327   9.103  70.305  1.00  0.00    -0.253 C  
HETATM    6  C   UNL     1     -10.584   9.224  68.782  1.00  0.00    -0.220 C  
HETATM    7  C   UNL     1     -10.581  10.679  68.320  1.00  0.00    -0.227 A  
HETATM    8  C   UNL     1      -9.614   8.327  68.008  1.00  0.00    -0.153 A  
HETATM    9  C   UNL     1      -9.447  11.492  68.469  1.00  0.00    -0.175 A  
HETATM   10  C   UNL     1      -9.982   7.807  66.767  1.00  0.00    -0.331 A  
HETATM   11  C   UNL     1      -9.140   6.887  66.143  1.00  0.00    -0.144 A  
HETATM   12  C   UNL     1      -9.504  12.857  68.168  1.00  0.00    -0.218 A  
HETATM   13  C   UNL     1      -7.953   6.517  66.763  1.00  0.00    -0.108 A  
HETATM   14  C   UNL     1     -10.692  13.415  67.701  1.00  0.00    -0.247 A  
HETATM   15  C   UNL     1      -7.642   7.102  67.976  1.00  0.00    -0.111 A  
HETATM   16  C   UNL     1     -11.815  12.617  67.506  1.00  0.00    -0.396 A  
HETATM   17 BR   UNL     1     -10.789  15.273  67.364  1.00  0.00    -0.308 Br 
HETATM   18  N   UNL     1      -8.435   7.999  68.600  1.00  0.00    -0.127 NA 
HETATM   19  C   UNL     1     -11.760  11.255  67.813  1.00  0.00    -0.254 A  
ENDBRANCH   4   5
ENDBRANCH   2   4
TORSDOF 2
ENDMDL
MODEL       80
REMARK 921   NORMALIZED FREE ENERGY PREDICTED BY IDOCK:   -4.18 KCAL/MOL
REMARK 922        TOTAL FREE ENERGY PREDICTED BY IDOCK:   -4.83 KCAL/MOL
REMARK 923 INTER-LIGAND FREE ENERGY PREDICTED BY IDOCK:   -4.52 KCAL/MOL
REMARK 924 INTRA-LIGAND FREE ENERGY PREDICTED BY IDOCK:   -0.31 KCAL/MOL
REMARK 927      BINDING AFFINITY PREDICTED BY RF-SCORE:    0.00 PKD
ROOT
HETATM    1  C   UNL     1     -12.288  11.699  70.694  1.00  0.00    -0.344 C  
HETATM    2  N   UNL     1     -11.249  11.148  69.820  1.00  0.00    -0.260 NA 
HETATM    3  C   UNL     1     -10.746   9.893  70.385  1.00  0.00    -0.318 C  
ENDROOT
BRANCH   2   4
HETATM    4  C   UNL     1     -11.749  10.898  68.455  1.00  0.00    -0.237 C  
BRANCH   4   5
HETATM    5  C   UNL     1     -11.607  12.075  67.482  1.00  0.00    -0.401 C  
HETATM    6  C   UNL     1     -10.191  12.698  67.407  1.00  0.00    -0.219 C  
HETATM    7  C   UNL     1      -9.158  11.700  66.890  1.00  0.00    -0.188 A  
HETATM    8  C   UNL     1     -10.230  14.011  66.619  1.00  0.00    -0.275 A  
HETATM    9  C   UNL     1      -9.270  11.124  65.614  1.00  0.00    -0.238 A  
HETATM   10  C   UNL     1      -9.301  15.016  66.889  1.00  0.00    -0.258 A  
HETATM   11  C   UNL     1      -9.438  16.250  66.255  1.00  0.00    -0.347 A  
HETATM   12  C   UNL     1      -8.395  10.111  65.211  1.00  0.00    -0.162 A  
HETATM   13  C   UNL     1     -10.486  16.450  65.365  1.00  0.00    -0.333 A  
HETATM   14  C   UNL     1      -7.392   9.675  66.074  1.00  0.00    -0.099 A  
HETATM   15  C   UNL     1     -11.345  15.394  65.125  1.00  0.00    -0.281 A  
HETATM   16  C   UNL     1      -7.239  10.262  67.327  1.00  0.00    -0.089 A  
HETATM   17 BR   UNL     1      -6.257   8.255  65.556  1.00  0.00    -0.045 Br 
HETATM   18  N   UNL     1     -11.233  14.186  65.719  1.00  0.00    -0.307 NA 
HETATM   19  C   UNL     1      -8.117  11.270  67.732  1.00  0.00    -0.119 A  
ENDBRANCH   4   5
ENDBRANCH   2   4
TORSDOF 2
ENDMDL
MODEL       81
REMARK 921   NORMALIZED FREE ENERGY PREDICTED BY IDOCK:   -4.17 KCAL/MOL
REMARK 922        TOTAL FREE ENERGY PREDICTED BY IDOCK:   -4.82 KCAL/MOL
REMARK 923 INTER-LIGAND FREE ENERGY PREDICTED BY IDOCK:   -4.58 KCAL/MOL
REMARK 924 INTRA-LIGAND FREE ENERGY PREDICTED BY IDOCK:   -0.24 KCAL/MOL
REMARK 927      BINDING AFFINITY PREDICTED BY RF-SCORE:    0.00 PKD
ROOT
HETATM    1  C   UNL     1     -12.324  13.327  70.250  1.00  0.00    -0.264 C  
HETATM    2  N   UNL     1     -12.220  12.056  70.974  1.00  0.00    -0.248 NA 
HETATM    3  C   UNL     1     -13.216  12.021  72.048  1.00  0.00    -0.375 C  
ENDROOT
BRANCH   2   4
HETATM    4  C   UNL     1     -12.424  10.896  70.087  1.00  0.00    -0.283 C  
BRANCH   4   5
HETATM    5  C   UNL     1     -11.240  10.557  69.172  1.00  0.00    -0.314 C  
HETATM    6  C   UNL     1      -9.960  10.084  69.903  1.00  0.00    -0.280 C  
HETATM    7  C   UNL     1     -10.190   8.779  70.663  1.00  0.00    -0.247 A  
HETATM    8  C   UNL     1      -8.781  10.031  68.927  1.00  0.00    -0.146 A  
HETATM    9  C   UNL     1     -10.575   7.603  70.000  1.00  0.00    -0.240 A  
HETATM   10  C   UNL     1      -7.479  10.214  69.394  1.00  0.00    -0.119 A  
HETATM   11  C   UNL     1      -6.436  10.295  68.472  1.00  0.00    -0.052 A  
HETATM   12  C   UNL     1     -10.915   6.456  70.724  1.00  0.00    -0.346 A  
HETATM   13  C   UNL     1      -6.713  10.184  67.115  1.00  0.00    -0.074 A  
HETATM   14  C   UNL     1     -10.858   6.471  72.115  1.00  0.00    -0.232 A  
HETATM   15  C   UNL     1      -8.023   9.969  66.734  1.00  0.00    -0.114 A  
HETATM   16  C   UNL     1     -10.438   7.615  72.789  1.00  0.00    -0.368 A  
HETATM   17 BR   UNL     1     -11.387   4.943  73.095  1.00  0.00    -0.347 Br 
HETATM   18  N   UNL     1      -9.052   9.880  67.604  1.00  0.00    -0.131 NA 
HETATM   19  C   UNL     1     -10.105   8.762  72.067  1.00  0.00    -0.397 A  
ENDBRANCH   4   5
ENDBRANCH   2   4
TORSDOF 2
ENDMDL
MODEL       82
REMARK 921   NORMALIZED FREE ENERGY PREDICTED BY IDOCK:   -4.15 KCAL/MOL
REMARK 922        TOTAL FREE ENERGY PREDICTED BY IDOCK:   -4.79 KCAL/MOL
REMARK 923 INTER-LIGAND FREE ENERGY PREDICTED BY IDOCK:   -4.60 KCAL/MOL
REMARK 924 INTRA-LIGAND FREE ENERGY PREDICTED BY IDOCK:   -0.19 KCAL/MOL
REMARK 927      BINDING AFFINITY PREDICTED BY RF-SCORE:    0.00 PKD
ROOT
HETATM    1  C   UNL     1     -12.307  13.254  70.998  1.00  0.00    -0.291 C  
HETATM    2  N   UNL     1     -12.552  14.638  70.583  1.00  0.00    -0.339 NA 
HETATM    3  C   UNL     1     -12.246  15.543  71.694  1.00  0.00    -0.399 C  
ENDROOT
BRANCH   2   4
HETATM    4  C   UNL     1     -11.741  15.018  69.412  1.00  0.00    -0.326 C  
BRANCH   4   5
HETATM    5  C   UNL     1     -11.920  14.125  68.177  1.00  0.00    -0.367 C  
HETATM    6  C   UNL     1     -10.792  14.229  67.122  1.00  0.00    -0.296 C  
HETATM    7  C   UNL     1      -9.448  13.771  67.682  1.00  0.00    -0.217 A  
HETATM    8  C   UNL     1     -11.203  13.508  65.834  1.00  0.00    -0.300 A  
HETATM    9  C   UNL     1      -9.258  12.464  68.156  1.00  0.00    -0.205 A  
HETATM   10  C   UNL     1     -10.687  13.922  64.607  1.00  0.00    -0.422 A  
HETATM   11  C   UNL     1     -11.175  13.341  63.437  1.00  0.00     0.163 A  
HETATM   12  C   UNL     1      -8.065  12.102  68.791  1.00  0.00     0.033 A  
HETATM   13  C   UNL     1     -12.154  12.359  63.519  1.00  0.00    -0.651 A  
HETATM   14  C   UNL     1      -7.048  13.041  68.944  1.00  0.00    -0.068 A  
HETATM   15  C   UNL     1     -12.590  11.978  64.774  1.00  0.00     0.078 A  
HETATM   16  C   UNL     1      -7.201  14.331  68.444  1.00  0.00    -0.113 A  
HETATM   17 BR   UNL     1      -5.466  12.572  69.867  1.00  0.00    -0.114 Br 
HETATM   18  N   UNL     1     -12.131  12.519  65.923  1.00  0.00    -0.601 NA 
HETATM   19  C   UNL     1      -8.394  14.694  67.815  1.00  0.00    -0.168 A  
ENDBRANCH   4   5
ENDBRANCH   2   4
TORSDOF 2
ENDMDL
MODEL       83
REMARK 921   NORMALIZED FREE ENERGY PREDICTED BY IDOCK:   -4.14 KCAL/MOL
REMARK 922        TOTAL FREE ENERGY PREDICTED BY IDOCK:   -4.78 KCAL/MOL
REMARK 923 INTER-LIGAND FREE ENERGY PREDICTED BY IDOCK:   -4.63 KCAL/MOL
REMARK 924 INTRA-LIGAND FREE ENERGY PREDICTED BY IDOCK:   -0.15 KCAL/MOL
REMARK 927      BINDING AFFINITY PREDICTED BY RF-SCORE:    0.00 PKD
ROOT
HETATM    1  C   UNL     1     -11.304  12.030  63.408  1.00  0.00    -0.397 C  
HETATM    2  N   UNL     1     -10.367  11.011  63.887  1.00  0.00    -0.362 NA 
HETATM    3  C   UNL     1      -9.378  10.726  62.844  1.00  0.00    -0.338 C  
ENDROOT
BRANCH   2   4
HETATM    4  C   UNL     1      -9.667  11.436  65.114  1.00  0.00    -0.244 C  
BRANCH   4   5
HETATM    5  C   UNL     1     -10.022  10.640  66.376  1.00  0.00    -0.273 C  
HETATM    6  C   UNL     1      -9.282  11.082  67.663  1.00  0.00    -0.151 C  
HETATM    7  C   UNL     1      -9.630  12.516  68.053  1.00  0.00    -0.212 A  
HETATM    8  C   UNL     1      -9.511  10.063  68.783  1.00  0.00    -0.162 A  
HETATM    9  C   UNL     1     -10.948  12.894  68.354  1.00  0.00    -0.285 A  
HETATM   10  C   UNL     1      -8.552   9.896  69.782  1.00  0.00    -0.219 A  
HETATM   11  C   UNL     1      -8.719   8.873  70.714  1.00  0.00    -0.245 A  
HETATM   12  C   UNL     1     -11.271  14.237  68.575  1.00  0.00    -0.289 A  
HETATM   13  C   UNL     1      -9.835   8.050  70.634  1.00  0.00    -0.192 A  
HETATM   14  C   UNL     1     -10.276  15.210  68.510  1.00  0.00    -0.231 A  
HETATM   15  C   UNL     1     -10.758   8.301  69.637  1.00  0.00    -0.194 A  
HETATM   16  C   UNL     1      -8.956  14.850  68.253  1.00  0.00    -0.177 A  
HETATM   17 BR   UNL     1     -10.727  17.032  68.735  1.00  0.00    -0.270 Br 
HETATM   18  N   UNL     1     -10.626   9.288  68.725  1.00  0.00    -0.214 NA 
HETATM   19  C   UNL     1      -8.634  13.510  68.027  1.00  0.00    -0.177 A  
ENDBRANCH   4   5
ENDBRANCH   2   4
TORSDOF 2
ENDMDL
MODEL       84
REMARK 921   NORMALIZED FREE ENERGY PREDICTED BY IDOCK:   -4.11 KCAL/MOL
REMARK 922        TOTAL FREE ENERGY PREDICTED BY IDOCK:   -4.75 KCAL/MOL
REMARK 923 INTER-LIGAND FREE ENERGY PREDICTED BY IDOCK:   -4.49 KCAL/MOL
REMARK 924 INTRA-LIGAND FREE ENERGY PREDICTED BY IDOCK:   -0.25 KCAL/MOL
REMARK 927      BINDING AFFINITY PREDICTED BY RF-SCORE:    0.00 PKD
ROOT
HETATM    1  C   UNL     1     -12.602  12.063  63.758  1.00  0.00    -0.454 C  
HETATM    2  N   UNL     1     -11.945  13.309  64.160  1.00  0.00    -0.423 NA 
HETATM    3  C   UNL     1     -12.507  13.772  65.431  1.00  0.00    -0.500 C  
ENDROOT
BRANCH   2   4
HETATM    4  C   UNL     1     -10.487  13.144  64.307  1.00  0.00    -0.389 C  
BRANCH   4   5
HETATM    5  C   UNL     1      -9.933  11.793  63.837  1.00  0.00    -0.356 C  
HETATM    6  C   UNL     1      -8.821  11.192  64.731  1.00  0.00     0.038 C  
HETATM    7  C   UNL     1      -9.329  10.882  66.137  1.00  0.00    -0.211 A  
HETATM    8  C   UNL     1      -8.168   9.995  64.033  1.00  0.00    -0.156 A  
HETATM    9  C   UNL     1     -10.376   9.972  66.354  1.00  0.00    -0.249 A  
HETATM   10  C   UNL     1      -6.842   9.663  64.309  1.00  0.00    -0.112 A  
HETATM   11  C   UNL     1      -6.228   8.656  63.565  1.00  0.00    -0.081 A  
HETATM   12  C   UNL     1     -10.921   9.804  67.631  1.00  0.00    -0.226 A  
HETATM   13  C   UNL     1      -6.950   8.001  62.576  1.00  0.00    -0.086 A  
HETATM   14  C   UNL     1     -10.414  10.534  68.704  1.00  0.00    -0.191 A  
HETATM   15  C   UNL     1      -8.270   8.363  62.385  1.00  0.00    -0.181 A  
HETATM   16  C   UNL     1      -9.349  11.411  68.516  1.00  0.00    -0.180 A  
HETATM   17 BR   UNL     1     -11.199  10.361  70.415  1.00  0.00    -0.381 Br 
HETATM   18  N   UNL     1      -8.892   9.329  63.094  1.00  0.00    -0.195 NA 
HETATM   19  C   UNL     1      -8.809  11.583  67.240  1.00  0.00    -0.160 A  
ENDBRANCH   4   5
ENDBRANCH   2   4
TORSDOF 2
ENDMDL
MODEL       85
REMARK 921   NORMALIZED FREE ENERGY PREDICTED BY IDOCK:   -4.08 KCAL/MOL
REMARK 922        TOTAL FREE ENERGY PREDICTED BY IDOCK:   -4.72 KCAL/MOL
REMARK 923 INTER-LIGAND FREE ENERGY PREDICTED BY IDOCK:   -4.56 KCAL/MOL
REMARK 924 INTRA-LIGAND FREE ENERGY PREDICTED BY IDOCK:   -0.16 KCAL/MOL
REMARK 927      BINDING AFFINITY PREDICTED BY RF-SCORE:    0.00 PKD
ROOT
HETATM    1  C   UNL     1     -10.583  10.851  65.809  1.00  0.00    -0.163 C  
HETATM    2  N   UNL     1     -11.173  11.977  66.537  1.00  0.00    -0.318 NA 
HETATM    3  C   UNL     1     -12.090  12.705  65.655  1.00  0.00    -0.443 C  
ENDROOT
BRANCH   2   4
HETATM    4  C   UNL     1     -11.906  11.536  67.739  1.00  0.00    -0.154 C  
BRANCH   4   5
HETATM    5  C   UNL     1     -11.787  12.465  68.953  1.00  0.00    -0.350 C  
HETATM    6  C   UNL     1     -12.772  12.164  70.110  1.00  0.00     0.170 C  
HETATM    7  C   UNL     1     -12.534  10.782  70.712  1.00  0.00    -0.481 A  
HETATM    8  C   UNL     1     -12.745  13.299  71.138  1.00  0.00    -0.320 A  
HETATM    9  C   UNL     1     -11.307  10.441  71.304  1.00  0.00     0.034 A  
HETATM   10  C   UNL     1     -13.876  13.573  71.907  1.00  0.00    -0.421 A  
HETATM   11  C   UNL     1     -13.874  14.692  72.739  1.00  0.00    -0.381 A  
HETATM   12  C   UNL     1     -11.059   9.131  71.725  1.00  0.00    -0.437 A  
HETATM   13  C   UNL     1     -12.747  15.503  72.790  1.00  0.00    -0.532 A  
HETATM   14  C   UNL     1     -12.041   8.155  71.573  1.00  0.00    -0.298 A  
HETATM   15  C   UNL     1     -11.653  15.146  72.025  1.00  0.00    -0.412 A  
HETATM   16  C   UNL     1     -13.279   8.482  71.027  1.00  0.00     0.084 A  
HETATM   17 BR   UNL     1     -11.677   6.369  72.076  1.00  0.00    -0.375 Br 
HETATM   18  N   UNL     1     -11.625  14.065  71.216  1.00  0.00     0.196 NA 
HETATM   19  C   UNL     1     -13.524   9.789  70.600  1.00  0.00     0.041 A  
ENDBRANCH   4   5
ENDBRANCH   2   4
TORSDOF 2
ENDMDL
MODEL       86
REMARK 921   NORMALIZED FREE ENERGY PREDICTED BY IDOCK:   -4.07 KCAL/MOL
REMARK 922        TOTAL FREE ENERGY PREDICTED BY IDOCK:   -4.70 KCAL/MOL
REMARK 923 INTER-LIGAND FREE ENERGY PREDICTED BY IDOCK:   -4.53 KCAL/MOL
REMARK 924 INTRA-LIGAND FREE ENERGY PREDICTED BY IDOCK:   -0.17 KCAL/MOL
REMARK 927      BINDING AFFINITY PREDICTED BY RF-SCORE:    0.00 PKD
ROOT
HETATM    1  C   UNL     1     -13.328  10.054  71.979  1.00  0.00    -0.409 C  
HETATM    2  N   UNL     1     -13.122  11.240  71.144  1.00  0.00    -0.245 NA 
HETATM    3  C   UNL     1     -13.251  12.447  71.966  1.00  0.00    -0.409 C  
ENDROOT
BRANCH   2   4
HETATM    4  C   UNL     1     -11.798  11.237  70.493  1.00  0.00    -0.324 C  
BRANCH   4   5
HETATM    5  C   UNL     1     -11.247   9.849  70.144  1.00  0.00    -0.347 C  
HETATM    6  C   UNL     1     -10.725   9.696  68.694  1.00  0.00    -0.233 C  
HETATM    7  C   UNL     1      -9.538  10.615  68.418  1.00  0.00    -0.170 A  
HETATM    8  C   UNL     1     -10.450   8.222  68.383  1.00  0.00    -0.162 A  
HETATM    9  C   UNL     1      -8.344  10.511  69.149  1.00  0.00    -0.154 A  
HETATM   10  C   UNL     1     -10.548   7.754  67.072  1.00  0.00    -0.396 A  
HETATM   11  C   UNL     1     -10.425   6.386  66.831  1.00  0.00    -0.340 A  
HETATM   12  C   UNL     1      -7.320  11.447  68.979  1.00  0.00    -0.108 A  
HETATM   13  C   UNL     1     -10.201   5.522  67.896  1.00  0.00    -0.231 A  
HETATM   14  C   UNL     1      -7.475  12.487  68.065  1.00  0.00    -0.117 A  
HETATM   15  C   UNL     1     -10.082   6.066  69.161  1.00  0.00    -0.181 A  
HETATM   16  C   UNL     1      -8.634  12.584  67.301  1.00  0.00    -0.191 A  
HETATM   17 BR   UNL     1      -6.120  13.794  67.889  1.00  0.00    -0.144 Br 
HETATM   18  N   UNL     1     -10.189   7.386  69.423  1.00  0.00    -0.196 NA 
HETATM   19  C   UNL     1      -9.660  11.652  67.475  1.00  0.00    -0.176 A  
ENDBRANCH   4   5
ENDBRANCH   2   4
TORSDOF 2
ENDMDL
MODEL       87
REMARK 921   NORMALIZED FREE ENERGY PREDICTED BY IDOCK:   -4.05 KCAL/MOL
REMARK 922        TOTAL FREE ENERGY PREDICTED BY IDOCK:   -4.69 KCAL/MOL
REMARK 923 INTER-LIGAND FREE ENERGY PREDICTED BY IDOCK:   -4.57 KCAL/MOL
REMARK 924 INTRA-LIGAND FREE ENERGY PREDICTED BY IDOCK:   -0.11 KCAL/MOL
REMARK 927      BINDING AFFINITY PREDICTED BY RF-SCORE:    0.00 PKD
ROOT
HETATM    1  C   UNL     1     -11.261   4.724  73.259  1.00  0.00    -0.340 C  
HETATM    2  N   UNL     1     -10.213   5.562  73.848  1.00  0.00    -0.219 NA 
HETATM    3  C   UNL     1      -8.914   4.902  73.692  1.00  0.00    -0.107 C  
ENDROOT
BRANCH   2   4
HETATM    4  C   UNL     1     -10.155   6.897  73.223  1.00  0.00    -0.232 C  
BRANCH   4   5
HETATM    5  C   UNL     1      -9.759   6.907  71.741  1.00  0.00    -0.163 C  
HETATM    6  C   UNL     1     -10.933   7.085  70.748  1.00  0.00    -0.285 C  
HETATM    7  C   UNL     1     -11.627   8.434  70.926  1.00  0.00    -0.288 A  
HETATM    8  C   UNL     1     -10.462   6.817  69.316  1.00  0.00    -0.215 A  
HETATM    9  C   UNL     1     -10.935   9.643  70.749  1.00  0.00    -0.397 A  
HETATM   10  C   UNL     1     -11.362   6.344  68.361  1.00  0.00    -0.145 A  
HETATM   11  C   UNL     1     -10.884   5.980  67.103  1.00  0.00    -0.414 A  
HETATM   12  C   UNL     1     -11.547  10.864  71.050  1.00  0.00    -0.004 A  
HETATM   13  C   UNL     1      -9.528   6.105  66.825  1.00  0.00    -0.164 A  
HETATM   14  C   UNL     1     -12.859  10.887  71.515  1.00  0.00    -0.454 A  
HETATM   15  C   UNL     1      -8.706   6.614  67.811  1.00  0.00    -0.116 A  
HETATM   16  C   UNL     1     -13.576   9.702  71.657  1.00  0.00    -0.402 A  
HETATM   17 BR   UNL     1     -13.660  12.533  71.991  1.00  0.00    -0.224 Br 
HETATM   18  N   UNL     1      -9.142   6.980  69.036  1.00  0.00    -0.136 NA 
HETATM   19  C   UNL     1     -12.963   8.482  71.363  1.00  0.00    -0.267 A  
ENDBRANCH   4   5
ENDBRANCH   2   4
TORSDOF 2
ENDMDL
MODEL       88
REMARK 921   NORMALIZED FREE ENERGY PREDICTED BY IDOCK:   -4.04 KCAL/MOL
REMARK 922        TOTAL FREE ENERGY PREDICTED BY IDOCK:   -4.67 KCAL/MOL
REMARK 923 INTER-LIGAND FREE ENERGY PREDICTED BY IDOCK:   -4.50 KCAL/MOL
REMARK 924 INTRA-LIGAND FREE ENERGY PREDICTED BY IDOCK:   -0.17 KCAL/MOL
REMARK 927      BINDING AFFINITY PREDICTED BY RF-SCORE:    0.00 PKD
ROOT
HETATM    1  C   UNL     1      -6.077   9.817  69.849  1.00  0.00    -0.045 C  
HETATM    2  N   UNL     1      -6.931  11.005  69.930  1.00  0.00    -0.107 NA 
HETATM    3  C   UNL     1      -6.093  12.205  70.014  1.00  0.00    -0.138 C  
ENDROOT
BRANCH   2   4
HETATM    4  C   UNL     1      -7.829  11.123  68.766  1.00  0.00    -0.142 C  
BRANCH   4   5
HETATM    5  C   UNL     1      -8.027   9.832  67.962  1.00  0.00    -0.097 C  
HETATM    6  C   UNL     1      -9.500   9.474  67.647  1.00  0.00    -0.153 C  
HETATM    7  C   UNL     1     -10.165  10.530  66.767  1.00  0.00    -0.288 A  
HETATM    8  C   UNL     1      -9.591   8.053  67.083  1.00  0.00    -0.175 A  
HETATM    9  C   UNL     1      -9.677  10.829  65.485  1.00  0.00    -0.290 A  
HETATM   10  C   UNL     1     -10.752   7.301  67.266  1.00  0.00    -0.391 A  
HETATM   11  C   UNL     1     -10.764   5.967  66.862  1.00  0.00    -0.395 A  
HETATM   12  C   UNL     1     -10.211  11.892  64.750  1.00  0.00    -0.314 A  
HETATM   13  C   UNL     1      -9.629   5.419  66.280  1.00  0.00    -0.175 A  
HETATM   14  C   UNL     1     -11.246  12.655  65.284  1.00  0.00    -0.300 A  
HETATM   15  C   UNL     1      -8.530   6.237  66.101  1.00  0.00    -0.138 A  
HETATM   16  C   UNL     1     -11.772  12.348  66.537  1.00  0.00    -0.443 A  
HETATM   17 BR   UNL     1     -11.917  14.136  64.320  1.00  0.00    -0.418 Br 
HETATM   18  N   UNL     1      -8.491   7.534  66.476  1.00  0.00    -0.125 NA 
HETATM   19  C   UNL     1     -11.234  11.290  67.274  1.00  0.00    -0.364 A  
ENDBRANCH   4   5
ENDBRANCH   2   4
TORSDOF 2
ENDMDL
MODEL       89
REMARK 921   NORMALIZED FREE ENERGY PREDICTED BY IDOCK:   -4.00 KCAL/MOL
REMARK 922        TOTAL FREE ENERGY PREDICTED BY IDOCK:   -4.63 KCAL/MOL
REMARK 923 INTER-LIGAND FREE ENERGY PREDICTED BY IDOCK:   -4.45 KCAL/MOL
REMARK 924 INTRA-LIGAND FREE ENERGY PREDICTED BY IDOCK:   -0.18 KCAL/MOL
REMARK 927      BINDING AFFINITY PREDICTED BY RF-SCORE:    0.00 PKD
ROOT
HETATM    1  C   UNL     1     -11.656   7.968  72.493  1.00  0.00    -0.403 C  
HETATM    2  N   UNL     1     -12.561   8.570  71.510  1.00  0.00    -0.314 NA 
HETATM    3  C   UNL     1     -13.806   8.971  72.171  1.00  0.00    -0.466 C  
ENDROOT
BRANCH   2   4
HETATM    4  C   UNL     1     -11.961   9.748  70.854  1.00  0.00    -0.328 C  
BRANCH   4   5
HETATM    5  C   UNL     1     -10.427   9.767  70.825  1.00  0.00    -0.339 C  
HETATM    6  C   UNL     1      -9.795   9.616  69.419  1.00  0.00    -0.203 C  
HETATM    7  C   UNL     1     -10.170  10.777  68.501  1.00  0.00    -0.192 A  
HETATM    8  C   UNL     1      -8.286   9.385  69.539  1.00  0.00    -0.127 A  
HETATM    9  C   UNL     1      -9.823  12.101  68.815  1.00  0.00    -0.034 A  
HETATM   10  C   UNL     1      -7.609   8.666  68.554  1.00  0.00    -0.095 A  
HETATM   11  C   UNL     1      -6.264   8.354  68.749  1.00  0.00    -0.045 A  
HETATM   12  C   UNL     1     -10.292  13.164  68.037  1.00  0.00    -0.240 A  
HETATM   13  C   UNL     1      -5.627   8.770  69.911  1.00  0.00    -0.028 A  
HETATM   14  C   UNL     1     -11.099  12.910  66.930  1.00  0.00    -0.278 A  
HETATM   15  C   UNL     1      -6.356   9.508  70.824  1.00  0.00    -0.091 A  
HETATM   16  C   UNL     1     -11.419  11.602  66.578  1.00  0.00    -0.260 A  
HETATM   17 BR   UNL     1     -11.792  14.352  65.922  1.00  0.00    -0.352 Br 
HETATM   18  N   UNL     1      -7.657   9.831  70.659  1.00  0.00    -0.297 NA 
HETATM   19  C   UNL     1     -10.956  10.541  67.359  1.00  0.00    -0.352 A  
ENDBRANCH   4   5
ENDBRANCH   2   4
TORSDOF 2
ENDMDL
MODEL       90
REMARK 921   NORMALIZED FREE ENERGY PREDICTED BY IDOCK:   -3.95 KCAL/MOL
REMARK 922        TOTAL FREE ENERGY PREDICTED BY IDOCK:   -4.57 KCAL/MOL
REMARK 923 INTER-LIGAND FREE ENERGY PREDICTED BY IDOCK:   -4.44 KCAL/MOL
REMARK 924 INTRA-LIGAND FREE ENERGY PREDICTED BY IDOCK:   -0.13 KCAL/MOL
REMARK 927      BINDING AFFINITY PREDICTED BY RF-SCORE:    0.00 PKD
ROOT
HETATM    1  C   UNL     1      -5.832  10.461  64.403  1.00  0.00    -0.123 C  
HETATM    2  N   UNL     1      -7.005   9.614  64.166  1.00  0.00    -0.111 NA 
HETATM    3  C   UNL     1      -6.773   8.284  64.735  1.00  0.00    -0.067 C  
ENDROOT
BRANCH   2   4
HETATM    4  C   UNL     1      -8.229  10.186  64.756  1.00  0.00    -0.161 C  
BRANCH   4   5
HETATM    5  C   UNL     1      -9.097   9.196  65.544  1.00  0.00    -0.275 C  
HETATM    6  C   UNL     1      -9.161   9.448  67.070  1.00  0.00    -0.171 C  
HETATM    7  C   UNL     1      -9.799  10.797  67.396  1.00  0.00    -0.204 A  
HETATM    8  C   UNL     1      -9.827   8.264  67.776  1.00  0.00    -0.170 A  
HETATM    9  C   UNL     1     -11.117  11.095  67.015  1.00  0.00    -0.339 A  
HETATM   10  C   UNL     1      -9.499   7.963  69.098  1.00  0.00    -0.155 A  
HETATM   11  C   UNL     1     -10.015   6.804  69.676  1.00  0.00    -0.184 A  
HETATM   12  C   UNL     1     -11.638  12.380  67.198  1.00  0.00    -0.435 A  
HETATM   13  C   UNL     1     -10.848   5.981  68.930  1.00  0.00    -0.400 A  
HETATM   14  C   UNL     1     -10.850  13.373  67.777  1.00  0.00    -0.252 A  
HETATM   15  C   UNL     1     -11.154   6.364  67.638  1.00  0.00    -0.289 A  
HETATM   16  C   UNL     1      -9.555  13.085  68.200  1.00  0.00    -0.227 A  
HETATM   17 BR   UNL     1     -11.530  15.128  67.958  1.00  0.00    -0.345 Br 
HETATM   18  N   UNL     1     -10.675   7.484  67.055  1.00  0.00    -0.352 NA 
HETATM   19  C   UNL     1      -9.033  11.803  68.011  1.00  0.00    -0.176 A  
ENDBRANCH   4   5
ENDBRANCH   2   4
TORSDOF 2
ENDMDL
MODEL       91
REMARK 921   NORMALIZED FREE ENERGY PREDICTED BY IDOCK:   -3.93 KCAL/MOL
REMARK 922        TOTAL FREE ENERGY PREDICTED BY IDOCK:   -4.55 KCAL/MOL
REMARK 923 INTER-LIGAND FREE ENERGY PREDICTED BY IDOCK:   -4.31 KCAL/MOL
REMARK 924 INTRA-LIGAND FREE ENERGY PREDICTED BY IDOCK:   -0.24 KCAL/MOL
REMARK 927      BINDING AFFINITY PREDICTED BY RF-SCORE:    0.00 PKD
ROOT
HETATM    1  C   UNL     1     -12.404  12.497  64.879  1.00  0.00    -0.470 C  
HETATM    2  N   UNL     1     -12.056  13.875  65.236  1.00  0.00    -0.387 NA 
HETATM    3  C   UNL     1     -12.525  14.162  66.595  1.00  0.00    -0.219 C  
ENDROOT
BRANCH   2   4
HETATM    4  C   UNL     1     -10.603  14.115  65.165  1.00  0.00    -0.398 C  
BRANCH   4   5
HETATM    5  C   UNL     1      -9.777  13.449  66.272  1.00  0.00    -0.280 C  
HETATM    6  C   UNL     1      -8.449  14.166  66.623  1.00  0.00     0.094 C  
HETATM    7  C   UNL     1      -8.691  15.569  67.173  1.00  0.00    -0.234 A  
HETATM    8  C   UNL     1      -7.595  13.283  67.537  1.00  0.00    -0.164 A  
HETATM    9  C   UNL     1      -9.432  15.779  68.347  1.00  0.00    -0.196 A  
HETATM   10  C   UNL     1      -6.205  13.398  67.520  1.00  0.00    -0.096 A  
HETATM   11  C   UNL     1      -5.443  12.494  68.259  1.00  0.00    -0.061 A  
HETATM   12  C   UNL     1      -9.761  17.074  68.761  1.00  0.00    -0.273 A  
HETATM   13  C   UNL     1      -6.081  11.508  69.001  1.00  0.00    -0.055 A  
HETATM   14  C   UNL     1      -9.338  18.170  68.012  1.00  0.00    -0.283 A  
HETATM   15  C   UNL     1      -7.463  11.480  68.994  1.00  0.00    -0.073 A  
HETATM   16  C   UNL     1      -8.567  17.984  66.868  1.00  0.00    -0.262 A  
HETATM   17 BR   UNL     1      -9.845  19.916  68.532  1.00  0.00    -0.427 Br 
HETATM   18  N   UNL     1      -8.227  12.346  68.294  1.00  0.00    -0.168 NA 
HETATM   19  C   UNL     1      -8.244  16.691  66.451  1.00  0.00    -0.353 A  
ENDBRANCH   4   5
ENDBRANCH   2   4
TORSDOF 2
ENDMDL
MODEL       92
REMARK 921   NORMALIZED FREE ENERGY PREDICTED BY IDOCK:   -3.90 KCAL/MOL
REMARK 922        TOTAL FREE ENERGY PREDICTED BY IDOCK:   -4.52 KCAL/MOL
REMARK 923 INTER-LIGAND FREE ENERGY PREDICTED BY IDOCK:   -4.35 KCAL/MOL
REMARK 924 INTRA-LIGAND FREE ENERGY PREDICTED BY IDOCK:   -0.17 KCAL/MOL
REMARK 927      BINDING AFFINITY PREDICTED BY RF-SCORE:    0.00 PKD
ROOT
HETATM    1  C   UNL     1      -6.874  12.466  67.182  1.00  0.00    -0.075 C  
HETATM    2  N   UNL     1      -8.244  11.978  67.357  1.00  0.00    -0.159 NA 
HETATM    3  C   UNL     1      -8.229  10.751  68.158  1.00  0.00    -0.119 C  
ENDROOT
BRANCH   2   4
HETATM    4  C   UNL     1      -9.107  12.976  68.017  1.00  0.00    -0.210 C  
BRANCH   4   5
HETATM    5  C   UNL     1      -8.399  14.266  68.450  1.00  0.00    -0.164 C  
HETATM    6  C   UNL     1      -9.248  15.555  68.324  1.00  0.00    -0.188 C  
HETATM    7  C   UNL     1     -10.475  15.517  69.231  1.00  0.00    -0.245 A  
HETATM    8  C   UNL     1      -8.367  16.791  68.528  1.00  0.00    -0.243 A  
HETATM    9  C   UNL     1     -10.353  15.407  70.626  1.00  0.00     0.065 A  
HETATM   10  C   UNL     1      -8.706  17.999  67.917  1.00  0.00    -0.258 A  
HETATM   11  C   UNL     1      -7.821  19.073  68.006  1.00  0.00    -0.319 A  
HETATM   12  C   UNL     1     -11.485  15.234  71.429  1.00  0.00    -0.444 A  
HETATM   13  C   UNL     1      -6.631  18.922  68.705  1.00  0.00    -0.296 A  
HETATM   14  C   UNL     1     -12.749  15.186  70.845  1.00  0.00    -0.401 A  
HETATM   15  C   UNL     1      -6.382  17.705  69.311  1.00  0.00    -0.247 A  
HETATM   16  C   UNL     1     -12.894  15.336  69.469  1.00  0.00     0.250 A  
HETATM   17 BR   UNL     1     -14.271  14.880  71.924  1.00  0.00    -0.702 Br 
HETATM   18  N   UNL     1      -7.223  16.650  69.248  1.00  0.00    -0.229 NA 
HETATM   19  C   UNL     1     -11.763  15.501  68.666  1.00  0.00    -0.363 A  
ENDBRANCH   4   5
ENDBRANCH   2   4
TORSDOF 2
ENDMDL
MODEL       93
REMARK 921   NORMALIZED FREE ENERGY PREDICTED BY IDOCK:   -3.90 KCAL/MOL
REMARK 922        TOTAL FREE ENERGY PREDICTED BY IDOCK:   -4.51 KCAL/MOL
REMARK 923 INTER-LIGAND FREE ENERGY PREDICTED BY IDOCK:   -4.35 KCAL/MOL
REMARK 924 INTRA-LIGAND FREE ENERGY PREDICTED BY IDOCK:   -0.16 KCAL/MOL
REMARK 927      BINDING AFFINITY PREDICTED BY RF-SCORE:    0.00 PKD
ROOT
HETATM    1  C   UNL     1     -10.011  11.095  63.492  1.00  0.00    -0.379 C  
HETATM    2  N   UNL     1     -10.743  12.027  64.355  1.00  0.00    -0.301 NA 
HETATM    3  C   UNL     1     -12.164  12.013  63.997  1.00  0.00    -0.403 C  
ENDROOT
BRANCH   2   4
HETATM    4  C   UNL     1     -10.601  11.687  65.783  1.00  0.00    -0.271 C  
BRANCH   4   5
HETATM    5  C   UNL     1     -10.443  12.886  66.726  1.00  0.00    -0.262 C  
HETATM    6  C   UNL     1     -10.746  12.594  68.217  1.00  0.00    -0.248 C  
HETATM    7  C   UNL     1      -9.778  11.569  68.802  1.00  0.00    -0.137 A  
HETATM    8  C   UNL     1     -10.815  13.903  69.010  1.00  0.00    -0.225 A  
HETATM    9  C   UNL     1      -8.396  11.809  68.847  1.00  0.00     0.073 A  
HETATM   10  C   UNL     1     -11.609  13.986  70.154  1.00  0.00    -0.273 A  
HETATM   11  C   UNL     1     -11.761  15.221  70.783  1.00  0.00    -0.377 A  
HETATM   12  C   UNL     1      -7.512  10.806  69.258  1.00  0.00    -0.135 A  
HETATM   13  C   UNL     1     -11.115  16.336  70.264  1.00  0.00    -0.340 A  
HETATM   14  C   UNL     1      -8.005   9.561  69.642  1.00  0.00    -0.120 A  
HETATM   15  C   UNL     1     -10.318  16.166  69.148  1.00  0.00    -0.259 A  
HETATM   16  C   UNL     1      -9.376   9.317  69.643  1.00  0.00    -0.187 A  
HETATM   17 BR   UNL     1      -6.804   8.183  70.127  1.00  0.00    -0.040 Br 
HETATM   18  N   UNL     1     -10.147  14.982  68.522  1.00  0.00    -0.219 NA 
HETATM   19  C   UNL     1     -10.258  10.317  69.227  1.00  0.00    -0.244 A  
ENDBRANCH   4   5
ENDBRANCH   2   4
TORSDOF 2
ENDMDL
MODEL       94
REMARK 921   NORMALIZED FREE ENERGY PREDICTED BY IDOCK:   -3.89 KCAL/MOL
REMARK 922        TOTAL FREE ENERGY PREDICTED BY IDOCK:   -4.51 KCAL/MOL
REMARK 923 INTER-LIGAND FREE ENERGY PREDICTED BY IDOCK:   -4.31 KCAL/MOL
REMARK 924 INTRA-LIGAND FREE ENERGY PREDICTED BY IDOCK:   -0.20 KCAL/MOL
REMARK 927      BINDING AFFINITY PREDICTED BY RF-SCORE:    0.00 PKD
ROOT
HETATM    1  C   UNL     1      -5.215   9.079  72.206  1.00  0.00    -0.058 C  
HETATM    2  N   UNL     1      -6.515   9.350  71.588  1.00  0.00    -0.286 NA 
HETATM    3  C   UNL     1      -6.314   9.977  70.279  1.00  0.00    -0.107 C  
ENDROOT
BRANCH   2   4
HETATM    4  C   UNL     1      -7.315   8.122  71.418  1.00  0.00    -0.076 C  
BRANCH   4   5
HETATM    5  C   UNL     1      -8.810   8.270  71.727  1.00  0.00    -0.230 C  
HETATM    6  C   UNL     1      -9.662   8.869  70.582  1.00  0.00    -0.260 C  
HETATM    7  C   UNL     1      -9.655   7.977  69.343  1.00  0.00    -0.160 A  
HETATM    8  C   UNL     1     -11.066   9.212  71.089  1.00  0.00    -0.323 A  
HETATM    9  C   UNL     1     -10.143   6.661  69.385  1.00  0.00    -0.192 A  
HETATM   10  C   UNL     1     -11.793  10.242  70.492  1.00  0.00    -0.419 A  
HETATM   11  C   UNL     1     -13.010  10.624  71.054  1.00  0.00    -0.456 A  
HETATM   12  C   UNL     1     -10.003   5.814  68.281  1.00  0.00    -0.185 A  
HETATM   13  C   UNL     1     -13.476   9.969  72.187  1.00  0.00    -0.420 A  
HETATM   14  C   UNL     1      -9.388   6.281  67.122  1.00  0.00    -0.123 A  
HETATM   15  C   UNL     1     -12.715   8.936  72.700  1.00  0.00    -0.219 A  
HETATM   16  C   UNL     1      -8.935   7.595  67.046  1.00  0.00    -0.148 A  
HETATM   17 BR   UNL     1      -9.134   5.113  65.656  1.00  0.00    -0.153 Br 
HETATM   18  N   UNL     1     -11.536   8.539  72.173  1.00  0.00    -0.357 NA 
HETATM   19  C   UNL     1      -9.070   8.439  68.151  1.00  0.00    -0.138 A  
ENDBRANCH   4   5
ENDBRANCH   2   4
TORSDOF 2
ENDMDL
MODEL       95
REMARK 921   NORMALIZED FREE ENERGY PREDICTED BY IDOCK:   -3.89 KCAL/MOL
REMARK 922        TOTAL FREE ENERGY PREDICTED BY IDOCK:   -4.50 KCAL/MOL
REMARK 923 INTER-LIGAND FREE ENERGY PREDICTED BY IDOCK:   -4.39 KCAL/MOL
REMARK 924 INTRA-LIGAND FREE ENERGY PREDICTED BY IDOCK:   -0.11 KCAL/MOL
REMARK 927      BINDING AFFINITY PREDICTED BY RF-SCORE:    0.00 PKD
ROOT
HETATM    1  C   UNL     1     -11.327   7.634  72.949  1.00  0.00    -0.341 C  
HETATM    2  N   UNL     1      -9.873   7.691  73.127  1.00  0.00    -0.253 NA 
HETATM    3  C   UNL     1      -9.308   6.347  72.981  1.00  0.00    -0.135 C  
ENDROOT
BRANCH   2   4
HETATM    4  C   UNL     1      -9.231   8.594  72.153  1.00  0.00    -0.255 C  
BRANCH   4   5
HETATM    5  C   UNL     1      -8.993   7.990  70.763  1.00  0.00    -0.148 C  
HETATM    6  C   UNL     1     -10.207   8.048  69.804  1.00  0.00    -0.206 C  
HETATM    7  C   UNL     1     -10.613   9.485  69.488  1.00  0.00    -0.238 A  
HETATM    8  C   UNL     1      -9.943   7.193  68.562  1.00  0.00    -0.159 A  
HETATM    9  C   UNL     1      -9.727  10.375  68.859  1.00  0.00    -0.203 A  
HETATM   10  C   UNL     1     -11.008   6.613  67.873  1.00  0.00    -0.342 A  
HETATM   11  C   UNL     1     -10.737   5.732  66.826  1.00  0.00    -0.369 A  
HETATM   12  C   UNL     1     -10.064  11.723  68.702  1.00  0.00    -0.198 A  
HETATM   13  C   UNL     1      -9.418   5.458  66.488  1.00  0.00    -0.158 A  
HETATM   14  C   UNL     1     -11.294  12.189  69.159  1.00  0.00    -0.276 A  
HETATM   15  C   UNL     1      -8.418   6.098  67.195  1.00  0.00    -0.104 A  
HETATM   16  C   UNL     1     -12.203  11.314  69.747  1.00  0.00    -0.343 A  
HETATM   17 BR   UNL     1     -11.718  14.026  69.011  1.00  0.00    -0.392 Br 
HETATM   18  N   UNL     1      -8.651   6.960  68.208  1.00  0.00    -0.125 NA 
HETATM   19  C   UNL     1     -11.864   9.969  69.910  1.00  0.00    -0.141 A  
ENDBRANCH   4   5
ENDBRANCH   2   4
TORSDOF 2
ENDMDL
MODEL       96
REMARK 921   NORMALIZED FREE ENERGY PREDICTED BY IDOCK:   -3.87 KCAL/MOL
REMARK 922        TOTAL FREE ENERGY PREDICTED BY IDOCK:   -4.48 KCAL/MOL
REMARK 923 INTER-LIGAND FREE ENERGY PREDICTED BY IDOCK:   -4.17 KCAL/MOL
REMARK 924 INTRA-LIGAND FREE ENERGY PREDICTED BY IDOCK:   -0.31 KCAL/MOL
REMARK 927      BINDING AFFINITY PREDICTED BY RF-SCORE:    0.00 PKD
ROOT
HETATM    1  C   UNL     1      -9.722   4.095  66.783  1.00  0.00    -0.210 C  
HETATM    2  N   UNL     1      -9.704   5.211  67.731  1.00  0.00    -0.141 NA 
HETATM    3  C   UNL     1      -8.388   5.856  67.706  1.00  0.00    -0.108 C  
ENDROOT
BRANCH   2   4
HETATM    4  C   UNL     1     -10.740   6.215  67.424  1.00  0.00    -0.322 C  
BRANCH   4   5
HETATM    5  C   UNL     1     -10.337   7.671  67.690  1.00  0.00    -0.303 C  
HETATM    6  C   UNL     1     -11.139   8.382  68.807  1.00  0.00     0.282 C  
HETATM    7  C   UNL     1     -10.933   7.716  70.166  1.00  0.00    -0.255 A  
HETATM    8  C   UNL     1     -10.838   9.883  68.803  1.00  0.00    -0.208 A  
HETATM    9  C   UNL     1      -9.661   7.633  70.755  1.00  0.00    -0.173 A  
HETATM   10  C   UNL     1     -11.796  10.790  69.257  1.00  0.00    -0.359 A  
HETATM   11  C   UNL     1     -11.553  12.156  69.120  1.00  0.00    -0.374 A  
HETATM   12  C   UNL     1      -9.468   6.900  71.930  1.00  0.00    -0.146 A  
HETATM   13  C   UNL     1     -10.364  12.584  68.544  1.00  0.00    -0.233 A  
HETATM   14  C   UNL     1     -10.547   6.258  72.534  1.00  0.00    -0.212 A  
HETATM   15  C   UNL     1      -9.450  11.626  68.150  1.00  0.00    -0.191 A  
HETATM   16  C   UNL     1     -11.823   6.364  71.987  1.00  0.00    -0.382 A  
HETATM   17 BR   UNL     1     -10.271   5.208  74.082  1.00  0.00    -0.309 Br 
HETATM   18  N   UNL     1      -9.655  10.297  68.277  1.00  0.00    -0.140 NA 
HETATM   19  C   UNL     1     -12.015   7.090  70.810  1.00  0.00    -0.392 A  
ENDBRANCH   4   5
ENDBRANCH   2   4
TORSDOF 2
ENDMDL
MODEL       97
REMARK 921   NORMALIZED FREE ENERGY PREDICTED BY IDOCK:   -3.87 KCAL/MOL
REMARK 922        TOTAL FREE ENERGY PREDICTED BY IDOCK:   -4.48 KCAL/MOL
REMARK 923 INTER-LIGAND FREE ENERGY PREDICTED BY IDOCK:   -4.32 KCAL/MOL
REMARK 924 INTRA-LIGAND FREE ENERGY PREDICTED BY IDOCK:   -0.16 KCAL/MOL
REMARK 927      BINDING AFFINITY PREDICTED BY RF-SCORE:    0.00 PKD
ROOT
HETATM    1  C   UNL     1     -11.237   9.048  70.583  1.00  0.00    -0.270 C  
HETATM    2  N   UNL     1      -9.932   8.541  70.152  1.00  0.00    -0.178 NA 
HETATM    3  C   UNL     1     -10.119   7.346  69.326  1.00  0.00    -0.186 C  
ENDROOT
BRANCH   2   4
HETATM    4  C   UNL     1      -9.173   9.546  69.384  1.00  0.00    -0.176 C  
BRANCH   4   5
HETATM    5  C   UNL     1      -9.935  10.840  69.072  1.00  0.00    -0.214 C  
HETATM    6  C   UNL     1      -9.206  11.817  68.117  1.00  0.00    -0.186 C  
HETATM    7  C   UNL     1      -8.990  11.205  66.735  1.00  0.00    -0.169 A  
HETATM    8  C   UNL     1      -9.928  13.168  68.089  1.00  0.00    -0.234 A  
HETATM    9  C   UNL     1     -10.071  10.799  65.936  1.00  0.00    -0.314 A  
HETATM   10  C   UNL     1      -9.216  14.335  67.816  1.00  0.00    -0.194 A  
HETATM   11  C   UNL     1      -9.864  15.565  67.927  1.00  0.00    -0.216 A  
HETATM   12  C   UNL     1      -9.852  10.116  64.736  1.00  0.00    -0.382 A  
HETATM   13  C   UNL     1     -11.203  15.600  68.296  1.00  0.00    -0.353 A  
HETATM   14  C   UNL     1      -8.551   9.846  64.318  1.00  0.00    -0.188 A  
HETATM   15  C   UNL     1     -11.849  14.399  68.517  1.00  0.00    -0.334 A  
HETATM   16  C   UNL     1      -7.465  10.277  65.076  1.00  0.00    -0.120 A  
HETATM   17 BR   UNL     1      -8.258   8.859  62.732  1.00  0.00    -0.198 Br 
HETATM   18  N   UNL     1     -11.249  13.194  68.410  1.00  0.00    -0.254 NA 
HETATM   19  C   UNL     1      -7.684  10.954  66.278  1.00  0.00    -0.147 A  
ENDBRANCH   4   5
ENDBRANCH   2   4
TORSDOF 2
ENDMDL
MODEL       98
REMARK 921   NORMALIZED FREE ENERGY PREDICTED BY IDOCK:   -3.84 KCAL/MOL
REMARK 922        TOTAL FREE ENERGY PREDICTED BY IDOCK:   -4.44 KCAL/MOL
REMARK 923 INTER-LIGAND FREE ENERGY PREDICTED BY IDOCK:   -4.28 KCAL/MOL
REMARK 924 INTRA-LIGAND FREE ENERGY PREDICTED BY IDOCK:   -0.17 KCAL/MOL
REMARK 927      BINDING AFFINITY PREDICTED BY RF-SCORE:    0.00 PKD
ROOT
HETATM    1  C   UNL     1     -12.652  12.680  64.804  1.00  0.00    -0.454 C  
HETATM    2  N   UNL     1     -11.437  13.205  65.431  1.00  0.00    -0.298 NA 
HETATM    3  C   UNL     1     -10.395  13.376  64.415  1.00  0.00    -0.325 C  
ENDROOT
BRANCH   2   4
HETATM    4  C   UNL     1     -11.674  14.496  66.103  1.00  0.00    -0.350 C  
BRANCH   4   5
HETATM    5  C   UNL     1     -10.426  15.159  66.700  1.00  0.00    -0.287 C  
HETATM    6  C   UNL     1     -10.704  16.208  67.805  1.00  0.00    -0.325 C  
HETATM    7  C   UNL     1     -11.377  15.583  69.025  1.00  0.00    -0.331 A  
HETATM    8  C   UNL     1      -9.426  16.983  68.134  1.00  0.00    -0.262 A  
HETATM    9  C   UNL     1     -10.752  14.566  69.765  1.00  0.00    -0.075 A  
HETATM   10  C   UNL     1      -9.505  18.292  68.611  1.00  0.00    -0.343 A  
HETATM   11  C   UNL     1      -8.329  19.023  68.777  1.00  0.00    -0.364 A  
HETATM   12  C   UNL     1     -11.437  13.910  70.793  1.00  0.00     0.187 A  
HETATM   13  C   UNL     1      -7.109  18.434  68.473  1.00  0.00    -0.285 A  
HETATM   14  C   UNL     1     -12.746  14.274  71.098  1.00  0.00    -0.360 A  
HETATM   15  C   UNL     1      -7.110  17.122  68.039  1.00  0.00    -0.175 A  
HETATM   16  C   UNL     1     -13.368  15.308  70.403  1.00  0.00    -0.087 A  
HETATM   17 BR   UNL     1     -13.696  13.337  72.438  1.00  0.00    -0.588 Br 
HETATM   18  N   UNL     1      -8.231  16.387  67.876  1.00  0.00    -0.164 NA 
HETATM   19  C   UNL     1     -12.687  15.959  69.372  1.00  0.00     0.609 A  
ENDBRANCH   4   5
ENDBRANCH   2   4
TORSDOF 2
ENDMDL
MODEL       99
REMARK 921   NORMALIZED FREE ENERGY PREDICTED BY IDOCK:   -3.82 KCAL/MOL
REMARK 922        TOTAL FREE ENERGY PREDICTED BY IDOCK:   -4.43 KCAL/MOL
REMARK 923 INTER-LIGAND FREE ENERGY PREDICTED BY IDOCK:   -4.27 KCAL/MOL
REMARK 924 INTRA-LIGAND FREE ENERGY PREDICTED BY IDOCK:   -0.15 KCAL/MOL
REMARK 927      BINDING AFFINITY PREDICTED BY RF-SCORE:    0.00 PKD
ROOT
HETATM    1  C   UNL     1     -13.183   9.816  71.998  1.00  0.00    -0.460 C  
HETATM    2  N   UNL     1     -12.696  10.659  70.902  1.00  0.00    -0.383 NA 
HETATM    3  C   UNL     1     -12.900  12.070  71.241  1.00  0.00    -0.265 C  
ENDROOT
BRANCH   2   4
HETATM    4  C   UNL     1     -11.267  10.431  70.620  1.00  0.00    -0.275 C  
BRANCH   4   5
HETATM    5  C   UNL     1     -10.923  10.191  69.145  1.00  0.00    -0.270 C  
HETATM    6  C   UNL     1      -9.605   9.417  68.895  1.00  0.00    -0.155 C  
HETATM    7  C   UNL     1      -9.660   8.003  69.468  1.00  0.00    -0.164 A  
HETATM    8  C   UNL     1      -9.234   9.468  67.410  1.00  0.00    -0.133 A  
HETATM    9  C   UNL     1     -10.611   7.070  69.026  1.00  0.00    -0.234 A  
HETATM   10  C   UNL     1      -7.897   9.389  67.021  1.00  0.00    -0.098 A  
HETATM   11  C   UNL     1      -7.572   9.571  65.677  1.00  0.00    -0.101 A  
HETATM   12  C   UNL     1     -10.737   5.828  69.657  1.00  0.00    -0.416 A  
HETATM   13  C   UNL     1      -8.582   9.819  64.757  1.00  0.00    -0.195 A  
HETATM   14  C   UNL     1      -9.903   5.504  70.724  1.00  0.00    -0.188 A  
HETATM   15  C   UNL     1      -9.886   9.849  65.215  1.00  0.00    -0.303 A  
HETATM   16  C   UNL     1      -8.925   6.399  71.149  1.00  0.00    -0.146 A  
HETATM   17 BR   UNL     1     -10.122   3.854  71.622  1.00  0.00    -0.101 Br 
HETATM   18  N   UNL     1     -10.231   9.669  66.508  1.00  0.00    -0.238 NA 
HETATM   19  C   UNL     1      -8.804   7.642  70.524  1.00  0.00    -0.149 A  
ENDBRANCH   4   5
ENDBRANCH   2   4
TORSDOF 2
ENDMDL
MODEL      100
REMARK 921   NORMALIZED FREE ENERGY PREDICTED BY IDOCK:   -3.81 KCAL/MOL
REMARK 922        TOTAL FREE ENERGY PREDICTED BY IDOCK:   -4.41 KCAL/MOL
REMARK 923 INTER-LIGAND FREE ENERGY PREDICTED BY IDOCK:   -4.24 KCAL/MOL
REMARK 924 INTRA-LIGAND FREE ENERGY PREDICTED BY IDOCK:   -0.17 KCAL/MOL
REMARK 927      BINDING AFFINITY PREDICTED BY RF-SCORE:    0.00 PKD
ROOT
HETATM    1  C   UNL     1      -5.451  10.051  70.465  1.00  0.00    -0.059 C  
HETATM    2  N   UNL     1      -6.451  11.116  70.351  1.00  0.00    -0.282 NA 
HETATM    3  C   UNL     1      -5.776  12.411  70.232  1.00  0.00    -0.166 C  
ENDROOT
BRANCH   2   4
HETATM    4  C   UNL     1      -7.336  10.922  69.187  1.00  0.00    -0.126 C  
BRANCH   4   5
HETATM    5  C   UNL     1      -7.959   9.526  69.067  1.00  0.00    -0.092 C  
HETATM    6  C   UNL     1      -9.455   9.438  69.457  1.00  0.00    -0.187 C  
HETATM    7  C   UNL     1     -10.332  10.285  68.538  1.00  0.00    -0.200 A  
HETATM    8  C   UNL     1      -9.893   7.974  69.553  1.00  0.00    -0.181 A  
HETATM    9  C   UNL     1     -10.397  10.040  67.157  1.00  0.00    -0.300 A  
HETATM   10  C   UNL     1     -10.933   7.610  70.409  1.00  0.00    -0.256 A  
HETATM   11  C   UNL     1     -11.225   6.257  70.579  1.00  0.00    -0.420 A  
HETATM   12  C   UNL     1     -11.095  10.909  66.312  1.00  0.00    -0.038 A  
HETATM   13  C   UNL     1     -10.485   5.305  69.890  1.00  0.00    -0.351 A  
HETATM   14  C   UNL     1     -11.746  12.020  66.842  1.00  0.00    -0.266 A  
HETATM   15  C   UNL     1      -9.494   5.747  69.034  1.00  0.00    -0.124 A  
HETATM   16  C   UNL     1     -11.728  12.256  68.214  1.00  0.00    -0.392 A  
HETATM   17 BR   UNL     1     -12.627  13.233  65.690  1.00  0.00    -0.374 Br 
HETATM   18  N   UNL     1      -9.193   7.049  68.844  1.00  0.00    -0.137 NA 
HETATM   19  C   UNL     1     -11.026  11.393  69.058  1.00  0.00    -0.288 A  
ENDBRANCH   4   5
ENDBRANCH   2   4
TORSDOF 2
ENDMDL
MODEL      101
REMARK 921   NORMALIZED FREE ENERGY PREDICTED BY IDOCK:   -3.76 KCAL/MOL
REMARK 922        TOTAL FREE ENERGY PREDICTED BY IDOCK:   -4.36 KCAL/MOL
REMARK 923 INTER-LIGAND FREE ENERGY PREDICTED BY IDOCK:   -4.19 KCAL/MOL
REMARK 924 INTRA-LIGAND FREE ENERGY PREDICTED BY IDOCK:   -0.18 KCAL/MOL
REMARK 927      BINDING AFFINITY PREDICTED BY RF-SCORE:    0.00 PKD
ROOT
HETATM    1  C   UNL     1      -5.158  12.856  71.476  1.00  0.00    -0.156 C  
HETATM    2  N   UNL     1      -5.768  14.179  71.320  1.00  0.00    -0.219 NA 
HETATM    3  C   UNL     1      -5.157  15.114  72.269  1.00  0.00    -0.070 C  
ENDROOT
BRANCH   2   4
HETATM    4  C   UNL     1      -5.606  14.705  69.951  1.00  0.00    -0.104 C  
BRANCH   4   5
HETATM    5  C   UNL     1      -5.868  16.208  69.795  1.00  0.00    -0.174 C  
HETATM    6  C   UNL     1      -6.465  16.633  68.431  1.00  0.00    -0.135 C  
HETATM    7  C   UNL     1      -7.844  16.020  68.200  1.00  0.00    -0.142 A  
HETATM    8  C   UNL     1      -6.436  18.158  68.291  1.00  0.00    -0.196 A  
HETATM    9  C   UNL     1      -8.919  16.287  69.063  1.00  0.00    -0.254 A  
HETATM   10  C   UNL     1      -6.351  18.742  67.028  1.00  0.00    -0.189 A  
HETATM   11  C   UNL     1      -6.191  20.124  66.931  1.00  0.00    -0.212 A  
HETATM   12  C   UNL     1     -10.134  15.610  68.917  1.00  0.00    -0.217 A  
HETATM   13  C   UNL     1      -6.128  20.887  68.090  1.00  0.00    -0.395 A  
HETATM   14  C   UNL     1     -10.289  14.673  67.899  1.00  0.00    -0.237 A  
HETATM   15  C   UNL     1      -6.255  20.239  69.304  1.00  0.00    -0.321 A  
HETATM   16  C   UNL     1      -9.249  14.425  67.007  1.00  0.00    -0.246 A  
HETATM   17 BR   UNL     1     -11.908  13.707  67.748  1.00  0.00    -0.392 Br 
HETATM   18  N   UNL     1      -6.417  18.904  69.427  1.00  0.00    -0.277 NA 
HETATM   19  C   UNL     1      -8.033  15.096  67.157  1.00  0.00    -0.248 A  
ENDBRANCH   4   5
ENDBRANCH   2   4
TORSDOF 2
ENDMDL
MODEL      102
REMARK 921   NORMALIZED FREE ENERGY PREDICTED BY IDOCK:   -3.75 KCAL/MOL
REMARK 922        TOTAL FREE ENERGY PREDICTED BY IDOCK:   -4.35 KCAL/MOL
REMARK 923 INTER-LIGAND FREE ENERGY PREDICTED BY IDOCK:   -4.01 KCAL/MOL
REMARK 924 INTRA-LIGAND FREE ENERGY PREDICTED BY IDOCK:   -0.34 KCAL/MOL
REMARK 927      BINDING AFFINITY PREDICTED BY RF-SCORE:    0.00 PKD
ROOT
HETATM    1  C   UNL     1      -9.279   8.172  73.514  1.00  0.00    -0.186 C  
HETATM    2  N   UNL     1      -7.954   8.538  73.007  1.00  0.00    -0.382 NA 
HETATM    3  C   UNL     1      -6.934   8.178  73.996  1.00  0.00    -0.143 C  
ENDROOT
BRANCH   2   4
HETATM    4  C   UNL     1      -7.645   7.868  71.730  1.00  0.00    -0.086 C  
BRANCH   4   5
HETATM    5  C   UNL     1      -7.816   8.740  70.479  1.00  0.00    -0.104 C  
HETATM    6  C   UNL     1      -8.834   8.206  69.440  1.00  0.00    -0.143 C  
HETATM    7  C   UNL     1     -10.248   8.146  70.011  1.00  0.00    -0.202 A  
HETATM    8  C   UNL     1      -8.727   9.003  68.137  1.00  0.00    -0.130 A  
HETATM    9  C   UNL     1     -10.905   9.300  70.467  1.00  0.00    -0.318 A  
HETATM   10  C   UNL     1      -9.062   8.403  66.922  1.00  0.00    -0.179 A  
HETATM   11  C   UNL     1      -8.831   9.101  65.738  1.00  0.00    -0.210 A  
HETATM   12  C   UNL     1     -12.142   9.208  71.113  1.00  0.00    -0.365 A  
HETATM   13  C   UNL     1      -8.283  10.376  65.791  1.00  0.00    -0.156 A  
HETATM   14  C   UNL     1     -12.739   7.963  71.294  1.00  0.00    -0.229 A  
HETATM   15  C   UNL     1      -8.010  10.916  67.034  1.00  0.00    -0.132 A  
HETATM   16  C   UNL     1     -12.123   6.811  70.812  1.00  0.00    -0.402 A  
HETATM   17 BR   UNL     1     -14.376   7.832  72.231  1.00  0.00    -0.231 Br 
HETATM   18  N   UNL     1      -8.230  10.266  68.197  1.00  0.00    -0.113 NA 
HETATM   19  C   UNL     1     -10.885   6.902  70.173  1.00  0.00    -0.300 A  
ENDBRANCH   4   5
ENDBRANCH   2   4
TORSDOF 2
ENDMDL
MODEL      103
REMARK 921   NORMALIZED FREE ENERGY PREDICTED BY IDOCK:   -3.75 KCAL/MOL
REMARK 922        TOTAL FREE ENERGY PREDICTED BY IDOCK:   -4.35 KCAL/MOL
REMARK 923 INTER-LIGAND FREE ENERGY PREDICTED BY IDOCK:   -4.15 KCAL/MOL
REMARK 924 INTRA-LIGAND FREE ENERGY PREDICTED BY IDOCK:   -0.19 KCAL/MOL
REMARK 927      BINDING AFFINITY PREDICTED BY RF-SCORE:    0.00 PKD
ROOT
HETATM    1  C   UNL     1      -7.409  15.557  67.201  1.00  0.00    -0.191 C  
HETATM    2  N   UNL     1      -7.253  14.128  67.487  1.00  0.00    -0.181 NA 
HETATM    3  C   UNL     1      -5.874  13.860  67.904  1.00  0.00    -0.127 C  
ENDROOT
BRANCH   2   4
HETATM    4  C   UNL     1      -8.175  13.670  68.543  1.00  0.00    -0.112 C  
BRANCH   4   5
HETATM    5  C   UNL     1      -8.213  12.152  68.762  1.00  0.00     0.055 C  
HETATM    6  C   UNL     1      -9.628  11.524  68.765  1.00  0.00    -0.112 C  
HETATM    7  C   UNL     1     -10.326  11.692  67.417  1.00  0.00    -0.231 A  
HETATM    8  C   UNL     1      -9.563  10.073  69.249  1.00  0.00    -0.216 A  
HETATM    9  C   UNL     1      -9.789  11.148  66.240  1.00  0.00    -0.253 A  
HETATM   10  C   UNL     1     -10.664   9.498  69.884  1.00  0.00    -0.268 A  
HETATM   11  C   UNL     1     -10.537   8.223  70.435  1.00  0.00    -0.231 A  
HETATM   12  C   UNL     1     -10.366  11.428  64.998  1.00  0.00    -0.342 A  
HETATM   13  C   UNL     1      -9.325   7.552  70.333  1.00  0.00    -0.161 A  
HETATM   14  C   UNL     1     -11.494  12.242  64.924  1.00  0.00    -0.332 A  
HETATM   15  C   UNL     1      -8.292   8.174  69.659  1.00  0.00    -0.125 A  
HETATM   16  C   UNL     1     -12.066  12.758  66.083  1.00  0.00    -0.429 A  
HETATM   17 BR   UNL     1     -12.229  12.680  63.237  1.00  0.00    -0.359 Br 
HETATM   18  N   UNL     1      -8.388   9.404  69.110  1.00  0.00    -0.120 NA 
HETATM   19  C   UNL     1     -11.486  12.483  67.324  1.00  0.00    -0.416 A  
ENDBRANCH   4   5
ENDBRANCH   2   4
TORSDOF 2
ENDMDL
MODEL      104
REMARK 921   NORMALIZED FREE ENERGY PREDICTED BY IDOCK:   -3.74 KCAL/MOL
REMARK 922        TOTAL FREE ENERGY PREDICTED BY IDOCK:   -4.34 KCAL/MOL
REMARK 923 INTER-LIGAND FREE ENERGY PREDICTED BY IDOCK:   -4.18 KCAL/MOL
REMARK 924 INTRA-LIGAND FREE ENERGY PREDICTED BY IDOCK:   -0.16 KCAL/MOL
REMARK 927      BINDING AFFINITY PREDICTED BY RF-SCORE:    0.00 PKD
ROOT
HETATM    1  C   UNL     1     -14.069   9.067  72.238  1.00  0.00    -0.413 C  
HETATM    2  N   UNL     1     -13.056   9.799  71.472  1.00  0.00    -0.384 NA 
HETATM    3  C   UNL     1     -13.160  11.231  71.765  1.00  0.00    -0.422 C  
ENDROOT
BRANCH   2   4
HETATM    4  C   UNL     1     -11.689   9.340  71.783  1.00  0.00    -0.386 C  
BRANCH   4   5
HETATM    5  C   UNL     1     -10.637   9.650  70.710  1.00  0.00    -0.392 C  
HETATM    6  C   UNL     1      -9.208   9.145  71.025  1.00  0.00    -0.321 C  
HETATM    7  C   UNL     1      -9.154   7.623  71.129  1.00  0.00    -0.152 A  
HETATM    8  C   UNL     1      -8.206   9.733  70.027  1.00  0.00    -0.191 A  
HETATM    9  C   UNL     1      -9.499   6.802  70.043  1.00  0.00    -0.158 A  
HETATM   10  C   UNL     1      -6.877   9.926  70.404  1.00  0.00    -0.141 A  
HETATM   11  C   UNL     1      -6.015  10.585  69.527  1.00  0.00    -0.046 A  
HETATM   12  C   UNL     1      -9.577   5.414  70.196  1.00  0.00    -0.235 A  
HETATM   13  C   UNL     1      -6.493  11.024  68.300  1.00  0.00    -0.057 A  
HETATM   14  C   UNL     1      -9.296   4.835  71.432  1.00  0.00    -0.147 A  
HETATM   15  C   UNL     1      -7.814  10.764  67.985  1.00  0.00    -0.106 A  
HETATM   16  C   UNL     1      -8.911   5.629  72.509  1.00  0.00    -0.133 A  
HETATM   17 BR   UNL     1      -9.473   2.966  71.656  1.00  0.00    -0.221 Br 
HETATM   18  N   UNL     1      -8.669  10.124  68.811  1.00  0.00    -0.130 NA 
HETATM   19  C   UNL     1      -8.840   7.015  72.358  1.00  0.00    -0.141 A  
ENDBRANCH   4   5
ENDBRANCH   2   4
TORSDOF 2
ENDMDL
MODEL      105
REMARK 921   NORMALIZED FREE ENERGY PREDICTED BY IDOCK:   -3.72 KCAL/MOL
REMARK 922        TOTAL FREE ENERGY PREDICTED BY IDOCK:   -4.32 KCAL/MOL
REMARK 923 INTER-LIGAND FREE ENERGY PREDICTED BY IDOCK:   -4.02 KCAL/MOL
REMARK 924 INTRA-LIGAND FREE ENERGY PREDICTED BY IDOCK:   -0.29 KCAL/MOL
REMARK 927      BINDING AFFINITY PREDICTED BY RF-SCORE:    0.00 PKD
ROOT
HETATM    1  C   UNL     1      -7.659  10.432  65.586  1.00  0.00    -0.150 C  
HETATM    2  N   UNL     1      -8.673   9.638  64.887  1.00  0.00    -0.167 NA 
HETATM    3  C   UNL     1      -8.108   8.336  64.519  1.00  0.00    -0.146 C  
ENDROOT
BRANCH   2   4
HETATM    4  C   UNL     1      -9.877   9.426  65.712  1.00  0.00    -0.275 C  
BRANCH   4   5
HETATM    5  C   UNL     1      -9.617   9.262  67.215  1.00  0.00    -0.200 C  
HETATM    6  C   UNL     1     -10.377   8.094  67.890  1.00  0.00    -0.280 C  
HETATM    7  C   UNL     1      -9.958   6.741  67.320  1.00  0.00    -0.206 A  
HETATM    8  C   UNL     1     -10.251   8.189  69.413  1.00  0.00    -0.211 A  
HETATM    9  C   UNL     1      -8.632   6.288  67.406  1.00  0.00    -0.107 A  
HETATM   10  C   UNL     1     -11.254   7.670  70.231  1.00  0.00    -0.230 A  
HETATM   11  C   UNL     1     -11.184   7.886  71.607  1.00  0.00    -0.292 A  
HETATM   12  C   UNL     1      -8.238   5.112  66.759  1.00  0.00    -0.108 A  
HETATM   13  C   UNL     1     -10.116   8.602  72.133  1.00  0.00    -0.388 A  
HETATM   14  C   UNL     1      -9.169   4.372  66.035  1.00  0.00    -0.139 A  
HETATM   15  C   UNL     1      -9.143   9.054  71.261  1.00  0.00    -0.232 A  
HETATM   16  C   UNL     1     -10.498   4.783  65.973  1.00  0.00    -0.332 A  
HETATM   17 BR   UNL     1      -8.619   2.823  65.101  1.00  0.00    -0.110 Br 
HETATM   18  N   UNL     1      -9.182   8.854  69.926  1.00  0.00    -0.159 NA 
HETATM   19  C   UNL     1     -10.891   5.960  66.613  1.00  0.00    -0.292 A  
ENDBRANCH   4   5
ENDBRANCH   2   4
TORSDOF 2
ENDMDL
MODEL      106
REMARK 921   NORMALIZED FREE ENERGY PREDICTED BY IDOCK:   -3.72 KCAL/MOL
REMARK 922        TOTAL FREE ENERGY PREDICTED BY IDOCK:   -4.31 KCAL/MOL
REMARK 923 INTER-LIGAND FREE ENERGY PREDICTED BY IDOCK:   -3.96 KCAL/MOL
REMARK 924 INTRA-LIGAND FREE ENERGY PREDICTED BY IDOCK:   -0.36 KCAL/MOL
REMARK 927      BINDING AFFINITY PREDICTED BY RF-SCORE:    0.00 PKD
ROOT
HETATM    1  C   UNL     1     -12.274  14.061  67.023  1.00  0.00    -0.352 C  
HETATM    2  N   UNL     1     -12.154  13.673  68.431  1.00  0.00    -0.344 NA 
HETATM    3  C   UNL     1     -11.881  12.236  68.522  1.00  0.00    -0.307 C  
ENDROOT
BRANCH   2   4
HETATM    4  C   UNL     1     -11.080  14.414  69.120  1.00  0.00    -0.265 C  
BRANCH   4   5
HETATM    5  C   UNL     1     -10.122  15.180  68.199  1.00  0.00    -0.222 C  
HETATM    6  C   UNL     1      -8.672  14.637  68.161  1.00  0.00    -0.168 C  
HETATM    7  C   UNL     1      -8.613  13.215  67.610  1.00  0.00    -0.193 A  
HETATM    8  C   UNL     1      -7.756  15.622  67.429  1.00  0.00    -0.187 A  
HETATM    9  C   UNL     1      -9.050  12.914  66.310  1.00  0.00    -0.019 A  
HETATM   10  C   UNL     1      -6.400  15.684  67.748  1.00  0.00    -0.179 A  
HETATM   11  C   UNL     1      -5.613  16.678  67.167  1.00  0.00    -0.175 A  
HETATM   12  C   UNL     1      -9.118  11.588  65.870  1.00  0.00    -0.186 A  
HETATM   13  C   UNL     1      -6.192  17.576  66.279  1.00  0.00    -0.267 A  
HETATM   14  C   UNL     1      -8.736  10.554  66.721  1.00  0.00    -0.132 A  
HETATM   15  C   UNL     1      -7.535  17.428  65.987  1.00  0.00    -0.220 A  
HETATM   16  C   UNL     1      -8.260  10.835  67.999  1.00  0.00    -0.115 A  
HETATM   17 BR   UNL     1      -8.897   8.758  66.151  1.00  0.00    -0.219 Br 
HETATM   18  N   UNL     1      -8.319  16.472  66.530  1.00  0.00    -0.262 NA 
HETATM   19  C   UNL     1      -8.198  12.158  68.440  1.00  0.00    -0.145 A  
ENDBRANCH   4   5
ENDBRANCH   2   4
TORSDOF 2
ENDMDL
MODEL      107
REMARK 921   NORMALIZED FREE ENERGY PREDICTED BY IDOCK:   -3.70 KCAL/MOL
REMARK 922        TOTAL FREE ENERGY PREDICTED BY IDOCK:   -4.29 KCAL/MOL
REMARK 923 INTER-LIGAND FREE ENERGY PREDICTED BY IDOCK:   -4.12 KCAL/MOL
REMARK 924 INTRA-LIGAND FREE ENERGY PREDICTED BY IDOCK:   -0.17 KCAL/MOL
REMARK 927      BINDING AFFINITY PREDICTED BY RF-SCORE:    0.00 PKD
ROOT
HETATM    1  C   UNL     1      -9.478   2.857  69.539  1.00  0.00    -0.090 C  
HETATM    2  N   UNL     1      -8.916   3.261  68.248  1.00  0.00    -0.124 NA 
HETATM    3  C   UNL     1      -8.936   2.122  67.326  1.00  0.00    -0.144 C  
ENDROOT
BRANCH   2   4
HETATM    4  C   UNL     1      -9.661   4.383  67.646  1.00  0.00    -0.166 C  
BRANCH   4   5
HETATM    5  C   UNL     1     -10.450   5.248  68.637  1.00  0.00    -0.148 C  
HETATM    6  C   UNL     1      -9.683   6.468  69.201  1.00  0.00    -0.143 C  
HETATM    7  C   UNL     1      -9.310   7.461  68.102  1.00  0.00    -0.135 A  
HETATM    8  C   UNL     1     -10.462   7.095  70.361  1.00  0.00    -0.218 A  
HETATM    9  C   UNL     1     -10.290   8.093  67.322  1.00  0.00    -0.373 A  
HETATM   10  C   UNL     1      -9.783   7.774  71.372  1.00  0.00    -0.194 A  
HETATM   11  C   UNL     1     -10.496   8.220  72.484  1.00  0.00    -0.406 A  
HETATM   12  C   UNL     1      -9.928   8.891  66.232  1.00  0.00    -0.337 A  
HETATM   13  C   UNL     1     -11.864   7.986  72.557  1.00  0.00    -0.419 A  
HETATM   14  C   UNL     1      -8.583   9.075  65.923  1.00  0.00    -0.154 A  
HETATM   15  C   UNL     1     -12.470   7.337  71.499  1.00  0.00    -0.373 A  
HETATM   16  C   UNL     1      -7.594   8.490  66.710  1.00  0.00    -0.090 A  
HETATM   17 BR   UNL     1      -8.097  10.094  64.406  1.00  0.00    -0.153 Br 
HETATM   18  N   UNL     1     -11.806   6.900  70.407  1.00  0.00    -0.329 NA 
HETATM   19  C   UNL     1      -7.956   7.688  67.795  1.00  0.00    -0.121 A  
ENDBRANCH   4   5
ENDBRANCH   2   4
TORSDOF 2
ENDMDL
MODEL      108
REMARK 921   NORMALIZED FREE ENERGY PREDICTED BY IDOCK:   -3.67 KCAL/MOL
REMARK 922        TOTAL FREE ENERGY PREDICTED BY IDOCK:   -4.26 KCAL/MOL
REMARK 923 INTER-LIGAND FREE ENERGY PREDICTED BY IDOCK:   -4.00 KCAL/MOL
REMARK 924 INTRA-LIGAND FREE ENERGY PREDICTED BY IDOCK:   -0.26 KCAL/MOL
REMARK 927      BINDING AFFINITY PREDICTED BY RF-SCORE:    0.00 PKD
ROOT
HETATM    1  C   UNL     1      -6.502   5.983  73.653  1.00  0.00    -0.070 C  
HETATM    2  N   UNL     1      -7.788   6.687  73.659  1.00  0.00    -0.092 NA 
HETATM    3  C   UNL     1      -7.604   8.049  73.152  1.00  0.00    -0.145 C  
ENDROOT
BRANCH   2   4
HETATM    4  C   UNL     1      -8.800   5.997  72.837  1.00  0.00    -0.122 C  
BRANCH   4   5
HETATM    5  C   UNL     1      -8.545   6.032  71.325  1.00  0.00    -0.129 C  
HETATM    6  C   UNL     1      -9.819   6.052  70.444  1.00  0.00    -0.222 C  
HETATM    7  C   UNL     1     -10.652   7.310  70.680  1.00  0.00    -0.240 A  
HETATM    8  C   UNL     1      -9.452   5.820  68.976  1.00  0.00    -0.124 A  
HETATM    9  C   UNL     1     -10.131   8.590  70.434  1.00  0.00    -0.208 A  
HETATM   10  C   UNL     1     -10.372   5.227  68.111  1.00  0.00    -0.181 A  
HETATM   11  C   UNL     1      -9.970   4.904  66.815  1.00  0.00    -0.250 A  
HETATM   12  C   UNL     1     -10.856   9.734  70.785  1.00  0.00    -0.403 A  
HETATM   13  C   UNL     1      -8.671   5.187  66.411  1.00  0.00    -0.113 A  
HETATM   14  C   UNL     1     -12.113   9.606  71.370  1.00  0.00    -0.388 A  
HETATM   15  C   UNL     1      -7.829   5.806  67.315  1.00  0.00    -0.102 A  
HETATM   16  C   UNL     1     -12.665   8.345  71.584  1.00  0.00    -0.358 A  
HETATM   17 BR   UNL     1     -13.060  11.150  71.911  1.00  0.00    -0.368 Br 
HETATM   18  N   UNL     1      -8.192   6.136  68.573  1.00  0.00    -0.111 NA 
HETATM   19  C   UNL     1     -11.938   7.203  71.239  1.00  0.00    -0.374 A  
ENDBRANCH   4   5
ENDBRANCH   2   4
TORSDOF 2
ENDMDL
MODEL      109
REMARK 921   NORMALIZED FREE ENERGY PREDICTED BY IDOCK:   -3.63 KCAL/MOL
REMARK 922        TOTAL FREE ENERGY PREDICTED BY IDOCK:   -4.22 KCAL/MOL
REMARK 923 INTER-LIGAND FREE ENERGY PREDICTED BY IDOCK:   -4.02 KCAL/MOL
REMARK 924 INTRA-LIGAND FREE ENERGY PREDICTED BY IDOCK:   -0.20 KCAL/MOL
REMARK 927      BINDING AFFINITY PREDICTED BY RF-SCORE:    0.00 PKD
ROOT
HETATM    1  C   UNL     1      -8.884  10.175  68.879  1.00  0.00    -0.154 C  
HETATM    2  N   UNL     1      -8.723   8.824  68.333  1.00  0.00    -0.134 NA 
HETATM    3  C   UNL     1      -7.928   8.885  67.103  1.00  0.00    -0.096 C  
ENDROOT
BRANCH   2   4
HETATM    4  C   UNL     1      -8.065   7.915  69.290  1.00  0.00    -0.126 C  
BRANCH   4   5
HETATM    5  C   UNL     1      -8.504   6.448  69.202  1.00  0.00    -0.122 C  
HETATM    6  C   UNL     1      -9.001   5.830  70.533  1.00  0.00    -0.152 C  
HETATM    7  C   UNL     1     -10.254   6.532  71.050  1.00  0.00    -0.218 A  
HETATM    8  C   UNL     1      -9.158   4.314  70.387  1.00  0.00    -0.106 A  
HETATM    9  C   UNL     1     -11.442   6.559  70.302  1.00  0.00    -0.474 A  
HETATM   10  C   UNL     1      -9.015   3.487  71.501  1.00  0.00    -0.158 A  
HETATM   11  C   UNL     1      -9.029   2.104  71.323  1.00  0.00    -0.140 A  
HETATM   12  C   UNL     1     -12.535   7.322  70.726  1.00  0.00    -0.189 A  
HETATM   13  C   UNL     1      -9.193   1.581  70.046  1.00  0.00    -0.161 A  
HETATM   14  C   UNL     1     -12.454   8.051  71.910  1.00  0.00    -0.330 A  
HETATM   15  C   UNL     1      -9.363   2.465  68.998  1.00  0.00    -0.136 A  
HETATM   16  C   UNL     1     -11.300   8.005  72.687  1.00  0.00    -0.469 A  
HETATM   17 BR   UNL     1     -13.905   9.139  72.445  1.00  0.00    -0.469 Br 
HETATM   18  N   UNL     1      -9.361   3.808  69.142  1.00  0.00    -0.161 NA 
HETATM   19  C   UNL     1     -10.206   7.249  72.260  1.00  0.00    -0.225 A  
ENDBRANCH   4   5
ENDBRANCH   2   4
TORSDOF 2
ENDMDL
MODEL      110
REMARK 921   NORMALIZED FREE ENERGY PREDICTED BY IDOCK:   -3.63 KCAL/MOL
REMARK 922        TOTAL FREE ENERGY PREDICTED BY IDOCK:   -4.21 KCAL/MOL
REMARK 923 INTER-LIGAND FREE ENERGY PREDICTED BY IDOCK:   -4.02 KCAL/MOL
REMARK 924 INTRA-LIGAND FREE ENERGY PREDICTED BY IDOCK:   -0.19 KCAL/MOL
REMARK 927      BINDING AFFINITY PREDICTED BY RF-SCORE:    0.00 PKD
ROOT
HETATM    1  C   UNL     1     -11.941  13.623  65.506  1.00  0.00    -0.384 C  
HETATM    2  N   UNL     1     -11.105  13.074  66.577  1.00  0.00    -0.282 NA 
HETATM    3  C   UNL     1     -11.323  13.838  67.809  1.00  0.00    -0.303 C  
ENDROOT
BRANCH   2   4
HETATM    4  C   UNL     1     -11.398  11.651  66.834  1.00  0.00    -0.295 C  
BRANCH   4   5
HETATM    5  C   UNL     1     -10.432  10.658  66.174  1.00  0.00    -0.260 C  
HETATM    6  C   UNL     1      -9.224  10.238  67.047  1.00  0.00    -0.169 C  
HETATM    7  C   UNL     1      -9.665   9.500  68.309  1.00  0.00    -0.163 A  
HETATM    8  C   UNL     1      -8.204   9.467  66.205  1.00  0.00    -0.111 A  
HETATM    9  C   UNL     1     -10.383   8.296  68.240  1.00  0.00    -0.242 A  
HETATM   10  C   UNL     1      -6.852   9.493  66.548  1.00  0.00    -0.083 A  
HETATM   11  C   UNL     1      -5.926   8.896  65.693  1.00  0.00    -0.051 A  
HETATM   12  C   UNL     1     -10.898   7.706  69.399  1.00  0.00    -0.136 A  
HETATM   13  C   UNL     1      -6.368   8.282  64.528  1.00  0.00    -0.065 A  
HETATM   14  C   UNL     1     -10.686   8.308  70.637  1.00  0.00    -0.220 A  
HETATM   15  C   UNL     1      -7.727   8.268  64.275  1.00  0.00    -0.134 A  
HETATM   16  C   UNL     1      -9.941   9.481  70.730  1.00  0.00    -0.334 A  
HETATM   17 BR   UNL     1     -11.445   7.549  72.194  1.00  0.00    -0.361 Br 
HETATM   18  N   UNL     1      -8.646   8.831  65.088  1.00  0.00    -0.184 NA 
HETATM   19  C   UNL     1      -9.433  10.073  69.572  1.00  0.00    -0.245 A  
ENDBRANCH   4   5
ENDBRANCH   2   4
TORSDOF 2
ENDMDL
MODEL      111
REMARK 921   NORMALIZED FREE ENERGY PREDICTED BY IDOCK:   -3.62 KCAL/MOL
REMARK 922        TOTAL FREE ENERGY PREDICTED BY IDOCK:   -4.20 KCAL/MOL
REMARK 923 INTER-LIGAND FREE ENERGY PREDICTED BY IDOCK:   -3.97 KCAL/MOL
REMARK 924 INTRA-LIGAND FREE ENERGY PREDICTED BY IDOCK:   -0.23 KCAL/MOL
REMARK 927      BINDING AFFINITY PREDICTED BY RF-SCORE:    0.00 PKD
ROOT
HETATM    1  C   UNL     1     -10.202   5.634  68.810  1.00  0.00    -0.204 C  
HETATM    2  N   UNL     1     -10.168   7.090  68.649  1.00  0.00    -0.170 NA 
HETATM    3  C   UNL     1      -9.618   7.425  67.333  1.00  0.00    -0.148 C  
ENDROOT
BRANCH   2   4
HETATM    4  C   UNL     1     -11.508   7.693  68.781  1.00  0.00     0.807 C  
BRANCH   4   5
HETATM    5  C   UNL     1     -11.521   9.160  69.231  1.00  0.00     0.369 C  
HETATM    6  C   UNL     1     -12.013   9.398  70.680  1.00  0.00    -0.232 C  
HETATM    7  C   UNL     1     -11.099   8.734  71.706  1.00  0.00    -0.417 A  
HETATM    8  C   UNL     1     -12.233  10.893  70.926  1.00  0.00    -0.381 A  
HETATM    9  C   UNL     1      -9.744   9.085  71.817  1.00  0.00    -0.311 A  
HETATM   10  C   UNL     1     -13.178  11.316  71.862  1.00  0.00    -0.491 A  
HETATM   11  C   UNL     1     -13.456  12.678  71.973  1.00  0.00    -0.516 A  
HETATM   12  C   UNL     1      -8.890   8.372  72.665  1.00  0.00    -0.288 A  
HETATM   13  C   UNL     1     -12.785  13.582  71.160  1.00  0.00    -0.425 A  
HETATM   14  C   UNL     1      -9.387   7.312  73.418  1.00  0.00    -0.197 A  
HETATM   15  C   UNL     1     -11.839  13.089  70.281  1.00  0.00    -0.217 A  
HETATM   16  C   UNL     1     -10.736   6.974  73.353  1.00  0.00    -0.379 A  
HETATM   17 BR   UNL     1      -8.216   6.302  74.508  1.00  0.00    -0.134 Br 
HETATM   18  N   UNL     1     -11.544  11.777  70.156  1.00  0.00    -0.251 NA 
HETATM   19  C   UNL     1     -11.587   7.682  72.502  1.00  0.00    -0.382 A  
ENDBRANCH   4   5
ENDBRANCH   2   4
TORSDOF 2
ENDMDL
MODEL      112
REMARK 921   NORMALIZED FREE ENERGY PREDICTED BY IDOCK:   -3.61 KCAL/MOL
REMARK 922        TOTAL FREE ENERGY PREDICTED BY IDOCK:   -4.20 KCAL/MOL
REMARK 923 INTER-LIGAND FREE ENERGY PREDICTED BY IDOCK:   -3.98 KCAL/MOL
REMARK 924 INTRA-LIGAND FREE ENERGY PREDICTED BY IDOCK:   -0.22 KCAL/MOL
REMARK 927      BINDING AFFINITY PREDICTED BY RF-SCORE:    0.00 PKD
ROOT
HETATM    1  C   UNL     1      -7.177  10.305  68.821  1.00  0.00    -0.083 C  
HETATM    2  N   UNL     1      -7.333  11.762  68.845  1.00  0.00    -0.111 NA 
HETATM    3  C   UNL     1      -6.245  12.359  69.625  1.00  0.00    -0.130 C  
ENDROOT
BRANCH   2   4
HETATM    4  C   UNL     1      -7.331  12.342  67.489  1.00  0.00    -0.146 C  
BRANCH   4   5
HETATM    5  C   UNL     1      -7.999  13.718  67.368  1.00  0.00    -0.175 C  
HETATM    6  C   UNL     1      -9.428  13.704  66.771  1.00  0.00    -0.275 C  
HETATM    7  C   UNL     1     -10.403  12.927  67.653  1.00  0.00    -0.218 A  
HETATM    8  C   UNL     1      -9.885  15.131  66.455  1.00  0.00    -0.280 A  
HETATM    9  C   UNL     1     -10.664  13.316  68.976  1.00  0.00    -0.156 A  
HETATM   10  C   UNL     1     -10.804  15.360  65.431  1.00  0.00    -0.403 A  
HETATM   11  C   UNL     1     -11.103  16.674  65.072  1.00  0.00    -0.121 A  
HETATM   12  C   UNL     1     -11.451  12.516  69.812  1.00  0.00    -0.211 A  
HETATM   13  C   UNL     1     -10.489  17.723  65.744  1.00  0.00    -0.199 A  
HETATM   14  C   UNL     1     -11.995  11.330  69.326  1.00  0.00    -0.342 A  
HETATM   15  C   UNL     1      -9.615  17.415  66.770  1.00  0.00    -0.277 A  
HETATM   16  C   UNL     1     -11.782  10.948  68.004  1.00  0.00    -0.205 A  
HETATM   17 BR   UNL     1     -12.997  10.214  70.477  1.00  0.00    -0.104 Br 
HETATM   18  N   UNL     1      -9.312  16.154  67.143  1.00  0.00    -0.212 NA 
HETATM   19  C   UNL     1     -10.991  11.743  67.172  1.00  0.00    -0.326 A  
ENDBRANCH   4   5
ENDBRANCH   2   4
TORSDOF 2
ENDMDL
MODEL      113
REMARK 921   NORMALIZED FREE ENERGY PREDICTED BY IDOCK:   -3.61 KCAL/MOL
REMARK 922        TOTAL FREE ENERGY PREDICTED BY IDOCK:   -4.19 KCAL/MOL
REMARK 923 INTER-LIGAND FREE ENERGY PREDICTED BY IDOCK:   -4.07 KCAL/MOL
REMARK 924 INTRA-LIGAND FREE ENERGY PREDICTED BY IDOCK:   -0.13 KCAL/MOL
REMARK 927      BINDING AFFINITY PREDICTED BY RF-SCORE:    0.00 PKD
ROOT
HETATM    1  C   UNL     1     -10.811   4.656  65.417  1.00  0.00    -0.050 C  
HETATM    2  N   UNL     1     -10.547   5.264  66.724  1.00  0.00    -0.276 NA 
HETATM    3  C   UNL     1      -9.166   4.981  67.125  1.00  0.00    -0.120 C  
ENDROOT
BRANCH   2   4
HETATM    4  C   UNL     1     -10.757   6.724  66.708  1.00  0.00    -0.242 C  
BRANCH   4   5
HETATM    5  C   UNL     1     -10.028   7.500  67.812  1.00  0.00    -0.214 C  
HETATM    6  C   UNL     1      -8.978   8.522  67.313  1.00  0.00    -0.141 C  
HETATM    7  C   UNL     1      -9.616   9.631  66.480  1.00  0.00    -0.252 A  
HETATM    8  C   UNL     1      -8.139   9.036  68.487  1.00  0.00    -0.107 A  
HETATM    9  C   UNL     1     -10.592  10.484  67.021  1.00  0.00    -0.310 A  
HETATM   10  C   UNL     1      -6.829   9.465  68.275  1.00  0.00    -0.063 A  
HETATM   11  C   UNL     1      -6.041   9.802  69.375  1.00  0.00    -0.040 A  
HETATM   12  C   UNL     1     -11.264  11.402  66.208  1.00  0.00    -0.228 A  
HETATM   13  C   UNL     1      -6.577   9.712  70.653  1.00  0.00    -0.114 A  
HETATM   14  C   UNL     1     -10.957  11.485  64.852  1.00  0.00    -0.254 A  
HETATM   15  C   UNL     1      -7.894   9.311  70.779  1.00  0.00    -0.145 A  
HETATM   16  C   UNL     1      -9.964  10.676  64.306  1.00  0.00    -0.413 A  
HETATM   17 BR   UNL     1     -11.918  12.674  63.740  1.00  0.00    -0.638 Br 
HETATM   18  N   UNL     1      -8.682   8.986  69.732  1.00  0.00    -0.139 NA 
HETATM   19  C   UNL     1      -9.296   9.755  65.116  1.00  0.00    -0.322 A  
ENDBRANCH   4   5
ENDBRANCH   2   4
TORSDOF 2
ENDMDL
MODEL      114
REMARK 921   NORMALIZED FREE ENERGY PREDICTED BY IDOCK:   -3.61 KCAL/MOL
REMARK 922        TOTAL FREE ENERGY PREDICTED BY IDOCK:   -4.19 KCAL/MOL
REMARK 923 INTER-LIGAND FREE ENERGY PREDICTED BY IDOCK:   -4.01 KCAL/MOL
REMARK 924 INTRA-LIGAND FREE ENERGY PREDICTED BY IDOCK:   -0.18 KCAL/MOL
REMARK 927      BINDING AFFINITY PREDICTED BY RF-SCORE:    0.00 PKD
ROOT
HETATM    1  C   UNL     1     -13.716   8.920  72.012  1.00  0.00    -0.459 C  
HETATM    2  N   UNL     1     -13.082  10.053  71.331  1.00  0.00    -0.394 NA 
HETATM    3  C   UNL     1     -13.489  11.303  71.979  1.00  0.00    -0.184 C  
ENDROOT
BRANCH   2   4
HETATM    4  C   UNL     1     -11.611   9.956  71.347  1.00  0.00    -0.352 C  
BRANCH   4   5
HETATM    5  C   UNL     1     -11.051   8.528  71.365  1.00  0.00    -0.328 C  
HETATM    6  C   UNL     1     -10.306   8.099  70.077  1.00  0.00    -0.215 C  
HETATM    7  C   UNL     1      -9.063   8.951  69.829  1.00  0.00    -0.151 A  
HETATM    8  C   UNL     1     -10.028   6.593  70.102  1.00  0.00    -0.173 A  
HETATM    9  C   UNL     1      -8.007   8.993  70.754  1.00  0.00    -0.172 A  
HETATM   10  C   UNL     1      -9.925   5.882  68.907  1.00  0.00    -0.201 A  
HETATM   11  C   UNL     1      -9.805   4.493  68.955  1.00  0.00    -0.202 A  
HETATM   12  C   UNL     1      -6.942   9.882  70.579  1.00  0.00    -0.118 A  
HETATM   13  C   UNL     1      -9.782   3.852  70.187  1.00  0.00    -0.242 A  
HETATM   14  C   UNL     1      -6.917  10.725  69.471  1.00  0.00    -0.130 A  
HETATM   15  C   UNL     1      -9.853   4.629  71.327  1.00  0.00    -0.190 A  
HETATM   16  C   UNL     1      -7.933  10.670  68.522  1.00  0.00    -0.122 A  
HETATM   17 BR   UNL     1      -5.513  11.977  69.274  1.00  0.00    -0.068 Br 
HETATM   18  N   UNL     1      -9.963   5.975  71.311  1.00  0.00    -0.181 NA 
HETATM   19  C   UNL     1      -9.001   9.786  68.700  1.00  0.00    -0.130 A  
ENDBRANCH   4   5
ENDBRANCH   2   4
TORSDOF 2
ENDMDL
MODEL      115
REMARK 921   NORMALIZED FREE ENERGY PREDICTED BY IDOCK:   -3.55 KCAL/MOL
REMARK 922        TOTAL FREE ENERGY PREDICTED BY IDOCK:   -4.12 KCAL/MOL
REMARK 923 INTER-LIGAND FREE ENERGY PREDICTED BY IDOCK:   -3.93 KCAL/MOL
REMARK 924 INTRA-LIGAND FREE ENERGY PREDICTED BY IDOCK:   -0.19 KCAL/MOL
REMARK 927      BINDING AFFINITY PREDICTED BY RF-SCORE:    0.00 PKD
ROOT
HETATM    1  C   UNL     1      -8.045   4.792  65.626  1.00  0.00    -0.111 C  
HETATM    2  N   UNL     1      -7.992   6.107  66.270  1.00  0.00    -0.104 NA 
HETATM    3  C   UNL     1      -6.599   6.555  66.356  1.00  0.00    -0.048 C  
ENDROOT
BRANCH   2   4
HETATM    4  C   UNL     1      -8.779   7.115  65.535  1.00  0.00    -0.021 C  
BRANCH   4   5
HETATM    5  C   UNL     1      -8.846   8.498  66.195  1.00  0.00    -0.200 C  
HETATM    6  C   UNL     1     -10.063   8.724  67.126  1.00  0.00    -0.320 C  
HETATM    7  C   UNL     1     -10.047   7.775  68.321  1.00  0.00    -0.221 A  
HETATM    8  C   UNL     1     -10.168  10.202  67.512  1.00  0.00    -0.211 A  
HETATM    9  C   UNL     1      -8.991   7.780  69.247  1.00  0.00    -0.139 A  
HETATM   10  C   UNL     1     -11.410  10.758  67.817  1.00  0.00    -0.354 A  
HETATM   11  C   UNL     1     -11.501  12.133  68.035  1.00  0.00    -0.380 A  
HETATM   12  C   UNL     1      -8.923   6.813  70.255  1.00  0.00    -0.152 A  
HETATM   13  C   UNL     1     -10.356  12.914  67.953  1.00  0.00    -0.233 A  
HETATM   14  C   UNL     1      -9.918   5.843  70.355  1.00  0.00    -0.192 A  
HETATM   15  C   UNL     1      -9.156  12.285  67.680  1.00  0.00    -0.184 A  
HETATM   16  C   UNL     1     -10.994   5.846  69.472  1.00  0.00    -0.438 A  
HETATM   17 BR   UNL     1      -9.786   4.493  71.673  1.00  0.00    -0.265 Br 
HETATM   18  N   UNL     1      -9.037  10.956  67.471  1.00  0.00    -0.140 NA 
HETATM   19  C   UNL     1     -11.059   6.808  68.461  1.00  0.00    -0.217 A  
ENDBRANCH   4   5
ENDBRANCH   2   4
TORSDOF 2
ENDMDL
MODEL      116
REMARK 921   NORMALIZED FREE ENERGY PREDICTED BY IDOCK:   -3.54 KCAL/MOL
REMARK 922        TOTAL FREE ENERGY PREDICTED BY IDOCK:   -4.11 KCAL/MOL
REMARK 923 INTER-LIGAND FREE ENERGY PREDICTED BY IDOCK:   -3.93 KCAL/MOL
REMARK 924 INTRA-LIGAND FREE ENERGY PREDICTED BY IDOCK:   -0.17 KCAL/MOL
REMARK 927      BINDING AFFINITY PREDICTED BY RF-SCORE:    0.00 PKD
ROOT
HETATM    1  C   UNL     1     -12.739  12.770  64.691  1.00  0.00    -0.362 C  
HETATM    2  N   UNL     1     -11.560  12.960  65.540  1.00  0.00    -0.340 NA 
HETATM    3  C   UNL     1     -11.938  13.712  66.740  1.00  0.00    -0.414 C  
ENDROOT
BRANCH   2   4
HETATM    4  C   UNL     1     -10.955  11.677  65.944  1.00  0.00    -0.280 C  
BRANCH   4   5
HETATM    5  C   UNL     1      -9.482  11.754  66.362  1.00  0.00    -0.234 C  
HETATM    6  C   UNL     1      -9.102  10.896  67.594  1.00  0.00    -0.148 C  
HETATM    7  C   UNL     1      -9.306   9.406  67.331  1.00  0.00    -0.151 A  
HETATM    8  C   UNL     1      -7.692  11.252  68.074  1.00  0.00    -0.108 A  
HETATM    9  C   UNL     1      -8.610   8.740  66.310  1.00  0.00    -0.144 A  
HETATM   10  C   UNL     1      -7.350  11.091  69.417  1.00  0.00    -0.092 A  
HETATM   11  C   UNL     1      -6.108  11.546  69.857  1.00  0.00    -0.141 A  
HETATM   12  C   UNL     1      -8.909   7.411  65.994  1.00  0.00    -0.173 A  
HETATM   13  C   UNL     1      -5.237  12.138  68.952  1.00  0.00    -0.054 A  
HETATM   14  C   UNL     1      -9.896   6.733  66.705  1.00  0.00    -0.178 A  
HETATM   15  C   UNL     1      -5.634  12.229  67.631  1.00  0.00    -0.107 A  
HETATM   16  C   UNL     1     -10.569   7.363  67.748  1.00  0.00    -0.278 A  
HETATM   17 BR   UNL     1     -10.350   4.960  66.228  1.00  0.00    -0.330 Br 
HETATM   18  N   UNL     1      -6.828  11.792  67.176  1.00  0.00    -0.139 NA 
HETATM   19  C   UNL     1     -10.274   8.692  68.061  1.00  0.00    -0.261 A  
ENDBRANCH   4   5
ENDBRANCH   2   4
TORSDOF 2
ENDMDL
MODEL      117
REMARK 921   NORMALIZED FREE ENERGY PREDICTED BY IDOCK:   -3.51 KCAL/MOL
REMARK 922        TOTAL FREE ENERGY PREDICTED BY IDOCK:   -4.08 KCAL/MOL
REMARK 923 INTER-LIGAND FREE ENERGY PREDICTED BY IDOCK:   -3.96 KCAL/MOL
REMARK 924 INTRA-LIGAND FREE ENERGY PREDICTED BY IDOCK:   -0.11 KCAL/MOL
REMARK 927      BINDING AFFINITY PREDICTED BY RF-SCORE:    0.00 PKD
ROOT
HETATM    1  C   UNL     1     -10.885  19.552  67.207  1.00  0.00    -0.437 C  
HETATM    2  N   UNL     1      -9.925  18.847  68.060  1.00  0.00    -0.339 NA 
HETATM    3  C   UNL     1      -9.968  19.406  69.414  1.00  0.00    -0.140 C  
ENDROOT
BRANCH   2   4
HETATM    4  C   UNL     1     -10.201  17.400  68.126  1.00  0.00    -0.350 C  
BRANCH   4   5
HETATM    5  C   UNL     1      -9.112  16.558  68.805  1.00  0.00    -0.256 C  
HETATM    6  C   UNL     1      -7.945  16.126  67.883  1.00  0.00    -0.150 C  
HETATM    7  C   UNL     1      -7.167  17.327  67.352  1.00  0.00    -0.183 A  
HETATM    8  C   UNL     1      -7.070  15.086  68.589  1.00  0.00    -0.109 A  
HETATM    9  C   UNL     1      -6.515  18.219  68.217  1.00  0.00    -0.200 A  
HETATM   10  C   UNL     1      -6.363  14.145  67.841  1.00  0.00    -0.173 A  
HETATM   11  C   UNL     1      -5.681  13.127  68.506  1.00  0.00    -0.078 A  
HETATM   12  C   UNL     1      -5.925  19.388  67.724  1.00  0.00    -0.214 A  
HETATM   13  C   UNL     1      -5.712  13.077  69.894  1.00  0.00    -0.123 A  
HETATM   14  C   UNL     1      -5.971  19.666  66.361  1.00  0.00    -0.166 A  
HETATM   15  C   UNL     1      -6.405  14.066  70.565  1.00  0.00    -0.048 A  
HETATM   16  C   UNL     1      -6.577  18.774  65.481  1.00  0.00    -0.307 A  
HETATM   17 BR   UNL     1      -5.237  21.281  65.705  1.00  0.00    -0.202 Br 
HETATM   18  N   UNL     1      -7.069  15.067  69.948  1.00  0.00    -0.170 NA 
HETATM   19  C   UNL     1      -7.171  17.610  65.974  1.00  0.00    -0.316 A  
ENDBRANCH   4   5
ENDBRANCH   2   4
TORSDOF 2
ENDMDL
MODEL      118
REMARK 921   NORMALIZED FREE ENERGY PREDICTED BY IDOCK:   -3.49 KCAL/MOL
REMARK 922        TOTAL FREE ENERGY PREDICTED BY IDOCK:   -4.06 KCAL/MOL
REMARK 923 INTER-LIGAND FREE ENERGY PREDICTED BY IDOCK:   -3.90 KCAL/MOL
REMARK 924 INTRA-LIGAND FREE ENERGY PREDICTED BY IDOCK:   -0.16 KCAL/MOL
REMARK 927      BINDING AFFINITY PREDICTED BY RF-SCORE:    0.00 PKD
ROOT
HETATM    1  C   UNL     1     -10.492   8.198  69.363  1.00  0.00    -0.220 C  
HETATM    2  N   UNL     1     -11.264   9.338  69.866  1.00  0.00    -0.180 NA 
HETATM    3  C   UNL     1     -11.201   9.364  71.330  1.00  0.00    -0.367 C  
ENDROOT
BRANCH   2   4
HETATM    4  C   UNL     1     -10.766  10.621  69.337  1.00  0.00    -0.244 C  
BRANCH   4   5
HETATM    5  C   UNL     1     -10.263  10.578  67.888  1.00  0.00    -0.213 C  
HETATM    6  C   UNL     1     -10.223  11.948  67.166  1.00  0.00    -0.230 C  
HETATM    7  C   UNL     1      -9.252  12.915  67.837  1.00  0.00    -0.208 A  
HETATM    8  C   UNL     1      -9.964  11.750  65.670  1.00  0.00    -0.240 A  
HETATM    9  C   UNL     1      -7.883  12.624  67.943  1.00  0.00    -0.154 A  
HETATM   10  C   UNL     1     -10.444  12.681  64.748  1.00  0.00    -0.343 A  
HETATM   11  C   UNL     1     -10.312  12.413  63.386  1.00  0.00    -0.319 A  
HETATM   12  C   UNL     1      -7.032  13.454  68.680  1.00  0.00    -0.101 A  
HETATM   13  C   UNL     1      -9.701  11.235  62.977  1.00  0.00    -0.389 A  
HETATM   14  C   UNL     1      -7.542  14.590  69.305  1.00  0.00    -0.073 A  
HETATM   15  C   UNL     1      -9.221  10.379  63.950  1.00  0.00    -0.266 A  
HETATM   16  C   UNL     1      -8.889  14.918  69.177  1.00  0.00    -0.145 A  
HETATM   17 BR   UNL     1      -6.406  15.671  70.362  1.00  0.00     0.217 Br 
HETATM   18  N   UNL     1      -9.328  10.615  65.275  1.00  0.00    -0.200 NA 
HETATM   19  C   UNL     1      -9.739  14.086  68.446  1.00  0.00    -0.223 A  
ENDBRANCH   4   5
ENDBRANCH   2   4
TORSDOF 2
ENDMDL
MODEL      119
REMARK 921   NORMALIZED FREE ENERGY PREDICTED BY IDOCK:   -3.49 KCAL/MOL
REMARK 922        TOTAL FREE ENERGY PREDICTED BY IDOCK:   -4.05 KCAL/MOL
REMARK 923 INTER-LIGAND FREE ENERGY PREDICTED BY IDOCK:   -3.88 KCAL/MOL
REMARK 924 INTRA-LIGAND FREE ENERGY PREDICTED BY IDOCK:   -0.17 KCAL/MOL
REMARK 927      BINDING AFFINITY PREDICTED BY RF-SCORE:    0.00 PKD
ROOT
HETATM    1  C   UNL     1      -8.260   7.894  65.346  1.00  0.00    -0.138 C  
HETATM    2  N   UNL     1      -9.480   7.617  66.109  1.00  0.00    -0.107 NA 
HETATM    3  C   UNL     1      -9.178   6.674  67.190  1.00  0.00    -0.126 C  
ENDROOT
BRANCH   2   4
HETATM    4  C   UNL     1     -10.062   8.843  66.686  1.00  0.00    -0.287 C  
BRANCH   4   5
HETATM    5  C   UNL     1      -9.055   9.804  67.329  1.00  0.00    -0.150 C  
HETATM    6  C   UNL     1      -9.674  11.062  67.986  1.00  0.00    -0.181 C  
HETATM    7  C   UNL     1     -10.593  10.700  69.150  1.00  0.00    -0.256 A  
HETATM    8  C   UNL     1      -8.575  12.063  68.354  1.00  0.00    -0.147 A  
HETATM    9  C   UNL     1     -10.113  10.013  70.276  1.00  0.00    -0.228 A  
HETATM   10  C   UNL     1      -8.859  13.428  68.397  1.00  0.00    -0.133 A  
HETATM   11  C   UNL     1      -7.815  14.329  68.603  1.00  0.00    -0.140 A  
HETATM   12  C   UNL     1     -10.994   9.569  71.268  1.00  0.00    -0.440 A  
HETATM   13  C   UNL     1      -6.522  13.851  68.769  1.00  0.00    -0.094 A  
HETATM   14  C   UNL     1     -12.358   9.821  71.149  1.00  0.00    -0.359 A  
HETATM   15  C   UNL     1      -6.326  12.483  68.749  1.00  0.00    -0.079 A  
HETATM   16  C   UNL     1     -12.848  10.537  70.060  1.00  0.00    -0.040 A  
HETATM   17 BR   UNL     1     -13.555   9.157  72.453  1.00  0.00    -0.516 Br 
HETATM   18  N   UNL     1      -7.318  11.587  68.558  1.00  0.00    -0.097 NA 
HETATM   19  C   UNL     1     -11.970  10.975  69.066  1.00  0.00    -0.364 A  
ENDBRANCH   4   5
ENDBRANCH   2   4
TORSDOF 2
ENDMDL
MODEL      120
REMARK 921   NORMALIZED FREE ENERGY PREDICTED BY IDOCK:   -3.48 KCAL/MOL
REMARK 922        TOTAL FREE ENERGY PREDICTED BY IDOCK:   -4.05 KCAL/MOL
REMARK 923 INTER-LIGAND FREE ENERGY PREDICTED BY IDOCK:   -3.88 KCAL/MOL
REMARK 924 INTRA-LIGAND FREE ENERGY PREDICTED BY IDOCK:   -0.17 KCAL/MOL
REMARK 927      BINDING AFFINITY PREDICTED BY RF-SCORE:    0.00 PKD
ROOT
HETATM    1  C   UNL     1      -5.662   8.491  72.462  1.00  0.00    -0.061 C  
HETATM    2  N   UNL     1      -6.645   9.331  71.774  1.00  0.00    -0.292 NA 
HETATM    3  C   UNL     1      -5.957  10.228  70.842  1.00  0.00    -0.054 C  
ENDROOT
BRANCH   2   4
HETATM    4  C   UNL     1      -7.637   8.530  71.032  1.00  0.00    -0.090 C  
BRANCH   4   5
HETATM    5  C   UNL     1      -9.083   8.660  71.528  1.00  0.00    -0.308 C  
HETATM    6  C   UNL     1      -9.957   7.395  71.341  1.00  0.00    -0.195 C  
HETATM    7  C   UNL     1      -9.424   6.213  72.146  1.00  0.00    -0.159 A  
HETATM    8  C   UNL     1     -11.427   7.721  71.621  1.00  0.00    -0.261 A  
HETATM    9  C   UNL     1      -9.318   6.266  73.545  1.00  0.00    -0.139 A  
HETATM   10  C   UNL     1     -12.436   6.993  70.992  1.00  0.00    -0.373 A  
HETATM   11  C   UNL     1     -13.762   7.393  71.158  1.00  0.00    -0.252 A  
HETATM   12  C   UNL     1      -8.701   5.230  74.253  1.00  0.00    -0.116 A  
HETATM   13  C   UNL     1     -14.049   8.497  71.950  1.00  0.00    -0.519 A  
HETATM   14  C   UNL     1      -8.198   4.126  73.570  1.00  0.00    -0.090 A  
HETATM   15  C   UNL     1     -12.997   9.146  72.568  1.00  0.00    -0.346 A  
HETATM   16  C   UNL     1      -8.330   4.035  72.187  1.00  0.00    -0.101 A  
HETATM   17 BR   UNL     1      -7.299   2.761  74.520  1.00  0.00    -0.043 Br 
HETATM   18  N   UNL     1     -11.705   8.777  72.431  1.00  0.00    -0.326 NA 
HETATM   19  C   UNL     1      -8.941   5.073  71.479  1.00  0.00    -0.157 A  
ENDBRANCH   4   5
ENDBRANCH   2   4
TORSDOF 2
ENDMDL
MODEL      121
REMARK 921   NORMALIZED FREE ENERGY PREDICTED BY IDOCK:   -3.46 KCAL/MOL
REMARK 922        TOTAL FREE ENERGY PREDICTED BY IDOCK:   -4.03 KCAL/MOL
REMARK 923 INTER-LIGAND FREE ENERGY PREDICTED BY IDOCK:   -3.85 KCAL/MOL
REMARK 924 INTRA-LIGAND FREE ENERGY PREDICTED BY IDOCK:   -0.18 KCAL/MOL
REMARK 927      BINDING AFFINITY PREDICTED BY RF-SCORE:    0.00 PKD
ROOT
HETATM    1  C   UNL     1      -6.915   6.411  66.466  1.00  0.00    -0.067 C  
HETATM    2  N   UNL     1      -7.430   7.440  65.560  1.00  0.00    -0.084 NA 
HETATM    3  C   UNL     1      -7.601   6.872  64.220  1.00  0.00    -0.108 C  
ENDROOT
BRANCH   2   4
HETATM    4  C   UNL     1      -8.719   7.990  66.020  1.00  0.00    -0.157 C  
BRANCH   4   5
HETATM    5  C   UNL     1      -9.222   9.213  65.243  1.00  0.00    -0.243 C  
HETATM    6  C   UNL     1      -9.841  10.335  66.111  1.00  0.00    -0.284 C  
HETATM    7  C   UNL     1      -8.819  10.938  67.072  1.00  0.00    -0.141 A  
HETATM    8  C   UNL     1     -10.538  11.369  65.223  1.00  0.00    -0.277 A  
HETATM    9  C   UNL     1      -7.654  11.566  66.604  1.00  0.00    -0.088 A  
HETATM   10  C   UNL     1     -11.616  12.103  65.719  1.00  0.00    -0.414 A  
HETATM   11  C   UNL     1     -12.319  12.940  64.854  1.00  0.00    -0.532 A  
HETATM   12  C   UNL     1      -6.664  11.989  67.497  1.00  0.00    -0.120 A  
HETATM   13  C   UNL     1     -11.928  13.033  63.524  1.00  0.00    -0.615 A  
HETATM   14  C   UNL     1      -6.837  11.799  68.866  1.00  0.00    -0.102 A  
HETATM   15  C   UNL     1     -10.829  12.301  63.117  1.00  0.00    -0.124 A  
HETATM   16  C   UNL     1      -8.003  11.215  69.352  1.00  0.00     0.103 A  
HETATM   17 BR   UNL     1      -5.466  12.304  70.066  1.00  0.00    -0.126 Br 
HETATM   18  N   UNL     1     -10.125  11.488  63.934  1.00  0.00    -0.311 NA 
HETATM   19  C   UNL     1      -8.989  10.787  68.460  1.00  0.00    -0.160 A  
ENDBRANCH   4   5
ENDBRANCH   2   4
TORSDOF 2
ENDMDL
MODEL      122
REMARK 921   NORMALIZED FREE ENERGY PREDICTED BY IDOCK:   -3.45 KCAL/MOL
REMARK 922        TOTAL FREE ENERGY PREDICTED BY IDOCK:   -4.02 KCAL/MOL
REMARK 923 INTER-LIGAND FREE ENERGY PREDICTED BY IDOCK:   -3.83 KCAL/MOL
REMARK 924 INTRA-LIGAND FREE ENERGY PREDICTED BY IDOCK:   -0.18 KCAL/MOL
REMARK 927      BINDING AFFINITY PREDICTED BY RF-SCORE:    0.00 PKD
ROOT
HETATM    1  C   UNL     1      -9.707  12.531  65.167  1.00  0.00    -0.023 C  
HETATM    2  N   UNL     1     -10.589  11.367  65.056  1.00  0.00    -0.297 NA 
HETATM    3  C   UNL     1      -9.787  10.168  64.795  1.00  0.00    -0.312 C  
ENDROOT
BRANCH   2   4
HETATM    4  C   UNL     1     -11.387  11.158  66.279  1.00  0.00     0.109 C  
BRANCH   4   5
HETATM    5  C   UNL     1     -10.709  10.310  67.362  1.00  0.00    -0.339 C  
HETATM    6  C   UNL     1      -9.820  11.099  68.355  1.00  0.00    -0.188 C  
HETATM    7  C   UNL     1     -10.631  12.106  69.166  1.00  0.00    -0.046 A  
HETATM    8  C   UNL     1      -8.997  10.134  69.213  1.00  0.00    -0.183 A  
HETATM    9  C   UNL     1     -11.679  11.697  70.006  1.00  0.00    -0.402 A  
HETATM   10  C   UNL     1      -7.762  10.533  69.725  1.00  0.00    -0.079 A  
HETATM   11  C   UNL     1      -6.972   9.597  70.390  1.00  0.00    -0.128 A  
HETATM   12  C   UNL     1     -12.499  12.640  70.633  1.00  0.00    -0.323 A  
HETATM   13  C   UNL     1      -7.431   8.294  70.535  1.00  0.00    -0.067 A  
HETATM   14  C   UNL     1     -12.269  13.999  70.438  1.00  0.00    -0.363 A  
HETATM   15  C   UNL     1      -8.680   7.984  70.030  1.00  0.00    -0.135 A  
HETATM   16  C   UNL     1     -11.210  14.426  69.641  1.00  0.00    -0.274 A  
HETATM   17 BR   UNL     1     -13.423  15.272  71.227  1.00  0.00    -0.597 Br 
HETATM   18  N   UNL     1      -9.470   8.871  69.388  1.00  0.00    -0.160 NA 
HETATM   19  C   UNL     1     -10.394  13.484  69.010  1.00  0.00    -0.025 A  
ENDBRANCH   4   5
ENDBRANCH   2   4
TORSDOF 2
ENDMDL
MODEL      123
REMARK 921   NORMALIZED FREE ENERGY PREDICTED BY IDOCK:   -3.40 KCAL/MOL
REMARK 922        TOTAL FREE ENERGY PREDICTED BY IDOCK:   -3.95 KCAL/MOL
REMARK 923 INTER-LIGAND FREE ENERGY PREDICTED BY IDOCK:   -3.77 KCAL/MOL
REMARK 924 INTRA-LIGAND FREE ENERGY PREDICTED BY IDOCK:   -0.18 KCAL/MOL
REMARK 927      BINDING AFFINITY PREDICTED BY RF-SCORE:    0.00 PKD
ROOT
HETATM    1  C   UNL     1      -5.966  14.571  69.771  1.00  0.00    -0.122 C  
HETATM    2  N   UNL     1      -6.165  13.469  68.826  1.00  0.00    -0.084 NA 
HETATM    3  C   UNL     1      -5.189  12.409  69.095  1.00  0.00    -0.067 C  
ENDROOT
BRANCH   2   4
HETATM    4  C   UNL     1      -7.526  12.906  68.910  1.00  0.00     0.020 C  
BRANCH   4   5
HETATM    5  C   UNL     1      -8.097  12.379  67.587  1.00  0.00    -0.168 C  
HETATM    6  C   UNL     1      -8.486  10.880  67.591  1.00  0.00    -0.123 C  
HETATM    7  C   UNL     1      -9.605  10.587  68.587  1.00  0.00    -0.171 A  
HETATM    8  C   UNL     1      -8.789  10.408  66.166  1.00  0.00    -0.158 A  
HETATM    9  C   UNL     1     -10.865  11.196  68.474  1.00  0.00    -0.243 A  
HETATM   10  C   UNL     1      -8.588   9.073  65.815  1.00  0.00    -0.180 A  
HETATM   11  C   UNL     1      -8.741   8.694  64.481  1.00  0.00    -0.034 A  
HETATM   12  C   UNL     1     -11.832  11.024  69.470  1.00  0.00    -0.404 A  
HETATM   13  C   UNL     1      -9.098   9.648  63.536  1.00  0.00    -0.211 A  
HETATM   14  C   UNL     1     -11.551  10.231  70.580  1.00  0.00    -0.338 A  
HETATM   15  C   UNL     1      -9.313  10.943  63.968  1.00  0.00    -0.237 A  
HETATM   16  C   UNL     1     -10.322   9.585  70.690  1.00  0.00    -0.369 A  
HETATM   17 BR   UNL     1     -12.831  10.059  71.961  1.00  0.00    -0.439 Br 
HETATM   18  N   UNL     1      -9.178  11.337  65.253  1.00  0.00    -0.204 NA 
HETATM   19  C   UNL     1      -9.355   9.762  69.698  1.00  0.00    -0.237 A  
ENDBRANCH   4   5
ENDBRANCH   2   4
TORSDOF 2
ENDMDL
MODEL      124
REMARK 921   NORMALIZED FREE ENERGY PREDICTED BY IDOCK:   -3.34 KCAL/MOL
REMARK 922        TOTAL FREE ENERGY PREDICTED BY IDOCK:   -3.89 KCAL/MOL
REMARK 923 INTER-LIGAND FREE ENERGY PREDICTED BY IDOCK:   -3.71 KCAL/MOL
REMARK 924 INTRA-LIGAND FREE ENERGY PREDICTED BY IDOCK:   -0.18 KCAL/MOL
REMARK 927      BINDING AFFINITY PREDICTED BY RF-SCORE:    0.00 PKD
ROOT
HETATM    1  C   UNL     1     -12.654   8.514  72.437  1.00  0.00    -0.348 C  
HETATM    2  N   UNL     1     -11.213   8.247  72.463  1.00  0.00    -0.380 NA 
HETATM    3  C   UNL     1     -10.983   6.831  72.761  1.00  0.00    -0.270 C  
ENDROOT
BRANCH   2   4
HETATM    4  C   UNL     1     -10.564   8.584  71.183  1.00  0.00    -0.220 C  
BRANCH   4   5
HETATM    5  C   UNL     1     -10.083   7.382  70.360  1.00  0.00    -0.193 C  
HETATM    6  C   UNL     1     -10.164   7.563  68.824  1.00  0.00    -0.206 C  
HETATM    7  C   UNL     1      -9.262   8.694  68.337  1.00  0.00    -0.138 A  
HETATM    8  C   UNL     1      -9.914   6.226  68.119  1.00  0.00    -0.138 A  
HETATM    9  C   UNL     1      -7.872   8.660  68.534  1.00  0.00    -0.108 A  
HETATM   10  C   UNL     1     -10.482   5.979  66.869  1.00  0.00    -0.344 A  
HETATM   11  C   UNL     1     -10.352   4.709  66.307  1.00  0.00    -0.293 A  
HETATM   12  C   UNL     1      -7.079   9.764  68.207  1.00  0.00    -0.077 A  
HETATM   13  C   UNL     1      -9.656   3.725  66.996  1.00  0.00    -0.213 A  
HETATM   14  C   UNL     1      -7.666  10.905  67.667  1.00  0.00    -0.108 A  
HETATM   15  C   UNL     1      -9.093   4.057  68.214  1.00  0.00    -0.137 A  
HETATM   16  C   UNL     1      -9.037  10.943  67.425  1.00  0.00    -0.144 A  
HETATM   17 BR   UNL     1      -6.603  12.423  67.293  1.00  0.00    -0.097 Br 
HETATM   18  N   UNL     1      -9.197   5.279  68.779  1.00  0.00    -0.112 NA 
HETATM   19  C   UNL     1      -9.830   9.843  67.758  1.00  0.00    -0.184 A  
ENDBRANCH   4   5
ENDBRANCH   2   4
TORSDOF 2
ENDMDL
MODEL      125
REMARK 921   NORMALIZED FREE ENERGY PREDICTED BY IDOCK:   -3.34 KCAL/MOL
REMARK 922        TOTAL FREE ENERGY PREDICTED BY IDOCK:   -3.89 KCAL/MOL
REMARK 923 INTER-LIGAND FREE ENERGY PREDICTED BY IDOCK:   -3.98 KCAL/MOL
REMARK 924 INTRA-LIGAND FREE ENERGY PREDICTED BY IDOCK:    0.09 KCAL/MOL
REMARK 927      BINDING AFFINITY PREDICTED BY RF-SCORE:    0.00 PKD
ROOT
HETATM    1  C   UNL     1      -9.617  15.102  66.880  1.00  0.00    -0.239 C  
HETATM    2  N   UNL     1      -8.794  14.651  68.006  1.00  0.00    -0.163 NA 
HETATM    3  C   UNL     1      -9.645  14.441  69.180  1.00  0.00     0.029 C  
ENDROOT
BRANCH   2   4
HETATM    4  C   UNL     1      -8.074  13.401  67.701  1.00  0.00    -0.175 C  
BRANCH   4   5
HETATM    5  C   UNL     1      -8.454  12.199  68.575  1.00  0.00    -0.083 C  
HETATM    6  C   UNL     1      -9.774  11.492  68.180  1.00  0.00    -0.192 C  
HETATM    7  C   UNL     1      -9.697  10.887  66.781  1.00  0.00    -0.221 A  
HETATM    8  C   UNL     1     -10.183  10.491  69.265  1.00  0.00    -0.225 A  
HETATM    9  C   UNL     1      -8.753   9.899  66.460  1.00  0.00    -0.139 A  
HETATM   10  C   UNL     1     -11.530  10.180  69.457  1.00  0.00    -0.227 A  
HETATM   11  C   UNL     1     -11.890   9.371  70.534  1.00  0.00    -0.207 A  
HETATM   12  C   UNL     1      -8.604   9.456  65.142  1.00  0.00    -0.188 A  
HETATM   13  C   UNL     1     -10.904   8.887  71.385  1.00  0.00    -0.378 A  
HETATM   14  C   UNL     1      -9.410   9.986  64.137  1.00  0.00    -0.280 A  
HETATM   15  C   UNL     1      -9.590   9.211  71.108  1.00  0.00    -0.277 A  
HETATM   16  C   UNL     1     -10.380  10.936  64.442  1.00  0.00    -0.430 A  
HETATM   17 BR   UNL     1      -9.158   9.439  62.344  1.00  0.00    -0.100 Br 
HETATM   18  N   UNL     1      -9.211   9.986  70.069  1.00  0.00    -0.173 NA 
HETATM   19  C   UNL     1     -10.524  11.383  65.757  1.00  0.00    -0.314 A  
ENDBRANCH   4   5
ENDBRANCH   2   4
TORSDOF 2
ENDMDL
MODEL      126
REMARK 921   NORMALIZED FREE ENERGY PREDICTED BY IDOCK:   -3.33 KCAL/MOL
REMARK 922        TOTAL FREE ENERGY PREDICTED BY IDOCK:   -3.88 KCAL/MOL
REMARK 923 INTER-LIGAND FREE ENERGY PREDICTED BY IDOCK:   -3.63 KCAL/MOL
REMARK 924 INTRA-LIGAND FREE ENERGY PREDICTED BY IDOCK:   -0.25 KCAL/MOL
REMARK 927      BINDING AFFINITY PREDICTED BY RF-SCORE:    0.00 PKD
ROOT
HETATM    1  C   UNL     1      -6.512   5.071  73.854  1.00  0.00    -0.067 C  
HETATM    2  N   UNL     1      -7.935   5.402  73.744  1.00  0.00    -0.108 NA 
HETATM    3  C   UNL     1      -8.148   6.792  74.156  1.00  0.00    -0.121 C  
ENDROOT
BRANCH   2   4
HETATM    4  C   UNL     1      -8.441   5.222  72.370  1.00  0.00    -0.122 C  
BRANCH   4   5
HETATM    5  C   UNL     1      -7.861   6.189  71.330  1.00  0.00    -0.108 C  
HETATM    6  C   UNL     1      -8.785   6.489  70.124  1.00  0.00    -0.140 C  
HETATM    7  C   UNL     1     -10.074   7.183  70.555  1.00  0.00    -0.202 A  
HETATM    8  C   UNL     1      -8.011   7.241  69.037  1.00  0.00    -0.119 A  
HETATM    9  C   UNL     1     -10.054   8.431  71.200  1.00  0.00    -0.248 A  
HETATM   10  C   UNL     1      -8.385   7.115  67.699  1.00  0.00    -0.117 A  
HETATM   11  C   UNL     1      -7.587   7.701  66.717  1.00  0.00    -0.098 A  
HETATM   12  C   UNL     1     -11.231   8.987  71.711  1.00  0.00    -0.448 A  
HETATM   13  C   UNL     1      -6.447   8.401  67.090  1.00  0.00    -0.058 A  
HETATM   14  C   UNL     1     -12.438   8.308  71.569  1.00  0.00    -0.312 A  
HETATM   15  C   UNL     1      -6.162   8.511  68.438  1.00  0.00    -0.054 A  
HETATM   16  C   UNL     1     -12.485   7.090  70.897  1.00  0.00    -0.319 A  
HETATM   17 BR   UNL     1     -14.016   9.027  72.324  1.00  0.00    -0.488 Br 
HETATM   18  N   UNL     1      -6.920   7.961  69.411  1.00  0.00    -0.058 NA 
HETATM   19  C   UNL     1     -11.309   6.531  70.392  1.00  0.00    -0.443 A  
ENDBRANCH   4   5
ENDBRANCH   2   4
TORSDOF 2
ENDMDL
MODEL      127
REMARK 921   NORMALIZED FREE ENERGY PREDICTED BY IDOCK:   -3.32 KCAL/MOL
REMARK 922        TOTAL FREE ENERGY PREDICTED BY IDOCK:   -3.86 KCAL/MOL
REMARK 923 INTER-LIGAND FREE ENERGY PREDICTED BY IDOCK:   -3.55 KCAL/MOL
REMARK 924 INTRA-LIGAND FREE ENERGY PREDICTED BY IDOCK:   -0.31 KCAL/MOL
REMARK 927      BINDING AFFINITY PREDICTED BY RF-SCORE:    0.00 PKD
ROOT
HETATM    1  C   UNL     1      -7.239   5.038  72.848  1.00  0.00    -0.085 C  
HETATM    2  N   UNL     1      -7.636   5.313  71.465  1.00  0.00    -0.099 NA 
HETATM    3  C   UNL     1      -6.786   4.547  70.550  1.00  0.00    -0.036 C  
ENDROOT
BRANCH   2   4
HETATM    4  C   UNL     1      -9.048   4.968  71.216  1.00  0.00    -0.143 C  
BRANCH   4   5
HETATM    5  C   UNL     1      -9.998   6.165  71.084  1.00  0.00    -0.218 C  
HETATM    6  C   UNL     1      -9.621   7.185  69.981  1.00  0.00    -0.164 C  
HETATM    7  C   UNL     1      -9.665   6.558  68.589  1.00  0.00    -0.128 A  
HETATM    8  C   UNL     1     -10.472   8.451  70.115  1.00  0.00    -0.228 A  
HETATM    9  C   UNL     1     -10.850   6.018  68.066  1.00  0.00    -0.374 A  
HETATM   10  C   UNL     1      -9.974   9.678  69.679  1.00  0.00    -0.239 A  
HETATM   11  C   UNL     1     -10.709  10.835  69.932  1.00  0.00    -0.202 A  
HETATM   12  C   UNL     1     -10.842   5.326  66.851  1.00  0.00    -0.081 A  
HETATM   13  C   UNL     1     -11.922  10.741  70.603  1.00  0.00    -0.466 A  
HETATM   14  C   UNL     1      -9.651   5.182  66.142  1.00  0.00    -0.164 A  
HETATM   15  C   UNL     1     -12.365   9.486  70.974  1.00  0.00    -0.282 A  
HETATM   16  C   UNL     1      -8.473   5.746  66.624  1.00  0.00    -0.113 A  
HETATM   17 BR   UNL     1      -9.627   4.183  64.537  1.00  0.00    -0.160 Br 
HETATM   18  N   UNL     1     -11.678   8.348  70.736  1.00  0.00    -0.248 NA 
HETATM   19  C   UNL     1      -8.481   6.432  67.841  1.00  0.00    -0.118 A  
ENDBRANCH   4   5
ENDBRANCH   2   4
TORSDOF 2
ENDMDL
MODEL      128
REMARK 921   NORMALIZED FREE ENERGY PREDICTED BY IDOCK:   -3.31 KCAL/MOL
REMARK 922        TOTAL FREE ENERGY PREDICTED BY IDOCK:   -3.86 KCAL/MOL
REMARK 923 INTER-LIGAND FREE ENERGY PREDICTED BY IDOCK:   -3.69 KCAL/MOL
REMARK 924 INTRA-LIGAND FREE ENERGY PREDICTED BY IDOCK:   -0.17 KCAL/MOL
REMARK 927      BINDING AFFINITY PREDICTED BY RF-SCORE:    0.00 PKD
ROOT
HETATM    1  C   UNL     1     -10.141  10.762  65.979  1.00  0.00    -0.249 C  
HETATM    2  N   UNL     1      -9.986   9.349  66.337  1.00  0.00    -0.265 NA 
HETATM    3  C   UNL     1      -9.127   8.686  65.353  1.00  0.00    -0.090 C  
ENDROOT
BRANCH   2   4
HETATM    4  C   UNL     1      -9.403   9.179  67.681  1.00  0.00    -0.135 C  
BRANCH   4   5
HETATM    5  C   UNL     1      -8.981   7.747  68.032  1.00  0.00    -0.126 C  
HETATM    6  C   UNL     1      -8.769   7.476  69.542  1.00  0.00    -0.137 C  
HETATM    7  C   UNL     1     -10.060   7.657  70.337  1.00  0.00    -0.190 A  
HETATM    8  C   UNL     1      -8.103   6.113  69.748  1.00  0.00    -0.119 A  
HETATM    9  C   UNL     1     -11.197   6.876  70.077  1.00  0.00    -0.347 A  
HETATM   10  C   UNL     1      -7.302   5.888  70.868  1.00  0.00    -0.086 A  
HETATM   11  C   UNL     1      -6.600   4.687  70.966  1.00  0.00    -0.031 A  
HETATM   12  C   UNL     1     -12.410   7.147  70.718  1.00  0.00    -0.273 A  
HETATM   13  C   UNL     1      -6.718   3.741  69.956  1.00  0.00    -0.034 A  
HETATM   14  C   UNL     1     -12.492   8.192  71.635  1.00  0.00    -0.319 A  
HETATM   15  C   UNL     1      -7.558   4.023  68.896  1.00  0.00    -0.054 A  
HETATM   16  C   UNL     1     -11.365   8.952  71.937  1.00  0.00    -0.446 A  
HETATM   17 BR   UNL     1     -14.150   8.604  72.446  1.00  0.00    -0.394 Br 
HETATM   18  N   UNL     1      -8.255   5.173  68.777  1.00  0.00    -0.085 NA 
HETATM   19  C   UNL     1     -10.156   8.685  71.293  1.00  0.00    -0.312 A  
ENDBRANCH   4   5
ENDBRANCH   2   4
TORSDOF 2
ENDMDL
MODEL      129
REMARK 921   NORMALIZED FREE ENERGY PREDICTED BY IDOCK:   -3.31 KCAL/MOL
REMARK 922        TOTAL FREE ENERGY PREDICTED BY IDOCK:   -3.86 KCAL/MOL
REMARK 923 INTER-LIGAND FREE ENERGY PREDICTED BY IDOCK:   -3.64 KCAL/MOL
REMARK 924 INTRA-LIGAND FREE ENERGY PREDICTED BY IDOCK:   -0.21 KCAL/MOL
REMARK 927      BINDING AFFINITY PREDICTED BY RF-SCORE:    0.00 PKD
ROOT
HETATM    1  C   UNL     1     -10.581   6.702  66.908  1.00  0.00    -0.306 C  
HETATM    2  N   UNL     1      -9.486   7.141  67.777  1.00  0.00    -0.126 NA 
HETATM    3  C   UNL     1      -8.227   6.548  67.318  1.00  0.00    -0.113 C  
ENDROOT
BRANCH   2   4
HETATM    4  C   UNL     1      -9.350   8.610  67.796  1.00  0.00    -0.141 C  
BRANCH   4   5
HETATM    5  C   UNL     1      -8.319   9.182  66.816  1.00  0.00    -0.123 C  
HETATM    6  C   UNL     1      -8.903  10.080  65.697  1.00  0.00    -0.184 C  
HETATM    7  C   UNL     1      -9.569  11.332  66.264  1.00  0.00    -0.235 A  
HETATM    8  C   UNL     1      -7.835  10.372  64.640  1.00  0.00    -0.077 A  
HETATM    9  C   UNL     1      -8.844  12.270  67.015  1.00  0.00    -0.205 A  
HETATM   10  C   UNL     1      -8.209  10.624  63.320  1.00  0.00    -0.058 A  
HETATM   11  C   UNL     1      -7.217  10.755  62.349  1.00  0.00    -0.110 A  
HETATM   12  C   UNL     1      -9.495  13.337  67.642  1.00  0.00    -0.211 A  
HETATM   13  C   UNL     1      -5.882  10.642  62.717  1.00  0.00    -0.139 A  
HETATM   14  C   UNL     1     -10.874  13.483  67.510  1.00  0.00    -0.264 A  
HETATM   15  C   UNL     1      -5.590  10.426  64.050  1.00  0.00    -0.143 A  
HETATM   16  C   UNL     1     -11.605  12.586  66.735  1.00  0.00    -0.446 A  
HETATM   17 BR   UNL     1     -11.764  14.883  68.417  1.00  0.00    -0.314 Br 
HETATM   18  N   UNL     1      -6.530  10.301  65.012  1.00  0.00    -0.129 NA 
HETATM   19  C   UNL     1     -10.955  11.517  66.114  1.00  0.00    -0.320 A  
ENDBRANCH   4   5
ENDBRANCH   2   4
TORSDOF 2
ENDMDL
MODEL      130
REMARK 921   NORMALIZED FREE ENERGY PREDICTED BY IDOCK:   -3.27 KCAL/MOL
REMARK 922        TOTAL FREE ENERGY PREDICTED BY IDOCK:   -3.81 KCAL/MOL
REMARK 923 INTER-LIGAND FREE ENERGY PREDICTED BY IDOCK:   -3.55 KCAL/MOL
REMARK 924 INTRA-LIGAND FREE ENERGY PREDICTED BY IDOCK:   -0.26 KCAL/MOL
REMARK 927      BINDING AFFINITY PREDICTED BY RF-SCORE:    0.00 PKD
ROOT
HETATM    1  C   UNL     1     -10.374  12.626  65.346  1.00  0.00    -0.291 C  
HETATM    2  N   UNL     1     -10.613  11.344  64.676  1.00  0.00    -0.305 NA 
HETATM    3  C   UNL     1     -10.498  11.521  63.225  1.00  0.00    -0.362 C  
ENDROOT
BRANCH   2   4
HETATM    4  C   UNL     1      -9.662  10.305  65.113  1.00  0.00    -0.300 C  
BRANCH   4   5
HETATM    5  C   UNL     1      -9.890   9.768  66.531  1.00  0.00    -0.286 C  
HETATM    6  C   UNL     1      -8.604   9.545  67.365  1.00  0.00    -0.125 C  
HETATM    7  C   UNL     1      -7.854  10.852  67.610  1.00  0.00    -0.113 A  
HETATM    8  C   UNL     1      -8.929   8.769  68.644  1.00  0.00    -0.138 A  
HETATM    9  C   UNL     1      -8.447  11.918  68.305  1.00  0.00    -0.161 A  
HETATM   10  C   UNL     1      -7.959   7.960  69.236  1.00  0.00    -0.117 A  
HETATM   11  C   UNL     1      -8.316   7.161  70.322  1.00  0.00    -0.136 A  
HETATM   12  C   UNL     1      -7.800  13.154  68.401  1.00  0.00    -0.135 A  
HETATM   13  C   UNL     1      -9.622   7.193  70.794  1.00  0.00    -0.168 A  
HETATM   14  C   UNL     1      -6.548  13.329  67.816  1.00  0.00    -0.155 A  
HETATM   15  C   UNL     1     -10.516   8.045  70.176  1.00  0.00    -0.225 A  
HETATM   16  C   UNL     1      -5.925  12.272  67.158  1.00  0.00    -0.117 A  
HETATM   17 BR   UNL     1      -5.707  15.021  67.884  1.00  0.00    -0.116 Br 
HETATM   18  N   UNL     1     -10.198   8.836  69.128  1.00  0.00    -0.203 NA 
HETATM   19  C   UNL     1      -6.574  11.040  67.057  1.00  0.00    -0.100 A  
ENDBRANCH   4   5
ENDBRANCH   2   4
TORSDOF 2
ENDMDL
MODEL      131
REMARK 921   NORMALIZED FREE ENERGY PREDICTED BY IDOCK:   -3.27 KCAL/MOL
REMARK 922        TOTAL FREE ENERGY PREDICTED BY IDOCK:   -3.81 KCAL/MOL
REMARK 923 INTER-LIGAND FREE ENERGY PREDICTED BY IDOCK:   -3.65 KCAL/MOL
REMARK 924 INTRA-LIGAND FREE ENERGY PREDICTED BY IDOCK:   -0.16 KCAL/MOL
REMARK 927      BINDING AFFINITY PREDICTED BY RF-SCORE:    0.00 PKD
ROOT
HETATM    1  C   UNL     1     -10.250  11.024  64.187  1.00  0.00    -0.357 C  
HETATM    2  N   UNL     1      -9.835  11.248  65.574  1.00  0.00    -0.220 NA 
HETATM    3  C   UNL     1     -10.403  12.509  66.058  1.00  0.00    -0.256 C  
ENDROOT
BRANCH   2   4
HETATM    4  C   UNL     1     -10.262  10.152  66.464  1.00  0.00    -0.223 C  
BRANCH   4   5
HETATM    5  C   UNL     1      -9.747   8.760  66.078  1.00  0.00    -0.276 C  
HETATM    6  C   UNL     1      -8.727   8.140  67.065  1.00  0.00    -0.136 C  
HETATM    7  C   UNL     1      -9.340   7.908  68.443  1.00  0.00    -0.140 A  
HETATM    8  C   UNL     1      -8.090   6.889  66.453  1.00  0.00    -0.113 A  
HETATM    9  C   UNL     1     -10.442   7.057  68.622  1.00  0.00    -0.224 A  
HETATM   10  C   UNL     1      -6.803   6.505  66.827  1.00  0.00    -0.066 A  
HETATM   11  C   UNL     1      -6.193   5.443  66.161  1.00  0.00    -0.034 A  
HETATM   12  C   UNL     1     -11.076   6.963  69.865  1.00  0.00    -0.333 A  
HETATM   13  C   UNL     1      -6.881   4.786  65.149  1.00  0.00    -0.057 A  
HETATM   14  C   UNL     1     -10.604   7.707  70.943  1.00  0.00    -0.213 A  
HETATM   15  C   UNL     1      -8.166   5.203  64.859  1.00  0.00    -0.136 A  
HETATM   16  C   UNL     1      -9.487   8.525  70.797  1.00  0.00    -0.213 A  
HETATM   17 BR   UNL     1     -11.506   7.635  72.603  1.00  0.00    -0.385 Br 
HETATM   18  N   UNL     1      -8.784   6.223  65.491  1.00  0.00    -0.123 NA 
HETATM   19  C   UNL     1      -8.857   8.624  69.554  1.00  0.00    -0.144 A  
ENDBRANCH   4   5
ENDBRANCH   2   4
TORSDOF 2
ENDMDL
MODEL      132
REMARK 921   NORMALIZED FREE ENERGY PREDICTED BY IDOCK:   -3.27 KCAL/MOL
REMARK 922        TOTAL FREE ENERGY PREDICTED BY IDOCK:   -3.81 KCAL/MOL
REMARK 923 INTER-LIGAND FREE ENERGY PREDICTED BY IDOCK:   -3.62 KCAL/MOL
REMARK 924 INTRA-LIGAND FREE ENERGY PREDICTED BY IDOCK:   -0.19 KCAL/MOL
REMARK 927      BINDING AFFINITY PREDICTED BY RF-SCORE:    0.00 PKD
ROOT
HETATM    1  C   UNL     1     -10.424   5.733  68.768  1.00  0.00    -0.242 C  
HETATM    2  N   UNL     1     -11.216   6.840  69.310  1.00  0.00    -0.235 NA 
HETATM    3  C   UNL     1     -11.666   6.505  70.663  1.00  0.00    -0.374 C  
ENDROOT
BRANCH   2   4
HETATM    4  C   UNL     1     -10.450   8.100  69.353  1.00  0.00    -0.220 C  
BRANCH   4   5
HETATM    5  C   UNL     1      -9.460   8.301  68.199  1.00  0.00    -0.148 C  
HETATM    6  C   UNL     1      -9.935   9.268  67.087  1.00  0.00    -0.276 C  
HETATM    7  C   UNL     1     -10.136  10.686  67.616  1.00  0.00    -0.208 A  
HETATM    8  C   UNL     1      -8.998   9.187  65.878  1.00  0.00    -0.189 A  
HETATM    9  C   UNL     1      -9.076  11.416  68.178  1.00  0.00    -0.174 A  
HETATM   10  C   UNL     1      -9.481   9.466  64.600  1.00  0.00    -0.022 A  
HETATM   11  C   UNL     1      -8.648   9.257  63.501  1.00  0.00    -0.201 A  
HETATM   12  C   UNL     1      -9.307  12.656  68.782  1.00  0.00     0.132 A  
HETATM   13  C   UNL     1      -7.357   8.786  63.703  1.00  0.00    -0.103 A  
HETATM   14  C   UNL     1     -10.596  13.183  68.816  1.00  0.00    -0.201 A  
HETATM   15  C   UNL     1      -6.940   8.565  65.002  1.00  0.00    -0.075 A  
HETATM   16  C   UNL     1     -11.653  12.493  68.228  1.00  0.00    -0.376 A  
HETATM   17 BR   UNL     1     -10.918  14.825  69.696  1.00  0.00    -0.267 Br 
HETATM   18  N   UNL     1      -7.722   8.766  66.084  1.00  0.00    -0.100 NA 
HETATM   19  C   UNL     1     -11.424  11.252  67.630  1.00  0.00    -0.341 A  
ENDBRANCH   4   5
ENDBRANCH   2   4
TORSDOF 2
ENDMDL
MODEL      133
REMARK 921   NORMALIZED FREE ENERGY PREDICTED BY IDOCK:   -3.24 KCAL/MOL
REMARK 922        TOTAL FREE ENERGY PREDICTED BY IDOCK:   -3.78 KCAL/MOL
REMARK 923 INTER-LIGAND FREE ENERGY PREDICTED BY IDOCK:   -3.64 KCAL/MOL
REMARK 924 INTRA-LIGAND FREE ENERGY PREDICTED BY IDOCK:   -0.14 KCAL/MOL
REMARK 927      BINDING AFFINITY PREDICTED BY RF-SCORE:    0.00 PKD
ROOT
HETATM    1  C   UNL     1     -12.148  11.195  69.530  1.00  0.00    -0.326 C  
HETATM    2  N   UNL     1     -11.895  11.311  68.091  1.00  0.00    -0.607 NA 
HETATM    3  C   UNL     1     -11.268  12.604  67.806  1.00  0.00    -0.274 C  
ENDROOT
BRANCH   2   4
HETATM    4  C   UNL     1     -11.023  10.231  67.593  1.00  0.00    -0.294 C  
BRANCH   4   5
HETATM    5  C   UNL     1      -9.718  10.033  68.375  1.00  0.00    -0.157 C  
HETATM    6  C   UNL     1      -9.624   8.708  69.171  1.00  0.00    -0.163 C  
HETATM    7  C   UNL     1      -9.660   7.490  68.252  1.00  0.00    -0.157 A  
HETATM    8  C   UNL     1      -8.414   8.739  70.110  1.00  0.00    -0.137 A  
HETATM    9  C   UNL     1      -8.681   7.286  67.267  1.00  0.00    -0.121 A  
HETATM   10  C   UNL     1      -8.428   7.998  71.292  1.00  0.00    -0.138 A  
HETATM   11  C   UNL     1      -7.374   8.145  72.194  1.00  0.00    -0.117 A  
HETATM   12  C   UNL     1      -8.804   6.241  66.345  1.00  0.00    -0.147 A  
HETATM   13  C   UNL     1      -6.334   9.015  71.894  1.00  0.00    -0.029 A  
HETATM   14  C   UNL     1      -9.900   5.384  66.410  1.00  0.00    -0.176 A  
HETATM   15  C   UNL     1      -6.376   9.687  70.687  1.00  0.00    -0.097 A  
HETATM   16  C   UNL     1     -10.860   5.545  67.405  1.00  0.00    -0.118 A  
HETATM   17 BR   UNL     1     -10.103   4.018  65.118  1.00  0.00    -0.157 Br 
HETATM   18  N   UNL     1      -7.379   9.560  69.792  1.00  0.00    -0.080 NA 
HETATM   19  C   UNL     1     -10.740   6.592  68.322  1.00  0.00    -0.341 A  
ENDBRANCH   4   5
ENDBRANCH   2   4
TORSDOF 2
ENDMDL
MODEL      134
REMARK 921   NORMALIZED FREE ENERGY PREDICTED BY IDOCK:   -3.22 KCAL/MOL
REMARK 922        TOTAL FREE ENERGY PREDICTED BY IDOCK:   -3.75 KCAL/MOL
REMARK 923 INTER-LIGAND FREE ENERGY PREDICTED BY IDOCK:   -3.44 KCAL/MOL
REMARK 924 INTRA-LIGAND FREE ENERGY PREDICTED BY IDOCK:   -0.31 KCAL/MOL
REMARK 927      BINDING AFFINITY PREDICTED BY RF-SCORE:    0.00 PKD
ROOT
HETATM    1  C   UNL     1      -5.965   8.754  73.439  1.00  0.00    -0.081 C  
HETATM    2  N   UNL     1      -6.613   8.070  72.317  1.00  0.00    -0.063 NA 
HETATM    3  C   UNL     1      -5.738   7.004  71.821  1.00  0.00    -0.037 C  
ENDROOT
BRANCH   2   4
HETATM    4  C   UNL     1      -7.914   7.489  72.699  1.00  0.00    -0.100 C  
BRANCH   4   5
HETATM    5  C   UNL     1      -9.142   8.202  72.119  1.00  0.00    -0.249 C  
HETATM    6  C   UNL     1      -9.189   8.278  70.572  1.00  0.00    -0.160 C  
HETATM    7  C   UNL     1      -9.266   6.891  69.939  1.00  0.00    -0.147 A  
HETATM    8  C   UNL     1     -10.302   9.227  70.121  1.00  0.00    -0.222 A  
HETATM    9  C   UNL     1     -10.339   6.024  70.201  1.00  0.00    -0.284 A  
HETATM   10  C   UNL     1     -10.192   9.907  68.909  1.00  0.00    -0.209 A  
HETATM   11  C   UNL     1     -11.151  10.865  68.581  1.00  0.00    -0.305 A  
HETATM   12  C   UNL     1     -10.326   4.710  69.724  1.00  0.00     0.020 A  
HETATM   13  C   UNL     1     -12.197  11.114  69.461  1.00  0.00    -0.347 A  
HETATM   14  C   UNL     1      -9.248   4.256  68.969  1.00  0.00    -0.145 A  
HETATM   15  C   UNL     1     -12.256  10.374  70.627  1.00  0.00    -0.347 A  
HETATM   16  C   UNL     1      -8.194   5.112  68.663  1.00  0.00    -0.085 A  
HETATM   17 BR   UNL     1      -9.198   2.458  68.387  1.00  0.00    -0.265 Br 
HETATM   18  N   UNL     1     -11.346   9.437  70.967  1.00  0.00    -0.306 NA 
HETATM   19  C   UNL     1      -8.204   6.423  69.145  1.00  0.00    -0.111 A  
ENDBRANCH   4   5
ENDBRANCH   2   4
TORSDOF 2
ENDMDL
MODEL      135
REMARK 921   NORMALIZED FREE ENERGY PREDICTED BY IDOCK:   -3.19 KCAL/MOL
REMARK 922        TOTAL FREE ENERGY PREDICTED BY IDOCK:   -3.72 KCAL/MOL
REMARK 923 INTER-LIGAND FREE ENERGY PREDICTED BY IDOCK:   -3.71 KCAL/MOL
REMARK 924 INTRA-LIGAND FREE ENERGY PREDICTED BY IDOCK:   -0.02 KCAL/MOL
REMARK 927      BINDING AFFINITY PREDICTED BY RF-SCORE:    0.00 PKD
ROOT
HETATM    1  C   UNL     1      -7.959  16.632  66.216  1.00  0.00    -0.305 C  
HETATM    2  N   UNL     1      -6.820  16.217  67.038  1.00  0.00    -0.206 NA 
HETATM    3  C   UNL     1      -6.543  17.245  68.046  1.00  0.00    -0.165 C  
ENDROOT
BRANCH   2   4
HETATM    4  C   UNL     1      -7.065  14.930  67.715  1.00  0.00    -0.174 C  
BRANCH   4   5
HETATM    5  C   UNL     1      -8.197  14.943  68.751  1.00  0.00    -0.161 C  
HETATM    6  C   UNL     1      -9.602  14.609  68.192  1.00  0.00    -0.213 C  
HETATM    7  C   UNL     1      -9.667  13.190  67.632  1.00  0.00    -0.213 A  
HETATM    8  C   UNL     1     -10.675  14.907  69.243  1.00  0.00    -0.249 A  
HETATM    9  C   UNL     1      -9.422  12.070  68.442  1.00  0.00    -0.181 A  
HETATM   10  C   UNL     1     -11.966  15.254  68.844  1.00  0.00    -0.292 A  
HETATM   11  C   UNL     1     -12.888  15.651  69.812  1.00  0.00     0.240 A  
HETATM   12  C   UNL     1      -9.349  10.789  67.885  1.00  0.00    -0.154 A  
HETATM   13  C   UNL     1     -12.507  15.685  71.147  1.00  0.00    -0.505 A  
HETATM   14  C   UNL     1      -9.535  10.617  66.515  1.00  0.00    -0.169 A  
HETATM   15  C   UNL     1     -11.220  15.295  71.466  1.00  0.00    -0.307 A  
HETATM   16  C   UNL     1      -9.820  11.710  65.701  1.00  0.00    -0.270 A  
HETATM   17 BR   UNL     1      -9.365   8.895  65.752  1.00  0.00    -0.256 Br 
HETATM   18  N   UNL     1     -10.308  14.899  70.552  1.00  0.00     0.151 NA 
HETATM   19  C   UNL     1      -9.886  12.990  66.257  1.00  0.00    -0.278 A  
ENDBRANCH   4   5
ENDBRANCH   2   4
TORSDOF 2
ENDMDL
MODEL      136
REMARK 921   NORMALIZED FREE ENERGY PREDICTED BY IDOCK:   -3.18 KCAL/MOL
REMARK 922        TOTAL FREE ENERGY PREDICTED BY IDOCK:   -3.71 KCAL/MOL
REMARK 923 INTER-LIGAND FREE ENERGY PREDICTED BY IDOCK:   -3.53 KCAL/MOL
REMARK 924 INTRA-LIGAND FREE ENERGY PREDICTED BY IDOCK:   -0.18 KCAL/MOL
REMARK 927      BINDING AFFINITY PREDICTED BY RF-SCORE:    0.00 PKD
ROOT
HETATM    1  C   UNL     1      -8.879   1.947  65.840  1.00  0.00    -0.122 C  
HETATM    2  N   UNL     1      -8.141   3.213  65.851  1.00  0.00    -0.085 NA 
HETATM    3  C   UNL     1      -8.119   3.779  64.499  1.00  0.00    -0.086 C  
ENDROOT
BRANCH   2   4
HETATM    4  C   UNL     1      -8.737   4.194  66.777  1.00  0.00    -0.114 C  
BRANCH   4   5
HETATM    5  C   UNL     1      -8.357   5.656  66.511  1.00  0.00    -0.110 C  
HETATM    6  C   UNL     1      -9.448   6.695  66.870  1.00  0.00    -0.184 C  
HETATM    7  C   UNL     1      -9.767   6.690  68.363  1.00  0.00    -0.126 A  
HETATM    8  C   UNL     1      -9.067   8.074  66.323  1.00  0.00    -0.186 A  
HETATM    9  C   UNL     1      -8.785   6.984  69.323  1.00  0.00    -0.136 A  
HETATM   10  C   UNL     1     -10.063   8.992  65.990  1.00  0.00    -0.154 A  
HETATM   11  C   UNL     1      -9.699  10.188  65.371  1.00  0.00    -0.355 A  
HETATM   12  C   UNL     1      -9.058   6.840  70.687  1.00  0.00    -0.155 A  
HETATM   13  C   UNL     1      -8.359  10.442  65.108  1.00  0.00    -0.165 A  
HETATM   14  C   UNL     1     -10.318   6.416  71.102  1.00  0.00    -0.205 A  
HETATM   15  C   UNL     1      -7.429   9.497  65.499  1.00  0.00    -0.102 A  
HETATM   16  C   UNL     1     -11.317   6.160  70.167  1.00  0.00    -0.433 A  
HETATM   17 BR   UNL     1     -10.662   6.153  72.943  1.00  0.00    -0.291 Br 
HETATM   18  N   UNL     1      -7.751   8.335  66.106  1.00  0.00    -0.094 NA 
HETATM   19  C   UNL     1     -11.043   6.297  68.805  1.00  0.00    -0.424 A  
ENDBRANCH   4   5
ENDBRANCH   2   4
TORSDOF 2
ENDMDL
MODEL      137
REMARK 921   NORMALIZED FREE ENERGY PREDICTED BY IDOCK:   -3.18 KCAL/MOL
REMARK 922        TOTAL FREE ENERGY PREDICTED BY IDOCK:   -3.71 KCAL/MOL
REMARK 923 INTER-LIGAND FREE ENERGY PREDICTED BY IDOCK:   -3.50 KCAL/MOL
REMARK 924 INTRA-LIGAND FREE ENERGY PREDICTED BY IDOCK:   -0.21 KCAL/MOL
REMARK 927      BINDING AFFINITY PREDICTED BY RF-SCORE:    0.00 PKD
ROOT
HETATM    1  C   UNL     1     -11.067  10.256  68.024  1.00  0.00    -0.274 C  
HETATM    2  N   UNL     1     -10.256   9.501  68.984  1.00  0.00    -0.192 NA 
HETATM    3  C   UNL     1      -9.137  10.330  69.439  1.00  0.00    -0.187 C  
ENDROOT
BRANCH   2   4
HETATM    4  C   UNL     1     -11.044   9.068  70.154  1.00  0.00    -0.207 C  
BRANCH   4   5
HETATM    5  C   UNL     1     -10.287   8.193  71.161  1.00  0.00    -0.237 C  
HETATM    6  C   UNL     1     -10.463   6.666  70.969  1.00  0.00    -0.246 C  
HETATM    7  C   UNL     1      -9.911   6.197  69.625  1.00  0.00    -0.210 A  
HETATM    8  C   UNL     1      -9.890   5.911  72.171  1.00  0.00    -0.162 A  
HETATM    9  C   UNL     1      -8.557   6.358  69.292  1.00  0.00    -0.125 A  
HETATM   10  C   UNL     1     -10.411   4.667  72.528  1.00  0.00    -0.257 A  
HETATM   11  C   UNL     1      -9.966   4.060  73.701  1.00  0.00    -0.171 A  
HETATM   12  C   UNL     1      -8.097   6.050  68.008  1.00  0.00    -0.110 A  
HETATM   13  C   UNL     1      -9.011   4.698  74.482  1.00  0.00    -0.112 A  
HETATM   14  C   UNL     1      -8.985   5.563  67.051  1.00  0.00    -0.113 A  
HETATM   15  C   UNL     1      -8.518   5.912  74.043  1.00  0.00    -0.116 A  
HETATM   16  C   UNL     1     -10.323   5.357  67.374  1.00  0.00    -0.258 A  
HETATM   17 BR   UNL     1      -8.377   5.215  65.295  1.00  0.00    -0.145 Br 
HETATM   18  N   UNL     1      -8.925   6.521  72.909  1.00  0.00    -0.130 NA 
HETATM   19  C   UNL     1     -10.784   5.671  68.655  1.00  0.00    -0.249 A  
ENDBRANCH   4   5
ENDBRANCH   2   4
TORSDOF 2
ENDMDL
MODEL      138
REMARK 921   NORMALIZED FREE ENERGY PREDICTED BY IDOCK:   -3.14 KCAL/MOL
REMARK 922        TOTAL FREE ENERGY PREDICTED BY IDOCK:   -3.66 KCAL/MOL
REMARK 923 INTER-LIGAND FREE ENERGY PREDICTED BY IDOCK:   -3.52 KCAL/MOL
REMARK 924 INTRA-LIGAND FREE ENERGY PREDICTED BY IDOCK:   -0.15 KCAL/MOL
REMARK 927      BINDING AFFINITY PREDICTED BY RF-SCORE:    0.00 PKD
ROOT
HETATM    1  C   UNL     1      -9.270   9.454  65.831  1.00  0.00    -0.213 C  
HETATM    2  N   UNL     1      -9.654   9.754  67.213  1.00  0.00    -0.153 NA 
HETATM    3  C   UNL     1     -10.263  11.086  67.274  1.00  0.00    -0.199 C  
ENDROOT
BRANCH   2   4
HETATM    4  C   UNL     1     -10.604   8.763  67.752  1.00  0.00    -0.191 C  
BRANCH   4   5
HETATM    5  C   UNL     1     -10.435   7.337  67.211  1.00  0.00    -0.380 C  
HETATM    6  C   UNL     1      -9.259   6.537  67.824  1.00  0.00    -0.113 C  
HETATM    7  C   UNL     1      -9.445   6.315  69.323  1.00  0.00    -0.142 A  
HETATM    8  C   UNL     1      -9.026   5.247  67.033  1.00  0.00    -0.112 A  
HETATM    9  C   UNL     1     -10.548   5.608  69.828  1.00  0.00    -0.400 A  
HETATM   10  C   UNL     1      -7.754   4.677  66.984  1.00  0.00    -0.091 A  
HETATM   11  C   UNL     1      -7.536   3.581  66.151  1.00  0.00    -0.077 A  
HETATM   12  C   UNL     1     -10.776   5.533  71.206  1.00  0.00    -0.288 A  
HETATM   13  C   UNL     1      -8.587   3.075  65.397  1.00  0.00    -0.112 A  
HETATM   14  C   UNL     1      -9.895   6.151  72.090  1.00  0.00    -0.157 A  
HETATM   15  C   UNL     1      -9.827   3.672  65.526  1.00  0.00    -0.066 A  
HETATM   16  C   UNL     1      -8.773   6.821  71.611  1.00  0.00    -0.126 A  
HETATM   17 BR   UNL     1     -10.244   6.110  73.948  1.00  0.00    -0.319 Br 
HETATM   18  N   UNL     1     -10.069   4.731  66.329  1.00  0.00    -0.240 NA 
HETATM   19  C   UNL     1      -8.549   6.901  70.234  1.00  0.00    -0.140 A  
ENDBRANCH   4   5
ENDBRANCH   2   4
TORSDOF 2
ENDMDL
MODEL      139
REMARK 921   NORMALIZED FREE ENERGY PREDICTED BY IDOCK:   -3.07 KCAL/MOL
REMARK 922        TOTAL FREE ENERGY PREDICTED BY IDOCK:   -3.59 KCAL/MOL
REMARK 923 INTER-LIGAND FREE ENERGY PREDICTED BY IDOCK:   -3.41 KCAL/MOL
REMARK 924 INTRA-LIGAND FREE ENERGY PREDICTED BY IDOCK:   -0.18 KCAL/MOL
REMARK 927      BINDING AFFINITY PREDICTED BY RF-SCORE:    0.00 PKD
ROOT
HETATM    1  C   UNL     1     -10.944  11.110  66.041  1.00  0.00    -0.123 C  
HETATM    2  N   UNL     1      -9.974  11.381  67.104  1.00  0.00    -0.190 NA 
HETATM    3  C   UNL     1     -10.472  12.464  67.958  1.00  0.00    -0.217 C  
ENDROOT
BRANCH   2   4
HETATM    4  C   UNL     1      -9.715  10.190  67.935  1.00  0.00    -0.146 C  
BRANCH   4   5
HETATM    5  C   UNL     1     -10.601  10.059  69.180  1.00  0.00    -0.240 C  
HETATM    6  C   UNL     1     -10.981   8.608  69.566  1.00  0.00    -0.067 C  
HETATM    7  C   UNL     1      -9.753   7.778  69.931  1.00  0.00    -0.176 A  
HETATM    8  C   UNL     1     -12.066   8.614  70.647  1.00  0.00     0.029 A  
HETATM    9  C   UNL     1      -8.919   8.135  71.002  1.00  0.00    -0.173 A  
HETATM   10  C   UNL     1     -12.964   7.550  70.742  1.00  0.00     0.066 A  
HETATM   11  C   UNL     1     -14.023   7.638  71.644  1.00  0.00    -0.510 A  
HETATM   12  C   UNL     1      -7.725   7.445  71.236  1.00  0.00    -0.087 A  
HETATM   13  C   UNL     1     -14.158   8.775  72.431  1.00  0.00    -0.485 A  
HETATM   14  C   UNL     1      -7.364   6.383  70.410  1.00  0.00    -0.089 A  
HETATM   15  C   UNL     1     -13.209   9.771  72.304  1.00  0.00    -0.377 A  
HETATM   16  C   UNL     1      -8.198   5.988  69.368  1.00  0.00    -0.115 A  
HETATM   17 BR   UNL     1      -5.715   5.499  70.682  1.00  0.00    -0.017 Br 
HETATM   18  N   UNL     1     -12.169   9.710  71.444  1.00  0.00    -0.358 NA 
HETATM   19  C   UNL     1      -9.387   6.681  69.130  1.00  0.00    -0.134 A  
ENDBRANCH   4   5
ENDBRANCH   2   4
TORSDOF 2
ENDMDL
MODEL      140
REMARK 921   NORMALIZED FREE ENERGY PREDICTED BY IDOCK:   -3.07 KCAL/MOL
REMARK 922        TOTAL FREE ENERGY PREDICTED BY IDOCK:   -3.59 KCAL/MOL
REMARK 923 INTER-LIGAND FREE ENERGY PREDICTED BY IDOCK:   -3.43 KCAL/MOL
REMARK 924 INTRA-LIGAND FREE ENERGY PREDICTED BY IDOCK:   -0.16 KCAL/MOL
REMARK 927      BINDING AFFINITY PREDICTED BY RF-SCORE:    0.00 PKD
ROOT
HETATM    1  C   UNL     1      -7.901   8.694  71.192  1.00  0.00    -0.117 C  
HETATM    2  N   UNL     1      -7.219   9.936  70.818  1.00  0.00    -0.325 NA 
HETATM    3  C   UNL     1      -5.800   9.841  71.172  1.00  0.00    -0.071 C  
ENDROOT
BRANCH   2   4
HETATM    4  C   UNL     1      -7.339  10.221  69.376  1.00  0.00    -0.115 C  
BRANCH   4   5
HETATM    5  C   UNL     1      -8.664  10.866  68.947  1.00  0.00    -0.144 C  
HETATM    6  C   UNL     1      -8.691  11.411  67.498  1.00  0.00    -0.140 C  
HETATM    7  C   UNL     1      -8.503  10.298  66.469  1.00  0.00    -0.126 A  
HETATM    8  C   UNL     1      -9.948  12.255  67.272  1.00  0.00    -0.204 A  
HETATM    9  C   UNL     1      -9.406   9.228  66.374  1.00  0.00    -0.247 A  
HETATM   10  C   UNL     1      -9.938  13.288  66.335  1.00  0.00    -0.288 A  
HETATM   11  C   UNL     1     -11.048  14.127  66.241  1.00  0.00    -0.318 A  
HETATM   12  C   UNL     1      -9.145   8.148  65.524  1.00  0.00    -0.021 A  
HETATM   13  C   UNL     1     -12.139  13.912  67.073  1.00  0.00    -0.451 A  
HETATM   14  C   UNL     1      -7.987   8.138  64.751  1.00  0.00    -0.147 A  
HETATM   15  C   UNL     1     -12.088  12.847  67.951  1.00  0.00    -0.157 A  
HETATM   16  C   UNL     1      -7.099   9.210  64.800  1.00  0.00    -0.096 A  
HETATM   17 BR   UNL     1      -7.599   6.645  63.657  1.00  0.00    -0.104 Br 
HETATM   18  N   UNL     1     -11.030  12.014  68.059  1.00  0.00    -0.210 NA 
HETATM   19  C   UNL     1      -7.356  10.284  65.654  1.00  0.00    -0.149 A  
ENDBRANCH   4   5
ENDBRANCH   2   4
TORSDOF 2
ENDMDL
MODEL      141
REMARK 921   NORMALIZED FREE ENERGY PREDICTED BY IDOCK:   -3.06 KCAL/MOL
REMARK 922        TOTAL FREE ENERGY PREDICTED BY IDOCK:   -3.58 KCAL/MOL
REMARK 923 INTER-LIGAND FREE ENERGY PREDICTED BY IDOCK:   -3.37 KCAL/MOL
REMARK 924 INTRA-LIGAND FREE ENERGY PREDICTED BY IDOCK:   -0.21 KCAL/MOL
REMARK 927      BINDING AFFINITY PREDICTED BY RF-SCORE:    0.00 PKD
ROOT
HETATM    1  C   UNL     1     -10.669   6.534  66.926  1.00  0.00    -0.333 C  
HETATM    2  N   UNL     1      -9.677   7.389  67.582  1.00  0.00    -0.140 NA 
HETATM    3  C   UNL     1      -8.486   7.498  66.736  1.00  0.00    -0.124 C  
ENDROOT
BRANCH   2   4
HETATM    4  C   UNL     1     -10.202   8.741  67.853  1.00  0.00    -0.219 C  
BRANCH   4   5
HETATM    5  C   UNL     1     -10.548   9.567  66.607  1.00  0.00    -0.174 C  
HETATM    6  C   UNL     1     -10.654  11.094  66.840  1.00  0.00    -0.304 C  
HETATM    7  C   UNL     1      -9.323  11.693  67.289  1.00  0.00    -0.170 A  
HETATM    8  C   UNL     1     -11.255  11.778  65.609  1.00  0.00    -0.267 A  
HETATM    9  C   UNL     1      -8.177  11.619  66.481  1.00  0.00    -0.101 A  
HETATM   10  C   UNL     1     -11.974  12.965  65.750  1.00  0.00    -0.496 A  
HETATM   11  C   UNL     1     -12.625  13.497  64.638  1.00  0.00    -0.303 A  
HETATM   12  C   UNL     1      -6.936  12.048  66.964  1.00  0.00    -0.095 A  
HETATM   13  C   UNL     1     -12.536  12.843  63.416  1.00  0.00    -0.268 A  
HETATM   14  C   UNL     1      -6.835  12.568  68.251  1.00  0.00    -0.082 A  
HETATM   15  C   UNL     1     -11.776  11.691  63.348  1.00  0.00    -0.220 A  
HETATM   16  C   UNL     1      -7.967  12.688  69.053  1.00  0.00     0.301 A  
HETATM   17 BR   UNL     1      -5.145  13.080  68.929  1.00  0.00    -0.069 Br 
HETATM   18  N   UNL     1     -11.130  11.156  64.407  1.00  0.00    -0.215 NA 
HETATM   19  C   UNL     1      -9.205  12.253  68.573  1.00  0.00    -0.089 A  
ENDBRANCH   4   5
ENDBRANCH   2   4
TORSDOF 2
ENDMDL
MODEL      142
REMARK 921   NORMALIZED FREE ENERGY PREDICTED BY IDOCK:   -3.02 KCAL/MOL
REMARK 922        TOTAL FREE ENERGY PREDICTED BY IDOCK:   -3.54 KCAL/MOL
REMARK 923 INTER-LIGAND FREE ENERGY PREDICTED BY IDOCK:   -3.33 KCAL/MOL
REMARK 924 INTRA-LIGAND FREE ENERGY PREDICTED BY IDOCK:   -0.21 KCAL/MOL
REMARK 927      BINDING AFFINITY PREDICTED BY RF-SCORE:    0.00 PKD
ROOT
HETATM    1  C   UNL     1      -6.062   9.518  69.315  1.00  0.00    -0.037 C  
HETATM    2  N   UNL     1      -6.548   8.918  68.069  1.00  0.00    -0.060 NA 
HETATM    3  C   UNL     1      -5.626   9.241  66.977  1.00  0.00    -0.040 C  
ENDROOT
BRANCH   2   4
HETATM    4  C   UNL     1      -6.678   7.453  68.174  1.00  0.00    -0.055 C  
BRANCH   4   5
HETATM    5  C   UNL     1      -7.147   6.746  66.895  1.00  0.00    -0.075 C  
HETATM    6  C   UNL     1      -8.677   6.533  66.785  1.00  0.00    -0.123 C  
HETATM    7  C   UNL     1      -9.433   7.859  66.741  1.00  0.00    -0.257 A  
HETATM    8  C   UNL     1      -8.999   5.598  65.616  1.00  0.00    -0.131 A  
HETATM    9  C   UNL     1      -9.214   8.793  65.716  1.00  0.00    -0.269 A  
HETATM   10  C   UNL     1     -10.147   4.807  65.650  1.00  0.00    -0.198 A  
HETATM   11  C   UNL     1     -10.351   3.868  64.639  1.00  0.00    -0.213 A  
HETATM   12  C   UNL     1      -9.810  10.057  65.765  1.00  0.00    -0.345 A  
HETATM   13  C   UNL     1      -9.415   3.747  63.620  1.00  0.00    -0.141 A  
HETATM   14  C   UNL     1     -10.642  10.391  66.831  1.00  0.00    -0.230 A  
HETATM   15  C   UNL     1      -8.321   4.591  63.637  1.00  0.00    -0.109 A  
HETATM   16  C   UNL     1     -10.904   9.464  67.836  1.00  0.00    -0.215 A  
HETATM   17 BR   UNL     1     -11.389  12.125  66.934  1.00  0.00    -0.414 Br 
HETATM   18  N   UNL     1      -8.101   5.514  64.599  1.00  0.00    -0.122 NA 
HETATM   19  C   UNL     1     -10.304   8.204  67.790  1.00  0.00    -0.295 A  
ENDBRANCH   4   5
ENDBRANCH   2   4
TORSDOF 2
ENDMDL
MODEL      143
REMARK 921   NORMALIZED FREE ENERGY PREDICTED BY IDOCK:   -3.02 KCAL/MOL
REMARK 922        TOTAL FREE ENERGY PREDICTED BY IDOCK:   -3.53 KCAL/MOL
REMARK 923 INTER-LIGAND FREE ENERGY PREDICTED BY IDOCK:   -3.76 KCAL/MOL
REMARK 924 INTRA-LIGAND FREE ENERGY PREDICTED BY IDOCK:    0.23 KCAL/MOL
REMARK 927      BINDING AFFINITY PREDICTED BY RF-SCORE:    0.00 PKD
ROOT
HETATM    1  C   UNL     1     -10.783  15.980  67.692  1.00  0.00    -0.320 C  
HETATM    2  N   UNL     1      -9.609  15.165  67.368  1.00  0.00    -0.207 NA 
HETATM    3  C   UNL     1      -8.841  15.815  66.303  1.00  0.00    -0.343 C  
ENDROOT
BRANCH   2   4
HETATM    4  C   UNL     1      -8.736  14.962  68.539  1.00  0.00    -0.172 C  
BRANCH   4   5
HETATM    5  C   UNL     1      -7.940  13.650  68.539  1.00  0.00    -0.127 C  
HETATM    6  C   UNL     1      -8.794  12.364  68.655  1.00  0.00     0.035 C  
HETATM    7  C   UNL     1      -9.731  12.196  67.461  1.00  0.00    -0.185 A  
HETATM    8  C   UNL     1      -7.894  11.151  68.909  1.00  0.00    -0.131 A  
HETATM    9  C   UNL     1      -9.237  12.078  66.152  1.00  0.00    -0.181 A  
HETATM   10  C   UNL     1      -8.388  10.048  69.606  1.00  0.00    -0.188 A  
HETATM   11  C   UNL     1      -7.514   9.015  69.942  1.00  0.00    -0.065 A  
HETATM   12  C   UNL     1     -10.110  12.064  65.060  1.00  0.00    -0.293 A  
HETATM   13  C   UNL     1      -6.179   9.100  69.570  1.00  0.00    -0.040 A  
HETATM   14  C   UNL     1     -11.484  12.152  65.268  1.00  0.00    -0.336 A  
HETATM   15  C   UNL     1      -5.773  10.209  68.851  1.00  0.00    -0.034 A  
HETATM   16  C   UNL     1     -11.996  12.228  66.561  1.00  0.00    -0.274 A  
HETATM   17 BR   UNL     1     -12.659  12.207  63.787  1.00  0.00    -0.523 Br 
HETATM   18  N   UNL     1      -6.597  11.221  68.506  1.00  0.00    -0.058 NA 
HETATM   19  C   UNL     1     -11.124  12.248  67.652  1.00  0.00    -0.318 A  
ENDBRANCH   4   5
ENDBRANCH   2   4
TORSDOF 2
ENDMDL
MODEL      144
REMARK 921   NORMALIZED FREE ENERGY PREDICTED BY IDOCK:   -3.00 KCAL/MOL
REMARK 922        TOTAL FREE ENERGY PREDICTED BY IDOCK:   -3.50 KCAL/MOL
REMARK 923 INTER-LIGAND FREE ENERGY PREDICTED BY IDOCK:   -3.22 KCAL/MOL
REMARK 924 INTRA-LIGAND FREE ENERGY PREDICTED BY IDOCK:   -0.28 KCAL/MOL
REMARK 927      BINDING AFFINITY PREDICTED BY RF-SCORE:    0.00 PKD
ROOT
HETATM    1  C   UNL     1     -11.649  14.298  64.751  1.00  0.00    -0.401 C  
HETATM    2  N   UNL     1     -11.944  12.957  65.264  1.00  0.00    -0.391 NA 
HETATM    3  C   UNL     1     -11.385  11.952  64.356  1.00  0.00    -0.326 C  
ENDROOT
BRANCH   2   4
HETATM    4  C   UNL     1     -11.392  12.748  66.616  1.00  0.00    -0.316 C  
BRANCH   4   5
HETATM    5  C   UNL     1     -10.000  13.348  66.852  1.00  0.00    -0.252 C  
HETATM    6  C   UNL     1      -9.052  12.484  67.720  1.00  0.00    -0.191 C  
HETATM    7  C   UNL     1      -8.739  11.145  67.058  1.00  0.00    -0.148 A  
HETATM    8  C   UNL     1      -7.807  13.289  68.105  1.00  0.00    -0.145 A  
HETATM    9  C   UNL     1      -8.103  11.075  65.809  1.00  0.00    -0.038 A  
HETATM   10  C   UNL     1      -7.127  13.000  69.289  1.00  0.00     0.097 A  
HETATM   11  C   UNL     1      -6.078  13.829  69.685  1.00  0.00    -0.118 A  
HETATM   12  C   UNL     1      -7.949   9.849  65.155  1.00  0.00    -0.139 A  
HETATM   13  C   UNL     1      -5.729  14.915  68.893  1.00  0.00    -0.086 A  
HETATM   14  C   UNL     1      -8.416   8.680  65.752  1.00  0.00    -0.151 A  
HETATM   15  C   UNL     1      -6.428  15.116  67.718  1.00  0.00    -0.161 A  
HETATM   16  C   UNL     1      -9.012   8.723  67.009  1.00  0.00    -0.151 A  
HETATM   17 BR   UNL     1      -8.273   7.033  64.835  1.00  0.00    -0.025 Br 
HETATM   18  N   UNL     1      -7.442  14.326  67.305  1.00  0.00    -0.134 NA 
HETATM   19  C   UNL     1      -9.172   9.949  67.659  1.00  0.00    -0.146 A  
ENDBRANCH   4   5
ENDBRANCH   2   4
TORSDOF 2
ENDMDL
MODEL      145
REMARK 921   NORMALIZED FREE ENERGY PREDICTED BY IDOCK:   -2.85 KCAL/MOL
REMARK 922        TOTAL FREE ENERGY PREDICTED BY IDOCK:   -3.34 KCAL/MOL
REMARK 923 INTER-LIGAND FREE ENERGY PREDICTED BY IDOCK:   -3.14 KCAL/MOL
REMARK 924 INTRA-LIGAND FREE ENERGY PREDICTED BY IDOCK:   -0.20 KCAL/MOL
REMARK 927      BINDING AFFINITY PREDICTED BY RF-SCORE:    0.00 PKD
ROOT
HETATM    1  C   UNL     1     -13.112   8.380  71.212  1.00  0.00    -0.142 C  
HETATM    2  N   UNL     1     -12.038   8.969  72.017  1.00  0.00    -0.370 NA 
HETATM    3  C   UNL     1     -11.390   7.922  72.810  1.00  0.00    -0.393 C  
ENDROOT
BRANCH   2   4
HETATM    4  C   UNL     1     -11.025   9.640  71.181  1.00  0.00    -0.360 C  
BRANCH   4   5
HETATM    5  C   UNL     1      -9.717   8.862  70.992  1.00  0.00    -0.320 C  
HETATM    6  C   UNL     1      -9.265   8.684  69.522  1.00  0.00    -0.150 C  
HETATM    7  C   UNL     1      -8.966  10.024  68.854  1.00  0.00    -0.152 A  
HETATM    8  C   UNL     1      -8.110   7.682  69.440  1.00  0.00    -0.127 A  
HETATM    9  C   UNL     1      -7.967  10.880  69.343  1.00  0.00    -0.027 A  
HETATM   10  C   UNL     1      -7.922   6.925  68.283  1.00  0.00    -0.119 A  
HETATM   11  C   UNL     1      -6.949   5.926  68.279  1.00  0.00    -0.072 A  
HETATM   12  C   UNL     1      -7.800  12.161  68.806  1.00  0.00    -0.017 A  
HETATM   13  C   UNL     1      -6.185   5.711  69.420  1.00  0.00    -0.032 A  
HETATM   14  C   UNL     1      -8.621  12.589  67.765  1.00  0.00    -0.178 A  
HETATM   15  C   UNL     1      -6.408   6.525  70.515  1.00  0.00    -0.040 A  
HETATM   16  C   UNL     1      -9.589  11.739  67.238  1.00  0.00    -0.182 A  
HETATM   17 BR   UNL     1      -8.443  14.345  67.088  1.00  0.00    -0.209 Br 
HETATM   18  N   UNL     1      -7.338   7.504  70.545  1.00  0.00    -0.074 NA 
HETATM   19  C   UNL     1      -9.760  10.462  67.779  1.00  0.00    -0.181 A  
ENDBRANCH   4   5
ENDBRANCH   2   4
TORSDOF 2
ENDMDL
MODEL      146
REMARK 921   NORMALIZED FREE ENERGY PREDICTED BY IDOCK:   -2.80 KCAL/MOL
REMARK 922        TOTAL FREE ENERGY PREDICTED BY IDOCK:   -3.29 KCAL/MOL
REMARK 923 INTER-LIGAND FREE ENERGY PREDICTED BY IDOCK:   -3.08 KCAL/MOL
REMARK 924 INTRA-LIGAND FREE ENERGY PREDICTED BY IDOCK:   -0.21 KCAL/MOL
REMARK 927      BINDING AFFINITY PREDICTED BY RF-SCORE:    0.00 PKD
ROOT
HETATM    1  C   UNL     1     -12.731  15.246  69.725  1.00  0.00    -0.020 C  
HETATM    2  N   UNL     1     -11.547  14.757  69.013  1.00  0.00    -0.281 NA 
HETATM    3  C   UNL     1     -11.834  14.682  67.578  1.00  0.00    -0.347 C  
ENDROOT
BRANCH   2   4
HETATM    4  C   UNL     1     -10.375  15.626  69.227  1.00  0.00    -0.250 C  
BRANCH   4   5
HETATM    5  C   UNL     1      -9.056  14.888  69.492  1.00  0.00     0.018 C  
HETATM    6  C   UNL     1      -8.155  14.685  68.249  1.00  0.00    -0.143 C  
HETATM    7  C   UNL     1      -7.691  16.016  67.662  1.00  0.00    -0.165 A  
HETATM    8  C   UNL     1      -7.011  13.721  68.575  1.00  0.00    -0.103 A  
HETATM    9  C   UNL     1      -6.921  16.919  68.411  1.00  0.00    -0.173 A  
HETATM   10  C   UNL     1      -6.446  12.941  67.566  1.00  0.00    -0.162 A  
HETATM   11  C   UNL     1      -5.500  11.976  67.908  1.00  0.00    -0.060 A  
HETATM   12  C   UNL     1      -6.622  18.189  67.908  1.00  0.00    -0.195 A  
HETATM   13  C   UNL     1      -5.135  11.818  69.239  1.00  0.00    -0.052 A  
HETATM   14  C   UNL     1      -7.078  18.561  66.646  1.00  0.00    -0.208 A  
HETATM   15  C   UNL     1      -5.714  12.653  70.176  1.00  0.00    -0.154 A  
HETATM   16  C   UNL     1      -7.808  17.664  65.870  1.00  0.00    -0.109 A  
HETATM   17 BR   UNL     1      -6.735  20.303  65.997  1.00  0.00    -0.285 Br 
HETATM   18  N   UNL     1      -6.627  13.600  69.873  1.00  0.00    -0.031 NA 
HETATM   19  C   UNL     1      -8.112  16.398  66.375  1.00  0.00    -0.357 A  
ENDBRANCH   4   5
ENDBRANCH   2   4
TORSDOF 2
ENDMDL
MODEL      147
REMARK 921   NORMALIZED FREE ENERGY PREDICTED BY IDOCK:   -2.77 KCAL/MOL
REMARK 922        TOTAL FREE ENERGY PREDICTED BY IDOCK:   -3.25 KCAL/MOL
REMARK 923 INTER-LIGAND FREE ENERGY PREDICTED BY IDOCK:   -3.08 KCAL/MOL
REMARK 924 INTRA-LIGAND FREE ENERGY PREDICTED BY IDOCK:   -0.17 KCAL/MOL
REMARK 927      BINDING AFFINITY PREDICTED BY RF-SCORE:    0.00 PKD
ROOT
HETATM    1  C   UNL     1      -8.529  19.036  67.522  1.00  0.00    -0.282 C  
HETATM    2  N   UNL     1      -9.962  18.750  67.414  1.00  0.00    -0.321 NA 
HETATM    3  C   UNL     1     -10.521  19.469  66.266  1.00  0.00    -0.512 C  
ENDROOT
BRANCH   2   4
HETATM    4  C   UNL     1     -10.229  17.308  67.258  1.00  0.00    -0.320 C  
BRANCH   4   5
HETATM    5  C   UNL     1      -8.991  16.404  67.325  1.00  0.00    -0.208 C  
HETATM    6  C   UNL     1      -9.244  14.984  67.889  1.00  0.00    -0.182 C  
HETATM    7  C   UNL     1     -10.202  14.186  67.008  1.00  0.00    -0.260 A  
HETATM    8  C   UNL     1      -7.913  14.275  68.154  1.00  0.00    -0.140 A  
HETATM    9  C   UNL     1      -9.898  13.897  65.668  1.00  0.00    -0.231 A  
HETATM   10  C   UNL     1      -7.826  13.301  69.150  1.00  0.00     0.345 A  
HETATM   11  C   UNL     1      -6.578  12.765  69.464  1.00  0.00    -0.031 A  
HETATM   12  C   UNL     1     -10.844  13.287  64.838  1.00  0.00    -0.358 A  
HETATM   13  C   UNL     1      -5.453  13.203  68.776  1.00  0.00    -0.073 A  
HETATM   14  C   UNL     1     -12.096  12.948  65.345  1.00  0.00    -0.454 A  
HETATM   15  C   UNL     1      -5.625  14.145  67.780  1.00  0.00    -0.039 A  
HETATM   16  C   UNL     1     -12.402  13.189  66.682  1.00  0.00    -0.207 A  
HETATM   17 BR   UNL     1     -13.399  12.191  64.204  1.00  0.00     0.812 Br 
HETATM   18  N   UNL     1      -6.822  14.677  67.450  1.00  0.00    -0.261 NA 
HETATM   19  C   UNL     1     -11.460  13.804  67.509  1.00  0.00    -0.359 A  
ENDBRANCH   4   5
ENDBRANCH   2   4
TORSDOF 2
ENDMDL
MODEL      148
REMARK 921   NORMALIZED FREE ENERGY PREDICTED BY IDOCK:   -2.76 KCAL/MOL
REMARK 922        TOTAL FREE ENERGY PREDICTED BY IDOCK:   -3.24 KCAL/MOL
REMARK 923 INTER-LIGAND FREE ENERGY PREDICTED BY IDOCK:   -3.07 KCAL/MOL
REMARK 924 INTRA-LIGAND FREE ENERGY PREDICTED BY IDOCK:   -0.17 KCAL/MOL
REMARK 927      BINDING AFFINITY PREDICTED BY RF-SCORE:    0.00 PKD
ROOT
HETATM    1  C   UNL     1      -6.630   9.681  69.933  1.00  0.00    -0.065 C  
HETATM    2  N   UNL     1      -7.275   8.717  69.037  1.00  0.00    -0.071 NA 
HETATM    3  C   UNL     1      -6.538   8.655  67.772  1.00  0.00    -0.062 C  
ENDROOT
BRANCH   2   4
HETATM    4  C   UNL     1      -7.335   7.367  69.628  1.00  0.00    -0.091 C  
BRANCH   4   5
HETATM    5  C   UNL     1      -7.757   6.251  68.663  1.00  0.00    -0.101 C  
HETATM    6  C   UNL     1      -8.573   5.102  69.304  1.00  0.00    -0.100 C  
HETATM    7  C   UNL     1      -9.906   5.595  69.861  1.00  0.00    -0.250 A  
HETATM    8  C   UNL     1      -8.708   3.935  68.322  1.00  0.00    -0.101 A  
HETATM    9  C   UNL     1     -10.873   6.186  69.033  1.00  0.00    -0.416 A  
HETATM   10  C   UNL     1      -8.852   2.633  68.799  1.00  0.00    -0.154 A  
HETATM   11  C   UNL     1      -8.839   1.574  67.891  1.00  0.00    -0.139 A  
HETATM   12  C   UNL     1     -12.028   6.756  69.579  1.00  0.00     0.226 A  
HETATM   13  C   UNL     1      -8.691   1.839  66.536  1.00  0.00    -0.119 A  
HETATM   14  C   UNL     1     -12.231   6.726  70.957  1.00  0.00    -0.352 A  
HETATM   15  C   UNL     1      -8.588   3.158  66.137  1.00  0.00    -0.119 A  
HETATM   16  C   UNL     1     -11.304   6.108  71.791  1.00  0.00    -0.346 A  
HETATM   17 BR   UNL     1     -13.756   7.561  71.701  1.00  0.00    -0.436 Br 
HETATM   18  N   UNL     1      -8.605   4.203  66.993  1.00  0.00    -0.104 NA 
HETATM   19  C   UNL     1     -10.148   5.544  71.246  1.00  0.00    -0.266 A  
ENDBRANCH   4   5
ENDBRANCH   2   4
TORSDOF 2
ENDMDL
MODEL      149
REMARK 921   NORMALIZED FREE ENERGY PREDICTED BY IDOCK:   -2.76 KCAL/MOL
REMARK 922        TOTAL FREE ENERGY PREDICTED BY IDOCK:   -3.24 KCAL/MOL
REMARK 923 INTER-LIGAND FREE ENERGY PREDICTED BY IDOCK:   -3.68 KCAL/MOL
REMARK 924 INTRA-LIGAND FREE ENERGY PREDICTED BY IDOCK:    0.44 KCAL/MOL
REMARK 927      BINDING AFFINITY PREDICTED BY RF-SCORE:    0.00 PKD
ROOT
HETATM    1  C   UNL     1      -6.634   5.722  73.580  1.00  0.00    -0.074 C  
HETATM    2  N   UNL     1      -7.945   5.081  73.442  1.00  0.00    -0.103 NA 
HETATM    3  C   UNL     1      -8.945   5.846  74.191  1.00  0.00    -0.123 C  
ENDROOT
BRANCH   2   4
HETATM    4  C   UNL     1      -8.367   4.983  72.032  1.00  0.00    -0.124 C  
BRANCH   4   5
HETATM    5  C   UNL     1      -9.753   5.565  71.725  1.00  0.00    -0.202 C  
HETATM    6  C   UNL     1      -9.859   7.106  71.838  1.00  0.00    -0.172 C  
HETATM    7  C   UNL     1      -8.959   7.812  70.827  1.00  0.00    -0.148 A  
HETATM    8  C   UNL     1     -11.325   7.543  71.772  1.00  0.00    -0.254 A  
HETATM    9  C   UNL     1      -9.125   7.628  69.445  1.00  0.00    -0.142 A  
HETATM   10  C   UNL     1     -11.734   8.715  72.408  1.00  0.00    -0.393 A  
HETATM   11  C   UNL     1     -13.093   9.023  72.448  1.00  0.00    -0.487 A  
HETATM   12  C   UNL     1      -8.209   8.172  68.539  1.00  0.00    -0.125 A  
HETATM   13  C   UNL     1     -14.007   8.165  71.849  1.00  0.00    -0.451 A  
HETATM   14  C   UNL     1      -7.127   8.915  69.007  1.00  0.00    -0.064 A  
HETATM   15  C   UNL     1     -13.521   7.041  71.209  1.00  0.00    -0.172 A  
HETATM   16  C   UNL     1      -6.969   9.143  70.371  1.00  0.00    -0.071 A  
HETATM   17 BR   UNL     1      -5.849   9.586  67.786  1.00  0.00    -0.044 Br 
HETATM   18  N   UNL     1     -12.210   6.721  71.148  1.00  0.00    -0.375 NA 
HETATM   19  C   UNL     1      -7.881   8.595  71.276  1.00  0.00    -0.156 A  
ENDBRANCH   4   5
ENDBRANCH   2   4
TORSDOF 2
ENDMDL
MODEL      150
REMARK 921   NORMALIZED FREE ENERGY PREDICTED BY IDOCK:   -2.70 KCAL/MOL
REMARK 922        TOTAL FREE ENERGY PREDICTED BY IDOCK:   -3.17 KCAL/MOL
REMARK 923 INTER-LIGAND FREE ENERGY PREDICTED BY IDOCK:   -2.95 KCAL/MOL
REMARK 924 INTRA-LIGAND FREE ENERGY PREDICTED BY IDOCK:   -0.22 KCAL/MOL
REMARK 927      BINDING AFFINITY PREDICTED BY RF-SCORE:    0.00 PKD
ROOT
HETATM    1  C   UNL     1      -6.497  12.851  69.301  1.00  0.00    -0.104 C  
HETATM    2  N   UNL     1      -6.283  11.531  68.702  1.00  0.00    -0.050 NA 
HETATM    3  C   UNL     1      -5.507  10.695  69.623  1.00  0.00    -0.039 C  
ENDROOT
BRANCH   2   4
HETATM    4  C   UNL     1      -7.553  10.852  68.386  1.00  0.00    -0.104 C  
BRANCH   4   5
HETATM    5  C   UNL     1      -8.195  10.093  69.554  1.00  0.00    -0.176 C  
HETATM    6  C   UNL     1      -9.164   8.956  69.146  1.00  0.00    -0.144 C  
HETATM    7  C   UNL     1      -8.449   7.852  68.372  1.00  0.00    -0.128 A  
HETATM    8  C   UNL     1      -9.936   8.453  70.369  1.00  0.00    -0.185 A  
HETATM    9  C   UNL     1      -7.396   7.120  68.943  1.00  0.00    -0.093 A  
HETATM   10  C   UNL     1     -11.209   7.903  70.214  1.00  0.00    -0.206 A  
HETATM   11  C   UNL     1     -11.946   7.575  71.351  1.00  0.00    -0.336 A  
HETATM   12  C   UNL     1      -6.662   6.209  68.176  1.00  0.00    -0.064 A  
HETATM   13  C   UNL     1     -11.397   7.793  72.608  1.00  0.00    -0.449 A  
HETATM   14  C   UNL     1      -6.985   6.013  66.835  1.00  0.00    -0.068 A  
HETATM   15  C   UNL     1     -10.117   8.309  72.679  1.00  0.00    -0.295 A  
HETATM   16  C   UNL     1      -8.052   6.698  66.261  1.00  0.00    -0.115 A  
HETATM   17 BR   UNL     1      -5.946   4.837  65.780  1.00  0.00    -0.023 Br 
HETATM   18  N   UNL     1      -9.377   8.630  71.595  1.00  0.00    -0.239 NA 
HETATM   19  C   UNL     1      -8.780   7.612  67.026  1.00  0.00    -0.127 A  
ENDBRANCH   4   5
ENDBRANCH   2   4
TORSDOF 2
ENDMDL
MODEL      151
REMARK 921   NORMALIZED FREE ENERGY PREDICTED BY IDOCK:   -2.68 KCAL/MOL
REMARK 922        TOTAL FREE ENERGY PREDICTED BY IDOCK:   -3.15 KCAL/MOL
REMARK 923 INTER-LIGAND FREE ENERGY PREDICTED BY IDOCK:   -3.00 KCAL/MOL
REMARK 924 INTRA-LIGAND FREE ENERGY PREDICTED BY IDOCK:   -0.16 KCAL/MOL
REMARK 927      BINDING AFFINITY PREDICTED BY RF-SCORE:    0.00 PKD
ROOT
HETATM    1  C   UNL     1      -5.951  21.159  64.918  1.00  0.00    -0.177 C  
HETATM    2  N   UNL     1      -6.523  20.113  64.067  1.00  0.00    -0.235 NA 
HETATM    3  C   UNL     1      -5.755  20.020  62.822  1.00  0.00    -0.258 C  
ENDROOT
BRANCH   2   4
HETATM    4  C   UNL     1      -6.527  18.797  64.733  1.00  0.00     0.138 C  
BRANCH   4   5
HETATM    5  C   UNL     1      -6.150  18.818  66.219  1.00  0.00    -0.197 C  
HETATM    6  C   UNL     1      -7.345  18.748  67.202  1.00  0.00    -0.222 C  
HETATM    7  C   UNL     1      -8.118  17.439  67.063  1.00  0.00    -0.240 A  
HETATM    8  C   UNL     1      -6.875  19.040  68.630  1.00  0.00    -0.281 A  
HETATM    9  C   UNL     1      -7.505  16.198  67.293  1.00  0.00    -0.219 A  
HETATM   10  C   UNL     1      -7.756  19.602  69.554  1.00  0.00     0.036 A  
HETATM   11  C   UNL     1      -7.271  19.982  70.805  1.00  0.00     0.695 A  
HETATM   12  C   UNL     1      -8.187  15.006  67.028  1.00  0.00    -0.246 A  
HETATM   13  C   UNL     1      -5.929  19.785  71.107  1.00  0.00    -0.210 A  
HETATM   14  C   UNL     1      -9.493  15.046  66.545  1.00  0.00    -0.282 A  
HETATM   15  C   UNL     1      -5.128  19.191  70.151  1.00  0.00    -0.202 A  
HETATM   16  C   UNL     1     -10.133  16.267  66.350  1.00  0.00    -0.318 A  
HETATM   17 BR   UNL     1     -10.387  13.436  66.118  1.00  0.00    -0.300 Br 
HETATM   18  N   UNL     1      -5.571  18.807  68.934  1.00  0.00    -0.194 NA 
HETATM   19  C   UNL     1      -9.449  17.457  66.609  1.00  0.00    -0.285 A  
ENDBRANCH   4   5
ENDBRANCH   2   4
TORSDOF 2
ENDMDL
MODEL      152
REMARK 921   NORMALIZED FREE ENERGY PREDICTED BY IDOCK:   -2.67 KCAL/MOL
REMARK 922        TOTAL FREE ENERGY PREDICTED BY IDOCK:   -3.14 KCAL/MOL
REMARK 923 INTER-LIGAND FREE ENERGY PREDICTED BY IDOCK:   -2.87 KCAL/MOL
REMARK 924 INTRA-LIGAND FREE ENERGY PREDICTED BY IDOCK:   -0.27 KCAL/MOL
REMARK 927      BINDING AFFINITY PREDICTED BY RF-SCORE:    0.00 PKD
ROOT
HETATM    1  C   UNL     1      -6.445   3.086  71.855  1.00  0.00    -0.015 C  
HETATM    2  N   UNL     1      -7.866   3.418  71.997  1.00  0.00    -0.058 NA 
HETATM    3  C   UNL     1      -8.002   4.685  72.721  1.00  0.00    -0.096 C  
ENDROOT
BRANCH   2   4
HETATM    4  C   UNL     1      -8.542   3.531  70.692  1.00  0.00    -0.070 C  
BRANCH   4   5
HETATM    5  C   UNL     1      -7.849   4.448  69.676  1.00  0.00    -0.057 C  
HETATM    6  C   UNL     1      -8.802   5.207  68.719  1.00  0.00    -0.105 C  
HETATM    7  C   UNL     1      -9.719   6.166  69.476  1.00  0.00    -0.175 A  
HETATM    8  C   UNL     1      -8.004   5.873  67.595  1.00  0.00    -0.102 A  
HETATM    9  C   UNL     1      -9.202   7.223  70.242  1.00  0.00    -0.155 A  
HETATM   10  C   UNL     1      -8.598   6.094  66.352  1.00  0.00    -0.131 A  
HETATM   11  C   UNL     1      -7.815   6.578  65.305  1.00  0.00    -0.109 A  
HETATM   12  C   UNL     1     -10.046   8.004  71.037  1.00  0.00    -0.213 A  
HETATM   13  C   UNL     1      -6.468   6.838  65.522  1.00  0.00    -0.050 A  
HETATM   14  C   UNL     1     -11.414   7.745  71.061  1.00  0.00    -0.281 A  
HETATM   15  C   UNL     1      -5.961   6.627  66.790  1.00  0.00    -0.022 A  
HETATM   16  C   UNL     1     -11.951   6.728  70.276  1.00  0.00    -0.294 A  
HETATM   17 BR   UNL     1     -12.543   8.756  72.192  1.00  0.00    -0.475 Br 
HETATM   18  N   UNL     1      -6.696   6.165  67.825  1.00  0.00    -0.059 NA 
HETATM   19  C   UNL     1     -11.108   5.943  69.487  1.00  0.00    -0.403 A  
ENDBRANCH   4   5
ENDBRANCH   2   4
TORSDOF 2
ENDMDL
MODEL      153
REMARK 921   NORMALIZED FREE ENERGY PREDICTED BY IDOCK:   -2.66 KCAL/MOL
REMARK 922        TOTAL FREE ENERGY PREDICTED BY IDOCK:   -3.13 KCAL/MOL
REMARK 923 INTER-LIGAND FREE ENERGY PREDICTED BY IDOCK:   -2.71 KCAL/MOL
REMARK 924 INTRA-LIGAND FREE ENERGY PREDICTED BY IDOCK:   -0.42 KCAL/MOL
REMARK 927      BINDING AFFINITY PREDICTED BY RF-SCORE:    0.00 PKD
ROOT
HETATM    1  C   UNL     1     -10.907   8.219  69.446  1.00  0.00    -0.084 C  
HETATM    2  N   UNL     1      -9.670   8.820  69.951  1.00  0.00    -0.174 NA 
HETATM    3  C   UNL     1      -9.562   8.583  71.393  1.00  0.00    -0.215 C  
ENDROOT
BRANCH   2   4
HETATM    4  C   UNL     1      -8.475   8.274  69.280  1.00  0.00    -0.126 C  
BRANCH   4   5
HETATM    5  C   UNL     1      -8.729   7.049  68.392  1.00  0.00    -0.125 C  
HETATM    6  C   UNL     1      -8.044   5.742  68.862  1.00  0.00    -0.102 C  
HETATM    7  C   UNL     1      -8.562   5.289  70.225  1.00  0.00    -0.126 A  
HETATM    8  C   UNL     1      -8.146   4.670  67.774  1.00  0.00    -0.096 A  
HETATM    9  C   UNL     1      -9.915   4.976  70.427  1.00  0.00    -0.317 A  
HETATM   10  C   UNL     1      -7.172   3.676  67.679  1.00  0.00    -0.059 A  
HETATM   11  C   UNL     1      -7.211   2.791  66.602  1.00  0.00    -0.065 A  
HETATM   12  C   UNL     1     -10.397   4.696  71.710  1.00  0.00    -0.208 A  
HETATM   13  C   UNL     1      -8.221   2.911  65.656  1.00  0.00    -0.089 A  
HETATM   14  C   UNL     1      -9.528   4.714  72.798  1.00  0.00    -0.132 A  
HETATM   15  C   UNL     1      -9.169   3.899  65.838  1.00  0.00    -0.155 A  
HETATM   16  C   UNL     1      -8.174   4.983  72.612  1.00  0.00    -0.112 A  
HETATM   17 BR   UNL     1     -10.195   4.409  74.541  1.00  0.00    -0.303 Br 
HETATM   18  N   UNL     1      -9.160   4.766  66.874  1.00  0.00    -0.114 NA 
HETATM   19  C   UNL     1      -7.694   5.268  71.332  1.00  0.00    -0.106 A  
ENDBRANCH   4   5
ENDBRANCH   2   4
TORSDOF 2
ENDMDL
MODEL      154
REMARK 921   NORMALIZED FREE ENERGY PREDICTED BY IDOCK:   -2.65 KCAL/MOL
REMARK 922        TOTAL FREE ENERGY PREDICTED BY IDOCK:   -3.12 KCAL/MOL
REMARK 923 INTER-LIGAND FREE ENERGY PREDICTED BY IDOCK:   -2.88 KCAL/MOL
REMARK 924 INTRA-LIGAND FREE ENERGY PREDICTED BY IDOCK:   -0.25 KCAL/MOL
REMARK 927      BINDING AFFINITY PREDICTED BY RF-SCORE:    0.00 PKD
ROOT
HETATM    1  C   UNL     1      -7.204   5.362  70.305  1.00  0.00    -0.066 C  
HETATM    2  N   UNL     1      -6.324   5.028  69.182  1.00  0.00    -0.030 NA 
HETATM    3  C   UNL     1      -6.690   3.713  68.648  1.00  0.00    -0.045 C  
ENDROOT
BRANCH   2   4
HETATM    4  C   UNL     1      -6.402   6.028  68.101  1.00  0.00    -0.044 C  
BRANCH   4   5
HETATM    5  C   UNL     1      -7.599   6.984  68.182  1.00  0.00    -0.108 C  
HETATM    6  C   UNL     1      -8.212   7.386  66.818  1.00  0.00    -0.121 C  
HETATM    7  C   UNL     1      -8.786   6.180  66.077  1.00  0.00    -0.160 A  
HETATM    8  C   UNL     1      -9.212   8.531  67.002  1.00  0.00    -0.152 A  
HETATM    9  C   UNL     1      -9.823   5.409  66.626  1.00  0.00    -0.193 A  
HETATM   10  C   UNL     1      -9.442   9.432  65.963  1.00  0.00    -0.304 A  
HETATM   11  C   UNL     1     -10.253  10.542  66.197  1.00  0.00    -0.299 A  
HETATM   12  C   UNL     1     -10.242   4.230  66.001  1.00  0.00    -0.183 A  
HETATM   13  C   UNL     1     -10.819  10.722  67.453  1.00  0.00    -0.345 A  
HETATM   14  C   UNL     1      -9.638   3.822  64.814  1.00  0.00    -0.174 A  
HETATM   15  C   UNL     1     -10.571   9.767  68.421  1.00  0.00    -0.226 A  
HETATM   16  C   UNL     1      -8.637   4.594  64.233  1.00  0.00    -0.139 A  
HETATM   17 BR   UNL     1     -10.155   2.191  64.009  1.00  0.00     0.009 Br 
HETATM   18  N   UNL     1      -9.796   8.680  68.221  1.00  0.00    -0.160 NA 
HETATM   19  C   UNL     1      -8.214   5.768  64.860  1.00  0.00    -0.137 A  
ENDBRANCH   4   5
ENDBRANCH   2   4
TORSDOF 2
ENDMDL
MODEL      155
REMARK 921   NORMALIZED FREE ENERGY PREDICTED BY IDOCK:   -2.58 KCAL/MOL
REMARK 922        TOTAL FREE ENERGY PREDICTED BY IDOCK:   -3.04 KCAL/MOL
REMARK 923 INTER-LIGAND FREE ENERGY PREDICTED BY IDOCK:   -2.84 KCAL/MOL
REMARK 924 INTRA-LIGAND FREE ENERGY PREDICTED BY IDOCK:   -0.20 KCAL/MOL
REMARK 927      BINDING AFFINITY PREDICTED BY RF-SCORE:    0.00 PKD
ROOT
HETATM    1  C   UNL     1     -11.943  12.169  68.752  1.00  0.00    -0.239 C  
HETATM    2  N   UNL     1     -11.644  11.880  67.347  1.00  0.00    -0.490 NA 
HETATM    3  C   UNL     1     -11.880  13.080  66.539  1.00  0.00    -0.403 C  
ENDROOT
BRANCH   2   4
HETATM    4  C   UNL     1     -10.251  11.436  67.156  1.00  0.00    -0.202 C  
BRANCH   4   5
HETATM    5  C   UNL     1      -9.196  12.547  67.229  1.00  0.00    -0.190 C  
HETATM    6  C   UNL     1      -8.247  12.473  68.451  1.00  0.00    -0.136 C  
HETATM    7  C   UNL     1      -7.403  11.200  68.437  1.00  0.00    -0.094 A  
HETATM    8  C   UNL     1      -7.424  13.759  68.562  1.00  0.00    -0.119 A  
HETATM    9  C   UNL     1      -6.516  10.921  67.386  1.00  0.00    -0.065 A  
HETATM   10  C   UNL     1      -6.968  14.192  69.807  1.00  0.00     0.041 A  
HETATM   11  C   UNL     1      -6.337  15.432  69.902  1.00  0.00    -0.158 A  
HETATM   12  C   UNL     1      -5.855   9.690  67.320  1.00  0.00    -0.051 A  
HETATM   13  C   UNL     1      -6.168  16.202  68.758  1.00  0.00    -0.117 A  
HETATM   14  C   UNL     1      -6.065   8.735  68.312  1.00  0.00    -0.050 A  
HETATM   15  C   UNL     1      -6.615  15.689  67.556  1.00  0.00    -0.182 A  
HETATM   16  C   UNL     1      -6.909   9.010  69.384  1.00  0.00    -0.049 A  
HETATM   17 BR   UNL     1      -5.228   7.045  68.182  1.00  0.00    -0.020 Br 
HETATM   18  N   UNL     1      -7.224  14.490  67.433  1.00  0.00    -0.183 NA 
HETATM   19  C   UNL     1      -7.574  10.236  69.447  1.00  0.00    -0.137 A  
ENDBRANCH   4   5
ENDBRANCH   2   4
TORSDOF 2
ENDMDL
MODEL      156
REMARK 921   NORMALIZED FREE ENERGY PREDICTED BY IDOCK:   -2.57 KCAL/MOL
REMARK 922        TOTAL FREE ENERGY PREDICTED BY IDOCK:   -3.03 KCAL/MOL
REMARK 923 INTER-LIGAND FREE ENERGY PREDICTED BY IDOCK:   -2.88 KCAL/MOL
REMARK 924 INTRA-LIGAND FREE ENERGY PREDICTED BY IDOCK:   -0.15 KCAL/MOL
REMARK 927      BINDING AFFINITY PREDICTED BY RF-SCORE:    0.00 PKD
ROOT
HETATM    1  C   UNL     1      -5.375  12.880  68.499  1.00  0.00    -0.061 C  
HETATM    2  N   UNL     1      -5.980  12.491  67.222  1.00  0.00    -0.247 NA 
HETATM    3  C   UNL     1      -5.133  11.495  66.561  1.00  0.00    -0.096 C  
ENDROOT
BRANCH   2   4
HETATM    4  C   UNL     1      -7.334  11.933  67.399  1.00  0.00    -0.145 C  
BRANCH   4   5
HETATM    5  C   UNL     1      -8.294  12.799  68.225  1.00  0.00    -0.161 C  
HETATM    6  C   UNL     1      -9.797  12.589  67.919  1.00  0.00    -0.207 C  
HETATM    7  C   UNL     1     -10.250  11.168  68.247  1.00  0.00    -0.197 A  
HETATM    8  C   UNL     1     -10.634  13.676  68.599  1.00  0.00    -0.248 A  
HETATM    9  C   UNL     1     -10.162  10.654  69.551  1.00  0.00    -0.190 A  
HETATM   10  C   UNL     1     -11.854  14.066  68.047  1.00  0.00    -0.403 A  
HETATM   11  C   UNL     1     -12.534  15.148  68.607  1.00  0.00     0.263 A  
HETATM   12  C   UNL     1     -10.451   9.309  69.807  1.00  0.00    -0.235 A  
HETATM   13  C   UNL     1     -11.988  15.806  69.702  1.00  0.00    -0.332 A  
HETATM   14  C   UNL     1     -10.842   8.473  68.765  1.00  0.00     0.043 A  
HETATM   15  C   UNL     1     -10.792  15.338  70.212  1.00  0.00    -0.279 A  
HETATM   16  C   UNL     1     -10.975   8.974  67.472  1.00  0.00     0.027 A  
HETATM   17 BR   UNL     1     -11.160   6.639  69.100  1.00  0.00    -0.317 Br 
HETATM   18  N   UNL     1     -10.116  14.289  69.696  1.00  0.00     0.233 NA 
HETATM   19  C   UNL     1     -10.681  10.315  67.215  1.00  0.00    -0.323 A  
ENDBRANCH   4   5
ENDBRANCH   2   4
TORSDOF 2
ENDMDL
MODEL      157
REMARK 921   NORMALIZED FREE ENERGY PREDICTED BY IDOCK:   -2.52 KCAL/MOL
REMARK 922        TOTAL FREE ENERGY PREDICTED BY IDOCK:   -2.97 KCAL/MOL
REMARK 923 INTER-LIGAND FREE ENERGY PREDICTED BY IDOCK:   -2.53 KCAL/MOL
REMARK 924 INTRA-LIGAND FREE ENERGY PREDICTED BY IDOCK:   -0.44 KCAL/MOL
REMARK 927      BINDING AFFINITY PREDICTED BY RF-SCORE:    0.00 PKD
ROOT
HETATM    1  C   UNL     1     -11.017   6.946  69.366  1.00  0.00    -0.237 C  
HETATM    2  N   UNL     1      -9.709   7.580  69.551  1.00  0.00    -0.163 NA 
HETATM    3  C   UNL     1      -9.078   7.056  70.766  1.00  0.00    -0.154 C  
ENDROOT
BRANCH   2   4
HETATM    4  C   UNL     1      -8.813   7.348  68.402  1.00  0.00    -0.121 C  
BRANCH   4   5
HETATM    5  C   UNL     1      -9.347   6.372  67.346  1.00  0.00    -0.119 C  
HETATM    6  C   UNL     1      -8.474   5.115  67.111  1.00  0.00    -0.106 C  
HETATM    7  C   UNL     1      -8.382   4.246  68.364  1.00  0.00    -0.098 A  
HETATM    8  C   UNL     1      -8.955   4.360  65.869  1.00  0.00    -0.124 A  
HETATM    9  C   UNL     1      -9.526   3.679  68.947  1.00  0.00    -0.218 A  
HETATM   10  C   UNL     1      -8.058   3.594  65.126  1.00  0.00    -0.097 A  
HETATM   11  C   UNL     1      -8.486   3.024  63.927  1.00  0.00    -0.089 A  
HETATM   12  C   UNL     1      -9.442   3.003  70.168  1.00  0.00    -0.206 A  
HETATM   13  C   UNL     1      -9.794   3.223  63.505  1.00  0.00    -0.144 A  
HETATM   14  C   UNL     1      -8.211   2.876  70.808  1.00  0.00    -0.052 A  
HETATM   15  C   UNL     1     -10.633   3.966  64.314  1.00  0.00    -0.223 A  
HETATM   16  C   UNL     1      -7.059   3.396  70.225  1.00  0.00    -0.037 A  
HETATM   17 BR   UNL     1      -8.111   2.025  72.494  1.00  0.00    -0.054 Br 
HETATM   18  N   UNL     1     -10.248   4.523  65.482  1.00  0.00    -0.242 NA 
HETATM   19  C   UNL     1      -7.144   4.077  69.009  1.00  0.00    -0.050 A  
ENDBRANCH   4   5
ENDBRANCH   2   4
TORSDOF 2
ENDMDL
MODEL      158
REMARK 921   NORMALIZED FREE ENERGY PREDICTED BY IDOCK:   -2.52 KCAL/MOL
REMARK 922        TOTAL FREE ENERGY PREDICTED BY IDOCK:   -2.97 KCAL/MOL
REMARK 923 INTER-LIGAND FREE ENERGY PREDICTED BY IDOCK:   -2.81 KCAL/MOL
REMARK 924 INTRA-LIGAND FREE ENERGY PREDICTED BY IDOCK:   -0.16 KCAL/MOL
REMARK 927      BINDING AFFINITY PREDICTED BY RF-SCORE:    0.00 PKD
ROOT
HETATM    1  C   UNL     1     -10.647   3.793  64.300  1.00  0.00    -0.228 C  
HETATM    2  N   UNL     1      -9.571   4.135  65.234  1.00  0.00    -0.174 NA 
HETATM    3  C   UNL     1      -8.310   4.268  64.500  1.00  0.00    -0.107 C  
ENDROOT
BRANCH   2   4
HETATM    4  C   UNL     1      -9.844   5.391  65.957  1.00  0.00    -0.094 C  
BRANCH   4   5
HETATM    5  C   UNL     1     -10.053   5.241  67.469  1.00  0.00    -0.222 C  
HETATM    6  C   UNL     1      -9.179   6.170  68.349  1.00  0.00    -0.111 C  
HETATM    7  C   UNL     1      -9.495   7.643  68.104  1.00  0.00    -0.150 A  
HETATM    8  C   UNL     1      -9.275   5.752  69.819  1.00  0.00    -0.140 A  
HETATM    9  C   UNL     1     -10.776   8.168  68.343  1.00  0.00    -0.066 A  
HETATM   10  C   UNL     1      -8.211   5.999  70.686  1.00  0.00    -0.120 A  
HETATM   11  C   UNL     1      -8.266   5.493  71.984  1.00  0.00    -0.115 A  
HETATM   12  C   UNL     1     -11.085   9.484  67.984  1.00  0.00    -0.056 A  
HETATM   13  C   UNL     1      -9.377   4.764  72.387  1.00  0.00    -0.157 A  
HETATM   14  C   UNL     1     -10.112  10.290  67.399  1.00  0.00    -0.202 A  
HETATM   15  C   UNL     1     -10.406   4.591  71.481  1.00  0.00    -0.068 A  
HETATM   16  C   UNL     1      -8.825   9.802  67.192  1.00  0.00    -0.141 A  
HETATM   17 BR   UNL     1     -10.552  12.045  66.848  1.00  0.00    -0.274 Br 
HETATM   18  N   UNL     1     -10.383   5.075  70.221  1.00  0.00    -0.258 NA 
HETATM   19  C   UNL     1      -8.518   8.486  67.544  1.00  0.00    -0.128 A  
ENDBRANCH   4   5
ENDBRANCH   2   4
TORSDOF 2
ENDMDL
MODEL      159
REMARK 921   NORMALIZED FREE ENERGY PREDICTED BY IDOCK:   -2.49 KCAL/MOL
REMARK 922        TOTAL FREE ENERGY PREDICTED BY IDOCK:   -2.94 KCAL/MOL
REMARK 923 INTER-LIGAND FREE ENERGY PREDICTED BY IDOCK:   -2.69 KCAL/MOL
REMARK 924 INTRA-LIGAND FREE ENERGY PREDICTED BY IDOCK:   -0.25 KCAL/MOL
REMARK 927      BINDING AFFINITY PREDICTED BY RF-SCORE:    0.00 PKD
ROOT
HETATM    1  C   UNL     1     -13.440  13.796  71.050  1.00  0.00    -0.017 C  
HETATM    2  N   UNL     1     -12.358  14.383  70.256  1.00  0.00    -0.332 NA 
HETATM    3  C   UNL     1     -12.176  15.786  70.637  1.00  0.00    -0.384 C  
ENDROOT
BRANCH   2   4
HETATM    4  C   UNL     1     -11.083  13.664  70.438  1.00  0.00     0.645 C  
BRANCH   4   5
HETATM    5  C   UNL     1     -10.723  12.681  69.317  1.00  0.00     0.031 C  
HETATM    6  C   UNL     1     -10.269  13.337  67.989  1.00  0.00    -0.240 C  
HETATM    7  C   UNL     1      -8.985  14.143  68.164  1.00  0.00    -0.188 A  
HETATM    8  C   UNL     1     -10.193  12.286  66.878  1.00  0.00    -0.213 A  
HETATM    9  C   UNL     1      -7.792  13.537  68.590  1.00  0.00    -0.084 A  
HETATM   10  C   UNL     1     -10.389  12.659  65.548  1.00  0.00    -0.305 A  
HETATM   11  C   UNL     1     -10.448  11.668  64.569  1.00  0.00    -0.359 A  
HETATM   12  C   UNL     1      -6.663  14.311  68.878  1.00  0.00    -0.100 A  
HETATM   13  C   UNL     1     -10.302  10.336  64.936  1.00  0.00    -0.140 A  
HETATM   14  C   UNL     1      -6.714  15.695  68.727  1.00  0.00    -0.116 A  
HETATM   15  C   UNL     1     -10.076  10.049  66.268  1.00  0.00    -0.243 A  
HETATM   16  C   UNL     1      -7.874  16.310  68.267  1.00  0.00    -0.164 A  
HETATM   17 BR   UNL     1      -5.211  16.746  69.186  1.00  0.00    -0.132 Br 
HETATM   18  N   UNL     1     -10.008  10.988  67.237  1.00  0.00    -0.178 NA 
HETATM   19  C   UNL     1      -9.004  15.538  67.986  1.00  0.00    -0.174 A  
ENDBRANCH   4   5
ENDBRANCH   2   4
TORSDOF 2
ENDMDL
MODEL      160
REMARK 921   NORMALIZED FREE ENERGY PREDICTED BY IDOCK:   -2.48 KCAL/MOL
REMARK 922        TOTAL FREE ENERGY PREDICTED BY IDOCK:   -2.93 KCAL/MOL
REMARK 923 INTER-LIGAND FREE ENERGY PREDICTED BY IDOCK:   -2.74 KCAL/MOL
REMARK 924 INTRA-LIGAND FREE ENERGY PREDICTED BY IDOCK:   -0.19 KCAL/MOL
REMARK 927      BINDING AFFINITY PREDICTED BY RF-SCORE:    0.00 PKD
ROOT
HETATM    1  C   UNL     1      -9.931   3.348  64.477  1.00  0.00    -0.145 C  
HETATM    2  N   UNL     1      -8.764   3.629  65.319  1.00  0.00    -0.114 NA 
HETATM    3  C   UNL     1      -7.556   3.652  64.489  1.00  0.00    -0.076 C  
ENDROOT
BRANCH   2   4
HETATM    4  C   UNL     1      -8.889   4.916  66.028  1.00  0.00    -0.126 C  
BRANCH   4   5
HETATM    5  C   UNL     1      -7.961   6.029  65.527  1.00  0.00    -0.115 C  
HETATM    6  C   UNL     1      -8.593   7.442  65.481  1.00  0.00    -0.093 C  
HETATM    7  C   UNL     1      -8.994   7.929  66.871  1.00  0.00    -0.157 A  
HETATM    8  C   UNL     1      -7.677   8.409  64.727  1.00  0.00    -0.109 A  
HETATM    9  C   UNL     1      -8.044   8.089  67.893  1.00  0.00    -0.129 A  
HETATM   10  C   UNL     1      -8.219   9.505  64.055  1.00  0.00    -0.160 A  
HETATM   11  C   UNL     1      -7.383  10.295  63.266  1.00  0.00    -0.110 A  
HETATM   12  C   UNL     1      -8.446   8.403  69.196  1.00  0.00    -0.123 A  
HETATM   13  C   UNL     1      -6.033   9.981  63.173  1.00  0.00    -0.129 A  
HETATM   14  C   UNL     1      -9.798   8.574  69.483  1.00  0.00    -0.187 A  
HETATM   15  C   UNL     1      -5.565   8.900  63.897  1.00  0.00    -0.069 A  
HETATM   16  C   UNL     1     -10.751   8.460  68.475  1.00  0.00    -0.069 A  
HETATM   17 BR   UNL     1     -10.344   8.925  71.259  1.00  0.00    -0.384 Br 
HETATM   18  N   UNL     1      -6.349   8.122  64.673  1.00  0.00    -0.056 NA 
HETATM   19  C   UNL     1     -10.351   8.141  67.176  1.00  0.00    -0.391 A  
ENDBRANCH   4   5
ENDBRANCH   2   4
TORSDOF 2
ENDMDL
MODEL      161
REMARK 921   NORMALIZED FREE ENERGY PREDICTED BY IDOCK:   -2.36 KCAL/MOL
REMARK 922        TOTAL FREE ENERGY PREDICTED BY IDOCK:   -2.80 KCAL/MOL
REMARK 923 INTER-LIGAND FREE ENERGY PREDICTED BY IDOCK:   -2.57 KCAL/MOL
REMARK 924 INTRA-LIGAND FREE ENERGY PREDICTED BY IDOCK:   -0.22 KCAL/MOL
REMARK 927      BINDING AFFINITY PREDICTED BY RF-SCORE:    0.00 PKD
ROOT
HETATM    1  C   UNL     1      -6.389   8.251  66.558  1.00  0.00    -0.054 C  
HETATM    2  N   UNL     1      -7.272   7.897  65.444  1.00  0.00    -0.063 NA 
HETATM    3  C   UNL     1      -7.313   9.001  64.481  1.00  0.00    -0.099 C  
ENDROOT
BRANCH   2   4
HETATM    4  C   UNL     1      -6.830   6.671  64.754  1.00  0.00    -0.050 C  
BRANCH   4   5
HETATM    5  C   UNL     1      -7.957   5.804  64.178  1.00  0.00    -0.122 C  
HETATM    6  C   UNL     1      -8.405   4.626  65.078  1.00  0.00    -0.127 C  
HETATM    7  C   UNL     1      -8.990   5.113  66.402  1.00  0.00    -0.125 A  
HETATM    8  C   UNL     1      -9.333   3.688  64.301  1.00  0.00    -0.144 A  
HETATM    9  C   UNL     1     -10.128   5.934  66.442  1.00  0.00    -0.163 A  
HETATM   10  C   UNL     1      -9.396   2.334  64.633  1.00  0.00    -0.126 A  
HETATM   11  C   UNL     1     -10.144   1.475  63.829  1.00  0.00    -0.112 A  
HETATM   12  C   UNL     1     -10.568   6.484  67.650  1.00  0.00    -0.332 A  
HETATM   13  C   UNL     1     -10.814   1.984  62.724  1.00  0.00    -0.191 A  
HETATM   14  C   UNL     1      -9.883   6.205  68.830  1.00  0.00    -0.136 A  
HETATM   15  C   UNL     1     -10.731   3.342  62.480  1.00  0.00    -0.171 A  
HETATM   16  C   UNL     1      -8.777   5.359  68.817  1.00  0.00    -0.098 A  
HETATM   17 BR   UNL     1     -10.435   7.006  70.451  1.00  0.00    -0.234 Br 
HETATM   18  N   UNL     1     -10.021   4.198  63.245  1.00  0.00    -0.124 NA 
HETATM   19  C   UNL     1      -8.333   4.816  67.609  1.00  0.00    -0.104 A  
ENDBRANCH   4   5
ENDBRANCH   2   4
TORSDOF 2
ENDMDL
MODEL      162
REMARK 921   NORMALIZED FREE ENERGY PREDICTED BY IDOCK:   -2.28 KCAL/MOL
REMARK 922        TOTAL FREE ENERGY PREDICTED BY IDOCK:   -2.70 KCAL/MOL
REMARK 923 INTER-LIGAND FREE ENERGY PREDICTED BY IDOCK:   -2.47 KCAL/MOL
REMARK 924 INTRA-LIGAND FREE ENERGY PREDICTED BY IDOCK:   -0.23 KCAL/MOL
REMARK 927      BINDING AFFINITY PREDICTED BY RF-SCORE:    0.00 PKD
ROOT
HETATM    1  C   UNL     1     -11.239  12.293  66.693  1.00  0.00    -0.316 C  
HETATM    2  N   UNL     1     -10.288  11.675  65.766  1.00  0.00    -0.240 NA 
HETATM    3  C   UNL     1      -9.924  12.638  64.723  1.00  0.00    -0.140 C  
ENDROOT
BRANCH   2   4
HETATM    4  C   UNL     1      -9.064  11.218  66.450  1.00  0.00    -0.192 C  
BRANCH   4   5
HETATM    5  C   UNL     1      -9.283  10.170  67.548  1.00  0.00    -0.150 C  
HETATM    6  C   UNL     1      -9.693   8.765  67.043  1.00  0.00    -0.258 C  
HETATM    7  C   UNL     1      -8.604   8.133  66.179  1.00  0.00    -0.154 A  
HETATM    8  C   UNL     1     -10.137   7.888  68.217  1.00  0.00    -0.194 A  
HETATM    9  C   UNL     1      -7.322   7.876  66.689  1.00  0.00    -0.088 A  
HETATM   10  C   UNL     1     -11.062   6.863  68.013  1.00  0.00    -0.179 A  
HETATM   11  C   UNL     1     -11.552   6.166  69.116  1.00  0.00     0.117 A  
HETATM   12  C   UNL     1      -6.298   7.426  65.848  1.00  0.00    -0.041 A  
HETATM   13  C   UNL     1     -11.105   6.498  70.389  1.00  0.00    -0.389 A  
HETATM   14  C   UNL     1      -6.553   7.216  64.495  1.00  0.00    -0.043 A  
HETATM   15  C   UNL     1     -10.162   7.501  70.506  1.00  0.00    -0.201 A  
HETATM   16  C   UNL     1      -7.829   7.426  63.979  1.00  0.00    -0.120 A  
HETATM   17 BR   UNL     1      -5.150   6.678  63.347  1.00  0.00    -0.027 Br 
HETATM   18  N   UNL     1      -9.665   8.189  69.455  1.00  0.00    -0.168 NA 
HETATM   19  C   UNL     1      -8.849   7.881  64.817  1.00  0.00     0.310 A  
ENDBRANCH   4   5
ENDBRANCH   2   4
TORSDOF 2
ENDMDL
MODEL      163
REMARK 921   NORMALIZED FREE ENERGY PREDICTED BY IDOCK:   -2.14 KCAL/MOL
REMARK 922        TOTAL FREE ENERGY PREDICTED BY IDOCK:   -2.55 KCAL/MOL
REMARK 923 INTER-LIGAND FREE ENERGY PREDICTED BY IDOCK:   -2.31 KCAL/MOL
REMARK 924 INTRA-LIGAND FREE ENERGY PREDICTED BY IDOCK:   -0.24 KCAL/MOL
REMARK 927      BINDING AFFINITY PREDICTED BY RF-SCORE:    0.00 PKD
ROOT
HETATM    1  C   UNL     1     -13.360  10.584  70.355  1.00  0.00     0.228 C  
HETATM    2  N   UNL     1     -12.227  10.246  69.489  1.00  0.00     0.006 NA 
HETATM    3  C   UNL     1     -12.223  11.130  68.321  1.00  0.00     0.303 C  
ENDROOT
BRANCH   2   4
HETATM    4  C   UNL     1     -10.936  10.369  70.193  1.00  0.00    -0.300 C  
BRANCH   4   5
HETATM    5  C   UNL     1     -10.610   9.225  71.161  1.00  0.00    -0.402 C  
HETATM    6  C   UNL     1     -10.375   7.847  70.494  1.00  0.00    -0.205 C  
HETATM    7  C   UNL     1      -9.164   7.865  69.565  1.00  0.00    -0.152 A  
HETATM    8  C   UNL     1     -10.322   6.746  71.557  1.00  0.00    -0.208 A  
HETATM    9  C   UNL     1      -7.877   8.159  70.044  1.00  0.00    -0.103 A  
HETATM   10  C   UNL     1     -10.702   5.443  71.233  1.00  0.00    -0.249 A  
HETATM   11  C   UNL     1     -10.773   4.488  72.247  1.00  0.00    -0.112 A  
HETATM   12  C   UNL     1      -6.804   8.307  69.159  1.00  0.00    -0.051 A  
HETATM   13  C   UNL     1     -10.458   4.850  73.550  1.00  0.00    -0.278 A  
HETATM   14  C   UNL     1      -7.007   8.149  67.790  1.00  0.00    -0.078 A  
HETATM   15  C   UNL     1     -10.056   6.151  73.785  1.00  0.00    -0.238 A  
HETATM   16  C   UNL     1      -8.267   7.817  67.299  1.00  0.00    -0.119 A  
HETATM   17 BR   UNL     1      -5.572   8.421  66.589  1.00  0.00    -0.033 Br 
HETATM   18  N   UNL     1      -9.972   7.095  72.823  1.00  0.00    -0.175 NA 
HETATM   19  C   UNL     1      -9.339   7.675  68.182  1.00  0.00    -0.146 A  
ENDBRANCH   4   5
ENDBRANCH   2   4
TORSDOF 2
ENDMDL
MODEL      164
REMARK 921   NORMALIZED FREE ENERGY PREDICTED BY IDOCK:   -2.14 KCAL/MOL
REMARK 922        TOTAL FREE ENERGY PREDICTED BY IDOCK:   -2.55 KCAL/MOL
REMARK 923 INTER-LIGAND FREE ENERGY PREDICTED BY IDOCK:   -2.35 KCAL/MOL
REMARK 924 INTRA-LIGAND FREE ENERGY PREDICTED BY IDOCK:   -0.20 KCAL/MOL
REMARK 927      BINDING AFFINITY PREDICTED BY RF-SCORE:    0.00 PKD
ROOT
HETATM    1  C   UNL     1      -8.579   3.513  65.922  1.00  0.00    -0.116 C  
HETATM    2  N   UNL     1      -7.606   3.828  66.971  1.00  0.00    -0.079 NA 
HETATM    3  C   UNL     1      -6.308   4.132  66.361  1.00  0.00    -0.036 C  
ENDROOT
BRANCH   2   4
HETATM    4  C   UNL     1      -8.032   4.973  67.797  1.00  0.00    -0.095 C  
BRANCH   4   5
HETATM    5  C   UNL     1      -7.263   6.277  67.551  1.00  0.00    -0.079 C  
HETATM    6  C   UNL     1      -8.146   7.534  67.352  1.00  0.00    -0.116 C  
HETATM    7  C   UNL     1      -8.968   7.852  68.599  1.00  0.00    -0.134 A  
HETATM    8  C   UNL     1      -7.295   8.707  66.858  1.00  0.00    -0.079 A  
HETATM    9  C   UNL     1      -8.354   8.142  69.827  1.00  0.00    -0.124 A  
HETATM   10  C   UNL     1      -7.871   9.707  66.075  1.00  0.00    -0.102 A  
HETATM   11  C   UNL     1      -7.051  10.692  65.525  1.00  0.00    -0.048 A  
HETATM   12  C   UNL     1      -9.120   8.294  70.988  1.00  0.00    -0.189 A  
HETATM   13  C   UNL     1      -5.685  10.662  65.775  1.00  0.00    -0.139 A  
HETATM   14  C   UNL     1     -10.506   8.173  70.926  1.00  0.00    -0.202 A  
HETATM   15  C   UNL     1      -5.194   9.659  66.589  1.00  0.00    -0.044 A  
HETATM   16  C   UNL     1     -11.136   7.927  69.709  1.00  0.00    -0.079 A  
HETATM   17 BR   UNL     1     -11.533   8.307  72.507  1.00  0.00    -0.416 Br 
HETATM   18  N   UNL     1      -5.965   8.696  67.140  1.00  0.00    -0.052 NA 
HETATM   19  C   UNL     1     -10.371   7.768  68.551  1.00  0.00    -0.226 A  
ENDBRANCH   4   5
ENDBRANCH   2   4
TORSDOF 2
ENDMDL
MODEL      165
REMARK 921   NORMALIZED FREE ENERGY PREDICTED BY IDOCK:   -1.94 KCAL/MOL
REMARK 922        TOTAL FREE ENERGY PREDICTED BY IDOCK:   -2.33 KCAL/MOL
REMARK 923 INTER-LIGAND FREE ENERGY PREDICTED BY IDOCK:   -2.30 KCAL/MOL
REMARK 924 INTRA-LIGAND FREE ENERGY PREDICTED BY IDOCK:   -0.03 KCAL/MOL
REMARK 927      BINDING AFFINITY PREDICTED BY RF-SCORE:    0.00 PKD
ROOT
HETATM    1  C   UNL     1     -10.394   8.972  69.789  1.00  0.00    -0.211 C  
HETATM    2  N   UNL     1      -9.046   9.470  70.073  1.00  0.00    -0.211 NA 
HETATM    3  C   UNL     1      -8.453   8.687  71.160  1.00  0.00    -0.171 C  
ENDROOT
BRANCH   2   4
HETATM    4  C   UNL     1      -8.168   9.397  68.890  1.00  0.00    -0.111 C  
BRANCH   4   5
HETATM    5  C   UNL     1      -7.931   7.985  68.340  1.00  0.00    -0.120 C  
HETATM    6  C   UNL     1      -8.881   7.558  67.193  1.00  0.00    -0.127 C  
HETATM    7  C   UNL     1      -8.711   8.440  65.959  1.00  0.00    -0.183 A  
HETATM    8  C   UNL     1      -8.730   6.061  66.910  1.00  0.00    -0.112 A  
HETATM    9  C   UNL     1      -7.485   8.522  65.280  1.00  0.00    -0.086 A  
HETATM   10  C   UNL     1      -9.804   5.336  66.394  1.00  0.00    -0.204 A  
HETATM   11  C   UNL     1      -9.688   3.952  66.269  1.00  0.00    -0.176 A  
HETATM   12  C   UNL     1      -7.308   9.437  64.237  1.00  0.00    -0.109 A  
HETATM   13  C   UNL     1      -8.507   3.328  66.651  1.00  0.00    -0.107 A  
HETATM   14  C   UNL     1      -8.360  10.266  63.854  1.00  0.00    -0.165 A  
HETATM   15  C   UNL     1      -7.476   4.119  67.121  1.00  0.00    -0.073 A  
HETATM   16  C   UNL     1      -9.596  10.170  64.488  1.00  0.00    -0.376 A  
HETATM   17 BR   UNL     1      -8.097  11.552  62.493  1.00  0.00     0.582 Br 
HETATM   18  N   UNL     1      -7.557   5.461  67.246  1.00  0.00    -0.091 NA 
HETATM   19  C   UNL     1      -9.771   9.261  65.534  1.00  0.00    -0.247 A  
ENDBRANCH   4   5
ENDBRANCH   2   4
TORSDOF 2
ENDMDL
MODEL      166
REMARK 921   NORMALIZED FREE ENERGY PREDICTED BY IDOCK:   -1.91 KCAL/MOL
REMARK 922        TOTAL FREE ENERGY PREDICTED BY IDOCK:   -2.30 KCAL/MOL
REMARK 923 INTER-LIGAND FREE ENERGY PREDICTED BY IDOCK:   -1.94 KCAL/MOL
REMARK 924 INTRA-LIGAND FREE ENERGY PREDICTED BY IDOCK:   -0.35 KCAL/MOL
REMARK 927      BINDING AFFINITY PREDICTED BY RF-SCORE:    0.00 PKD
ROOT
HETATM    1  C   UNL     1      -7.632  13.548  68.656  1.00  0.00    -0.108 C  
HETATM    2  N   UNL     1      -6.181  13.358  68.729  1.00  0.00    -0.084 NA 
HETATM    3  C   UNL     1      -5.834  12.724  70.004  1.00  0.00    -0.149 C  
ENDROOT
BRANCH   2   4
HETATM    4  C   UNL     1      -5.673  12.527  67.622  1.00  0.00    -0.131 C  
BRANCH   4   5
HETATM    5  C   UNL     1      -6.733  12.069  66.612  1.00  0.00     0.160 C  
HETATM    6  C   UNL     1      -6.773  10.544  66.347  1.00  0.00    -0.114 C  
HETATM    7  C   UNL     1      -7.138   9.759  67.604  1.00  0.00    -0.088 A  
HETATM    8  C   UNL     1      -7.672  10.238  65.145  1.00  0.00    -0.136 A  
HETATM    9  C   UNL     1      -8.364   9.954  68.260  1.00  0.00    -0.110 A  
HETATM   10  C   UNL     1      -7.433   9.108  64.363  1.00  0.00    -0.101 A  
HETATM   11  C   UNL     1      -8.178   8.921  63.199  1.00  0.00    -0.183 A  
HETATM   12  C   UNL     1      -8.624   9.331  69.485  1.00  0.00    -0.147 A  
HETATM   13  C   UNL     1      -9.144   9.856  62.849  1.00  0.00    -0.291 A  
HETATM   14  C   UNL     1      -7.666   8.496  70.055  1.00  0.00    -0.086 A  
HETATM   15  C   UNL     1      -9.346  10.931  63.693  1.00  0.00    -0.262 A  
HETATM   16  C   UNL     1      -6.461   8.257  69.400  1.00  0.00    -0.038 A  
HETATM   17 BR   UNL     1      -7.990   7.711  71.745  1.00  0.00    -0.110 Br 
HETATM   18  N   UNL     1      -8.645  11.134  64.829  1.00  0.00     0.086 NA 
HETATM   19  C   UNL     1      -6.199   8.885  68.181  1.00  0.00    -0.051 A  
ENDBRANCH   4   5
ENDBRANCH   2   4
TORSDOF 2
ENDMDL
MODEL      167
REMARK 921   NORMALIZED FREE ENERGY PREDICTED BY IDOCK:   -1.85 KCAL/MOL
REMARK 922        TOTAL FREE ENERGY PREDICTED BY IDOCK:   -2.22 KCAL/MOL
REMARK 923 INTER-LIGAND FREE ENERGY PREDICTED BY IDOCK:   -2.02 KCAL/MOL
REMARK 924 INTRA-LIGAND FREE ENERGY PREDICTED BY IDOCK:   -0.20 KCAL/MOL
REMARK 927      BINDING AFFINITY PREDICTED BY RF-SCORE:    0.00 PKD
ROOT
HETATM    1  C   UNL     1     -10.815   7.422  67.157  1.00  0.00    -0.270 C  
HETATM    2  N   UNL     1      -9.790   8.309  67.714  1.00  0.00    -0.162 NA 
HETATM    3  C   UNL     1      -9.598   9.456  66.822  1.00  0.00    -0.179 C  
ENDROOT
BRANCH   2   4
HETATM    4  C   UNL     1     -10.151   8.797  69.058  1.00  0.00    -0.198 C  
BRANCH   4   5
HETATM    5  C   UNL     1      -8.970   9.003  70.016  1.00  0.00    -0.184 C  
HETATM    6  C   UNL     1      -8.630   7.786  70.911  1.00  0.00    -0.128 C  
HETATM    7  C   UNL     1      -8.195   6.578  70.085  1.00  0.00    -0.129 A  
HETATM    8  C   UNL     1      -7.626   8.188  71.994  1.00  0.00    -0.106 A  
HETATM    9  C   UNL     1      -7.065   6.628  69.253  1.00  0.00    -0.084 A  
HETATM   10  C   UNL     1      -7.606   7.513  73.215  1.00  0.00    -0.118 A  
HETATM   11  C   UNL     1      -6.776   7.982  74.233  1.00  0.00    -0.140 A  
HETATM   12  C   UNL     1      -6.760   5.562  68.401  1.00  0.00    -0.054 A  
HETATM   13  C   UNL     1      -5.984   9.101  74.009  1.00  0.00     0.003 A  
HETATM   14  C   UNL     1      -7.575   4.432  68.384  1.00  0.00    -0.064 A  
HETATM   15  C   UNL     1      -6.034   9.694  72.762  1.00  0.00     0.435 A  
HETATM   16  C   UNL     1      -8.676   4.346  69.232  1.00  0.00    -0.120 A  
HETATM   17 BR   UNL     1      -7.203   3.023  67.179  1.00  0.00    -0.058 Br 
HETATM   18  N   UNL     1      -6.822   9.259  71.756  1.00  0.00    -0.312 NA 
HETATM   19  C   UNL     1      -8.984   5.413  70.078  1.00  0.00    -0.152 A  
ENDBRANCH   4   5
ENDBRANCH   2   4
TORSDOF 2
ENDMDL
MODEL      168
REMARK 921   NORMALIZED FREE ENERGY PREDICTED BY IDOCK:   -1.79 KCAL/MOL
REMARK 922        TOTAL FREE ENERGY PREDICTED BY IDOCK:   -2.16 KCAL/MOL
REMARK 923 INTER-LIGAND FREE ENERGY PREDICTED BY IDOCK:   -1.93 KCAL/MOL
REMARK 924 INTRA-LIGAND FREE ENERGY PREDICTED BY IDOCK:   -0.23 KCAL/MOL
REMARK 927      BINDING AFFINITY PREDICTED BY RF-SCORE:    0.00 PKD
ROOT
HETATM    1  C   UNL     1     -11.135  11.021  65.750  1.00  0.00     0.052 C  
HETATM    2  N   UNL     1      -9.772  11.488  65.484  1.00  0.00    -0.225 NA 
HETATM    3  C   UNL     1      -9.377  12.456  66.511  1.00  0.00    -0.233 C  
ENDROOT
BRANCH   2   4
HETATM    4  C   UNL     1      -8.800  10.379  65.465  1.00  0.00    -0.176 C  
BRANCH   4   5
HETATM    5  C   UNL     1      -8.116  10.088  66.807  1.00  0.00    -0.118 C  
HETATM    6  C   UNL     1      -8.724   8.914  67.613  1.00  0.00    -0.124 C  
HETATM    7  C   UNL     1      -8.594   7.588  66.869  1.00  0.00    -0.124 A  
HETATM    8  C   UNL     1      -8.143   8.887  69.030  1.00  0.00    -0.115 A  
HETATM    9  C   UNL     1      -7.340   7.060  66.524  1.00  0.00    -0.083 A  
HETATM   10  C   UNL     1      -8.892   8.361  70.083  1.00  0.00    -0.141 A  
HETATM   11  C   UNL     1      -8.399   8.468  71.383  1.00  0.00    -0.204 A  
HETATM   12  C   UNL     1      -7.243   5.918  65.723  1.00  0.00    -0.075 A  
HETATM   13  C   UNL     1      -7.174   9.085  71.600  1.00  0.00     0.002 A  
HETATM   14  C   UNL     1      -8.399   5.285  65.274  1.00  0.00    -0.139 A  
HETATM   15  C   UNL     1      -6.475   9.550  70.503  1.00  0.00    -0.086 A  
HETATM   16  C   UNL     1      -9.652   5.768  65.640  1.00  0.00     0.129 A  
HETATM   17 BR   UNL     1      -8.267   3.784  64.132  1.00  0.00    -0.091 Br 
HETATM   18  N   UNL     1      -6.924   9.455  69.233  1.00  0.00    -0.052 NA 
HETATM   19  C   UNL     1      -9.749   6.913  66.434  1.00  0.00    -0.127 A  
ENDBRANCH   4   5
ENDBRANCH   2   4
TORSDOF 2
ENDMDL
MODEL      169
REMARK 921   NORMALIZED FREE ENERGY PREDICTED BY IDOCK:   -1.76 KCAL/MOL
REMARK 922        TOTAL FREE ENERGY PREDICTED BY IDOCK:   -2.13 KCAL/MOL
REMARK 923 INTER-LIGAND FREE ENERGY PREDICTED BY IDOCK:   -1.84 KCAL/MOL
REMARK 924 INTRA-LIGAND FREE ENERGY PREDICTED BY IDOCK:   -0.29 KCAL/MOL
REMARK 927      BINDING AFFINITY PREDICTED BY RF-SCORE:    0.00 PKD
ROOT
HETATM    1  C   UNL     1      -8.699   5.276  64.995  1.00  0.00    -0.136 C  
HETATM    2  N   UNL     1      -7.907   6.230  65.776  1.00  0.00    -0.098 NA 
HETATM    3  C   UNL     1      -6.541   6.281  65.248  1.00  0.00    -0.043 C  
ENDROOT
BRANCH   2   4
HETATM    4  C   UNL     1      -8.487   7.586  65.748  1.00  0.00    -0.144 C  
BRANCH   4   5
HETATM    5  C   UNL     1      -7.527   8.714  66.146  1.00  0.00    -0.086 C  
HETATM    6  C   UNL     1      -7.841   9.398  67.499  1.00  0.00    -0.099 C  
HETATM    7  C   UNL     1      -7.725   8.422  68.668  1.00  0.00    -0.107 A  
HETATM    8  C   UNL     1      -6.993  10.662  67.664  1.00  0.00    -0.079 A  
HETATM    9  C   UNL     1      -6.516   7.774  68.964  1.00  0.00    -0.037 A  
HETATM   10  C   UNL     1      -7.464  11.722  68.439  1.00  0.00    -0.105 A  
HETATM   11  C   UNL     1      -6.739  12.913  68.467  1.00  0.00    -0.091 A  
HETATM   12  C   UNL     1      -6.461   6.781  69.948  1.00  0.00    -0.043 A  
HETATM   13  C   UNL     1      -5.564  13.016  67.733  1.00  0.00    -0.126 A  
HETATM   14  C   UNL     1      -7.613   6.440  70.654  1.00  0.00    -0.103 A  
HETATM   15  C   UNL     1      -5.146  11.910  67.017  1.00  0.00    -0.097 A  
HETATM   16  C   UNL     1      -8.813   7.100  70.403  1.00  0.00    -0.151 A  
HETATM   17 BR   UNL     1      -7.554   5.048  71.932  1.00  0.00    -0.104 Br 
HETATM   18  N   UNL     1      -5.823  10.743  66.977  1.00  0.00    -0.053 NA 
HETATM   19  C   UNL     1      -8.868   8.087  69.416  1.00  0.00    -0.144 A  
ENDBRANCH   4   5
ENDBRANCH   2   4
TORSDOF 2
ENDMDL
MODEL      170
REMARK 921   NORMALIZED FREE ENERGY PREDICTED BY IDOCK:   -1.71 KCAL/MOL
REMARK 922        TOTAL FREE ENERGY PREDICTED BY IDOCK:   -2.07 KCAL/MOL
REMARK 923 INTER-LIGAND FREE ENERGY PREDICTED BY IDOCK:   -2.38 KCAL/MOL
REMARK 924 INTRA-LIGAND FREE ENERGY PREDICTED BY IDOCK:    0.31 KCAL/MOL
REMARK 927      BINDING AFFINITY PREDICTED BY RF-SCORE:    0.00 PKD
ROOT
HETATM    1  C   UNL     1      -8.291   8.122  65.384  1.00  0.00    -0.155 C  
HETATM    2  N   UNL     1      -9.119   8.529  66.523  1.00  0.00    -0.164 NA 
HETATM    3  C   UNL     1      -9.933   9.689  66.148  1.00  0.00    -0.276 C  
ENDROOT
BRANCH   2   4
HETATM    4  C   UNL     1     -10.006   7.443  66.980  1.00  0.00    -0.231 C  
BRANCH   4   5
HETATM    5  C   UNL     1     -10.008   6.188  66.097  1.00  0.00     0.032 C  
HETATM    6  C   UNL     1      -8.748   5.296  66.222  1.00  0.00    -0.122 C  
HETATM    7  C   UNL     1      -8.595   4.724  67.629  1.00  0.00    -0.103 A  
HETATM    8  C   UNL     1      -8.741   4.233  65.119  1.00  0.00    -0.126 A  
HETATM    9  C   UNL     1      -9.576   3.892  68.193  1.00  0.00    -0.182 A  
HETATM   10  C   UNL     1      -7.531   3.722  64.649  1.00  0.00    -0.072 A  
HETATM   11  C   UNL     1      -7.541   2.857  63.556  1.00  0.00    -0.063 A  
HETATM   12  C   UNL     1      -9.486   3.491  69.530  1.00  0.00    -0.236 A  
HETATM   13  C   UNL     1      -8.751   2.516  62.965  1.00  0.00    -0.085 A  
HETATM   14  C   UNL     1      -8.409   3.905  70.309  1.00  0.00    -0.060 A  
HETATM   15  C   UNL     1      -9.910   3.036  63.510  1.00  0.00    -0.129 A  
HETATM   16  C   UNL     1      -7.405   4.696  69.756  1.00  0.00    -0.054 A  
HETATM   17 BR   UNL     1      -8.327   3.422  72.135  1.00  0.00    -0.087 Br 
HETATM   18  N   UNL     1      -9.931   3.871  64.571  1.00  0.00    -0.193 NA 
HETATM   19  C   UNL     1      -7.497   5.102  68.423  1.00  0.00    -0.075 A  
ENDBRANCH   4   5
ENDBRANCH   2   4
TORSDOF 2
ENDMDL
MODEL      171
REMARK 921   NORMALIZED FREE ENERGY PREDICTED BY IDOCK:   -1.44 KCAL/MOL
REMARK 922        TOTAL FREE ENERGY PREDICTED BY IDOCK:   -1.77 KCAL/MOL
REMARK 923 INTER-LIGAND FREE ENERGY PREDICTED BY IDOCK:   -1.58 KCAL/MOL
REMARK 924 INTRA-LIGAND FREE ENERGY PREDICTED BY IDOCK:   -0.19 KCAL/MOL
REMARK 927      BINDING AFFINITY PREDICTED BY RF-SCORE:    0.00 PKD
ROOT
HETATM    1  C   UNL     1      -6.067  20.269  64.747  1.00  0.00    -0.263 C  
HETATM    2  N   UNL     1      -6.247  18.925  64.192  1.00  0.00    -0.266 NA 
HETATM    3  C   UNL     1      -5.137  18.615  63.288  1.00  0.00    -0.051 C  
ENDROOT
BRANCH   2   4
HETATM    4  C   UNL     1      -6.314  17.895  65.246  1.00  0.00     0.133 C  
BRANCH   4   5
HETATM    5  C   UNL     1      -6.962  18.348  66.561  1.00  0.00    -0.247 C  
HETATM    6  C   UNL     1      -8.506  18.239  66.605  1.00  0.00    -0.281 C  
HETATM    7  C   UNL     1      -8.976  16.792  66.473  1.00  0.00    -0.304 A  
HETATM    8  C   UNL     1      -9.053  18.956  67.842  1.00  0.00    -0.300 A  
HETATM    9  C   UNL     1      -8.606  15.813  67.409  1.00  0.00    -0.192 A  
HETATM   10  C   UNL     1     -10.336  19.501  67.824  1.00  0.00    -0.575 A  
HETATM   11  C   UNL     1     -10.763  20.264  68.910  1.00  0.00     0.377 A  
HETATM   12  C   UNL     1      -8.930  14.469  67.199  1.00  0.00    -0.244 A  
HETATM   13  C   UNL     1      -9.908  20.456  69.988  1.00  0.00     0.710 A  
HETATM   14  C   UNL     1      -9.638  14.095  66.059  1.00  0.00    -0.225 A  
HETATM   15  C   UNL     1      -8.664  19.854  69.948  1.00  0.00     0.943 A  
HETATM   16  C   UNL     1     -10.049  15.056  65.140  1.00  0.00    -0.350 A  
HETATM   17 BR   UNL     1     -10.010  12.269  65.741  1.00  0.00    -0.269 Br 
HETATM   18  N   UNL     1      -8.227  19.105  68.912  1.00  0.00    -0.334 NA 
HETATM   19  C   UNL     1      -9.720  16.398  65.347  1.00  0.00     0.156 A  
ENDBRANCH   4   5
ENDBRANCH   2   4
TORSDOF 2
ENDMDL
MODEL      172
REMARK 921   NORMALIZED FREE ENERGY PREDICTED BY IDOCK:   -1.44 KCAL/MOL
REMARK 922        TOTAL FREE ENERGY PREDICTED BY IDOCK:   -1.76 KCAL/MOL
REMARK 923 INTER-LIGAND FREE ENERGY PREDICTED BY IDOCK:   -2.95 KCAL/MOL
REMARK 924 INTRA-LIGAND FREE ENERGY PREDICTED BY IDOCK:    1.18 KCAL/MOL
REMARK 927      BINDING AFFINITY PREDICTED BY RF-SCORE:    0.00 PKD
ROOT
HETATM    1  C   UNL     1      -6.481  19.465  70.572  1.00  0.00     0.126 C  
HETATM    2  N   UNL     1      -6.374  19.014  69.182  1.00  0.00    -0.266 NA 
HETATM    3  C   UNL     1      -6.411  20.174  68.287  1.00  0.00    -0.287 C  
ENDROOT
BRANCH   2   4
HETATM    4  C   UNL     1      -5.132  18.256  68.939  1.00  0.00    -0.176 C  
BRANCH   4   5
HETATM    5  C   UNL     1      -5.332  16.822  68.433  1.00  0.00    -0.118 C  
HETATM    6  C   UNL     1      -6.740  16.227  68.683  1.00  0.00    -0.138 C  
HETATM    7  C   UNL     1      -7.824  17.006  67.943  1.00  0.00    -0.188 A  
HETATM    8  C   UNL     1      -6.742  14.726  68.381  1.00  0.00    -0.102 A  
HETATM    9  C   UNL     1      -7.821  17.118  66.543  1.00  0.00    -0.325 A  
HETATM   10  C   UNL     1      -7.632  13.881  69.045  1.00  0.00    -0.002 A  
HETATM   11  C   UNL     1      -7.527  12.504  68.854  1.00  0.00     0.011 A  
HETATM   12  C   UNL     1      -8.740  17.947  65.893  1.00  0.00     0.136 A  
HETATM   13  C   UNL     1      -6.548  12.005  68.004  1.00  0.00    -0.069 A  
HETATM   14  C   UNL     1      -9.679  18.660  66.635  1.00  0.00    -0.341 A  
HETATM   15  C   UNL     1      -5.726  12.907  67.357  1.00  0.00    -0.041 A  
HETATM   16  C   UNL     1      -9.725  18.530  68.020  1.00  0.00    -0.354 A  
HETATM   17 BR   UNL     1     -10.872  19.836  65.760  1.00  0.00    -0.203 Br 
HETATM   18  N   UNL     1      -5.810  14.245  67.517  1.00  0.00    -0.352 NA 
HETATM   19  C   UNL     1      -8.803  17.707  68.671  1.00  0.00    -0.259 A  
ENDBRANCH   4   5
ENDBRANCH   2   4
TORSDOF 2
ENDMDL
MODEL      173
REMARK 921   NORMALIZED FREE ENERGY PREDICTED BY IDOCK:   -0.79 KCAL/MOL
REMARK 922        TOTAL FREE ENERGY PREDICTED BY IDOCK:   -1.04 KCAL/MOL
REMARK 923 INTER-LIGAND FREE ENERGY PREDICTED BY IDOCK:   -1.76 KCAL/MOL
REMARK 924 INTRA-LIGAND FREE ENERGY PREDICTED BY IDOCK:    0.71 KCAL/MOL
REMARK 927      BINDING AFFINITY PREDICTED BY RF-SCORE:    0.00 PKD
ROOT
HETATM    1  C   UNL     1     -11.867  11.152  63.273  1.00  0.00     0.767 C  
HETATM    2  N   UNL     1     -11.254  12.456  63.008  1.00  0.00    -0.108 NA 
HETATM    3  C   UNL     1     -12.126  13.519  63.514  1.00  0.00    -0.364 C  
ENDROOT
BRANCH   2   4
HETATM    4  C   UNL     1      -9.925  12.581  63.636  1.00  0.00    -0.052 C  
BRANCH   4   5
HETATM    5  C   UNL     1      -9.860  13.525  64.843  1.00  0.00    -0.045 C  
HETATM    6  C   UNL     1     -10.833  13.182  65.998  1.00  0.00    -0.287 C  
HETATM    7  C   UNL     1     -10.525  11.818  66.613  1.00  0.00    -0.259 A  
HETATM    8  C   UNL     1     -10.870  14.324  67.017  1.00  0.00    -0.297 A  
HETATM    9  C   UNL     1      -9.284  11.548  67.212  1.00  0.00    -0.168 A  
HETATM   10  C   UNL     1     -12.017  14.544  67.779  1.00  0.00    -0.345 A  
HETATM   11  C   UNL     1     -12.077  15.668  68.602  1.00  0.00    -0.067 A  
HETATM   12  C   UNL     1      -8.969  10.256  67.645  1.00  0.00    -0.137 A  
HETATM   13  C   UNL     1     -10.995  16.538  68.651  1.00  0.00    -0.344 A  
HETATM   14  C   UNL     1      -9.897   9.228  67.496  1.00  0.00    -0.175 A  
HETATM   15  C   UNL     1      -9.881  16.233  67.893  1.00  0.00    -0.237 A  
HETATM   16  C   UNL     1     -11.149   9.485  66.943  1.00  0.00     0.276 A  
HETATM   17 BR   UNL     1      -9.443   7.468  68.015  1.00  0.00    -0.156 Br 
HETATM   18  N   UNL     1      -9.792  15.149  67.093  1.00  0.00    -0.227 NA 
HETATM   19  C   UNL     1     -11.461  10.774  66.504  1.00  0.00     0.465 A  
ENDBRANCH   4   5
ENDBRANCH   2   4
TORSDOF 2
ENDMDL
MODEL      174
REMARK 921   NORMALIZED FREE ENERGY PREDICTED BY IDOCK:   -0.76 KCAL/MOL
REMARK 922        TOTAL FREE ENERGY PREDICTED BY IDOCK:   -1.01 KCAL/MOL
REMARK 923 INTER-LIGAND FREE ENERGY PREDICTED BY IDOCK:   -0.98 KCAL/MOL
REMARK 924 INTRA-LIGAND FREE ENERGY PREDICTED BY IDOCK:   -0.03 KCAL/MOL
REMARK 927      BINDING AFFINITY PREDICTED BY RF-SCORE:    0.00 PKD
ROOT
HETATM    1  C   UNL     1     -12.247  11.635  63.504  1.00  0.00    -0.246 C  
HETATM    2  N   UNL     1     -11.398  12.823  63.382  1.00  0.00    -0.432 NA 
HETATM    3  C   UNL     1     -11.846  13.845  64.332  1.00  0.00    -0.429 C  
ENDROOT
BRANCH   2   4
HETATM    4  C   UNL     1      -9.978  12.517  63.636  1.00  0.00    -0.052 C  
BRANCH   4   5
HETATM    5  C   UNL     1      -9.421  13.056  64.960  1.00  0.00     0.372 C  
HETATM    6  C   UNL     1      -9.773  12.216  66.212  1.00  0.00    -0.251 C  
HETATM    7  C   UNL     1      -9.178  10.811  66.137  1.00  0.00    -0.202 A  
HETATM    8  C   UNL     1      -9.397  12.979  67.485  1.00  0.00    -0.200 A  
HETATM    9  C   UNL     1      -7.792  10.606  66.052  1.00  0.00    -0.156 A  
HETATM   10  C   UNL     1     -10.099  12.750  68.669  1.00  0.00    -0.132 A  
HETATM   11  C   UNL     1      -9.830  13.550  69.779  1.00  0.00     1.438 A  
HETATM   12  C   UNL     1      -7.274   9.323  65.846  1.00  0.00    -0.091 A  
HETATM   13  C   UNL     1      -8.867  14.547  69.686  1.00  0.00     0.448 A  
HETATM   14  C   UNL     1      -8.136   8.235  65.738  1.00  0.00    -0.109 A  
HETATM   15  C   UNL     1      -8.191  14.689  68.489  1.00  0.00    -0.152 A  
HETATM   16  C   UNL     1      -9.511   8.413  65.862  1.00  0.00    -0.169 A  
HETATM   17 BR   UNL     1      -7.438   6.513  65.387  1.00  0.00    -0.085 Br 
HETATM   18  N   UNL     1      -8.425  13.926  67.401  1.00  0.00    -0.189 NA 
HETATM   19  C   UNL     1     -10.030   9.694  66.061  1.00  0.00    -0.344 A  
ENDBRANCH   4   5
ENDBRANCH   2   4
TORSDOF 2
ENDMDL
MODEL      175
REMARK 921   NORMALIZED FREE ENERGY PREDICTED BY IDOCK:   -0.26 KCAL/MOL
REMARK 922        TOTAL FREE ENERGY PREDICTED BY IDOCK:   -0.45 KCAL/MOL
REMARK 923 INTER-LIGAND FREE ENERGY PREDICTED BY IDOCK:   -0.28 KCAL/MOL
REMARK 924 INTRA-LIGAND FREE ENERGY PREDICTED BY IDOCK:   -0.16 KCAL/MOL
REMARK 927      BINDING AFFINITY PREDICTED BY RF-SCORE:    0.00 PKD
ROOT
HETATM    1  C   UNL     1     -13.694   8.281  70.234  1.00  0.00     1.960 C  
HETATM    2  N   UNL     1     -12.441   9.025  70.393  1.00  0.00     0.286 NA 
HETATM    3  C   UNL     1     -12.597  10.027  71.451  1.00  0.00    -0.415 C  
ENDROOT
BRANCH   2   4
HETATM    4  C   UNL     1     -11.310   8.139  70.728  1.00  0.00    -0.270 C  
BRANCH   4   5
HETATM    5  C   UNL     1      -9.920   8.763  70.552  1.00  0.00    -0.227 C  
HETATM    6  C   UNL     1      -8.737   7.872  71.008  1.00  0.00    -0.138 C  
HETATM    7  C   UNL     1      -8.644   6.589  70.187  1.00  0.00    -0.140 A  
HETATM    8  C   UNL     1      -7.440   8.685  71.033  1.00  0.00    -0.090 A  
HETATM    9  C   UNL     1      -8.441   6.620  68.798  1.00  0.00    -0.123 A  
HETATM   10  C   UNL     1      -6.415   8.339  71.914  1.00  0.00    -0.061 A  
HETATM   11  C   UNL     1      -5.301   9.171  72.014  1.00  0.00    -0.061 A  
HETATM   12  C   UNL     1      -8.496   5.444  68.043  1.00  0.00    -0.097 A  
HETATM   13  C   UNL     1      -5.230  10.317  71.232  1.00  0.00    -0.082 A  
HETATM   14  C   UNL     1      -8.740   4.226  68.672  1.00  0.00    -0.096 A  
HETATM   15  C   UNL     1      -6.269  10.573  70.358  1.00  0.00    -0.128 A  
HETATM   16  C   UNL     1      -8.903   4.169  70.054  1.00  0.00    -0.130 A  
HETATM   17 BR   UNL     1      -8.886   2.648  67.641  1.00  0.00    -0.179 Br 
HETATM   18  N   UNL     1      -7.357   9.783  70.235  1.00  0.00    -0.146 NA 
HETATM   19  C   UNL     1      -8.854   5.344  70.807  1.00  0.00    -0.145 A  
ENDBRANCH   4   5
ENDBRANCH   2   4
TORSDOF 2
ENDMDL
MODEL      176
REMARK 921   NORMALIZED FREE ENERGY PREDICTED BY IDOCK:    0.26 KCAL/MOL
REMARK 922        TOTAL FREE ENERGY PREDICTED BY IDOCK:    0.13 KCAL/MOL
REMARK 923 INTER-LIGAND FREE ENERGY PREDICTED BY IDOCK:    0.31 KCAL/MOL
REMARK 924 INTRA-LIGAND FREE ENERGY PREDICTED BY IDOCK:   -0.18 KCAL/MOL
REMARK 927      BINDING AFFINITY PREDICTED BY RF-SCORE:    0.00 PKD
ROOT
HETATM    1  C   UNL     1      -6.774  20.501  63.988  1.00  0.00     0.091 C  
HETATM    2  N   UNL     1      -6.391  19.099  63.799  1.00  0.00     0.042 NA 
HETATM    3  C   UNL     1      -5.175  19.030  62.983  1.00  0.00    -0.256 C  
ENDROOT
BRANCH   2   4
HETATM    4  C   UNL     1      -6.152  18.412  65.082  1.00  0.00    -0.182 C  
BRANCH   4   5
HETATM    5  C   UNL     1      -6.927  18.978  66.279  1.00  0.00    -0.253 C  
HETATM    6  C   UNL     1      -8.020  18.043  66.854  1.00  0.00    -0.251 C  
HETATM    7  C   UNL     1      -7.426  16.752  67.411  1.00  0.00    -0.187 A  
HETATM    8  C   UNL     1      -8.894  18.803  67.856  1.00  0.00    -0.296 A  
HETATM    9  C   UNL     1      -6.498  16.766  68.464  1.00  0.00    -0.155 A  
HETATM   10  C   UNL     1     -10.221  18.422  68.056  1.00  0.00    -0.406 A  
HETATM   11  C   UNL     1     -11.034  19.208  68.871  1.00  0.00     1.134 A  
HETATM   12  C   UNL     1      -5.861  15.588  68.868  1.00  0.00    -0.102 A  
HETATM   13  C   UNL     1     -10.507  20.345  69.470  1.00  0.00     0.322 A  
HETATM   14  C   UNL     1      -6.158  14.385  68.233  1.00  0.00    -0.119 A  
HETATM   15  C   UNL     1      -9.175  20.638  69.251  1.00  0.00     1.288 A  
HETATM   16  C   UNL     1      -7.106  14.343  67.214  1.00  0.00     0.024 A  
HETATM   17 BR   UNL     1      -5.243  12.807  68.731  1.00  0.00    -0.064 Br 
HETATM   18  N   UNL     1      -8.361  19.891  68.473  1.00  0.00    -0.209 NA 
HETATM   19  C   UNL     1      -7.738  15.520  66.806  1.00  0.00    -0.111 A  
ENDBRANCH   4   5
ENDBRANCH   2   4
TORSDOF 2
ENDMDL
MODEL      177
REMARK 921   NORMALIZED FREE ENERGY PREDICTED BY IDOCK:    0.36 KCAL/MOL
REMARK 922        TOTAL FREE ENERGY PREDICTED BY IDOCK:    0.25 KCAL/MOL
REMARK 923 INTER-LIGAND FREE ENERGY PREDICTED BY IDOCK:    0.07 KCAL/MOL
REMARK 924 INTRA-LIGAND FREE ENERGY PREDICTED BY IDOCK:    0.17 KCAL/MOL
REMARK 927      BINDING AFFINITY PREDICTED BY RF-SCORE:    0.00 PKD
ROOT
HETATM    1  C   UNL     1      -7.561  19.128  65.824  1.00  0.00    -0.129 C  
HETATM    2  N   UNL     1      -7.238  17.782  65.344  1.00  0.00    -0.239 NA 
HETATM    3  C   UNL     1      -5.882  17.772  64.787  1.00  0.00     0.830 C  
ENDROOT
BRANCH   2   4
HETATM    4  C   UNL     1      -7.327  16.775  66.417  1.00  0.00    -0.226 C  
BRANCH   4   5
HETATM    5  C   UNL     1      -6.761  17.214  67.773  1.00  0.00    -0.162 C  
HETATM    6  C   UNL     1      -7.758  17.963  68.691  1.00  0.00    -0.293 C  
HETATM    7  C   UNL     1      -8.940  17.080  69.084  1.00  0.00    -0.050 A  
HETATM    8  C   UNL     1      -7.022  18.578  69.885  1.00  0.00     0.365 A  
HETATM    9  C   UNL     1      -8.756  15.886  69.799  1.00  0.00     0.198 A  
HETATM   10  C   UNL     1      -7.522  19.727  70.497  1.00  0.00     0.852 A  
HETATM   11  C   UNL     1      -6.766  20.344  71.494  1.00  0.00     0.496 A  
HETATM   12  C   UNL     1      -9.831  15.021  70.030  1.00  0.00     0.089 A  
HETATM   13  C   UNL     1      -5.542  19.800  71.860  1.00  0.00    -0.340 A  
HETATM   14  C   UNL     1     -11.101  15.352  69.561  1.00  0.00    -0.284 A  
HETATM   15  C   UNL     1      -5.131  18.640  71.230  1.00  0.00    -0.265 A  
HETATM   16  C   UNL     1     -11.311  16.551  68.887  1.00  0.00    -0.206 A  
HETATM   17 BR   UNL     1     -12.538  14.148  69.811  1.00  0.00    -0.007 Br 
HETATM   18  N   UNL     1      -5.844  18.017  70.268  1.00  0.00    -0.198 NA 
HETATM   19  C   UNL     1     -10.236  17.411  68.650  1.00  0.00    -0.361 A  
ENDBRANCH   4   5
ENDBRANCH   2   4
TORSDOF 2
ENDMDL
MODEL      178
REMARK 921   NORMALIZED FREE ENERGY PREDICTED BY IDOCK:    4.33 KCAL/MOL
REMARK 922        TOTAL FREE ENERGY PREDICTED BY IDOCK:    4.67 KCAL/MOL
REMARK 923 INTER-LIGAND FREE ENERGY PREDICTED BY IDOCK:    4.91 KCAL/MOL
REMARK 924 INTRA-LIGAND FREE ENERGY PREDICTED BY IDOCK:   -0.23 KCAL/MOL
REMARK 927      BINDING AFFINITY PREDICTED BY RF-SCORE:    0.00 PKD
ROOT
HETATM    1  C   UNL     1     -13.366  12.877  71.640  1.00  0.00    -0.269 C  
HETATM    2  N   UNL     1     -12.785  13.148  70.323  1.00  0.00    -0.030 NA 
HETATM    3  C   UNL     1     -12.687  14.597  70.120  1.00  0.00    -0.220 C  
ENDROOT
BRANCH   2   4
HETATM    4  C   UNL     1     -11.447  12.548  70.173  1.00  0.00     0.075 C  
BRANCH   4   5
HETATM    5  C   UNL     1     -11.305  11.550  69.016  1.00  0.00    -0.339 C  
HETATM    6  C   UNL     1     -10.648  10.199  69.391  1.00  0.00    -0.261 C  
HETATM    7  C   UNL     1     -11.482   9.425  70.409  1.00  0.00    -0.272 A  
HETATM    8  C   UNL     1     -10.321   9.400  68.126  1.00  0.00    -0.211 A  
HETATM    9  C   UNL     1     -12.796   9.020  70.125  1.00  0.00     1.152 A  
HETATM   10  C   UNL     1      -9.261   8.494  68.126  1.00  0.00    -0.142 A  
HETATM   11  C   UNL     1      -8.898   7.878  66.929  1.00  0.00    -0.146 A  
HETATM   12  C   UNL     1     -13.591   8.436  71.115  1.00  0.00    -0.056 A  
HETATM   13  C   UNL     1      -9.602   8.171  65.768  1.00  0.00     0.111 A  
HETATM   14  C   UNL     1     -13.075   8.239  72.394  1.00  0.00    -0.170 A  
HETATM   15  C   UNL     1     -10.662   9.053  65.856  1.00  0.00     1.330 A  
HETATM   16  C   UNL     1     -11.761   8.596  72.684  1.00  0.00    -0.206 A  
HETATM   17 BR   UNL     1     -14.175   7.517  73.751  1.00  0.00     4.957 Br 
HETATM   18  N   UNL     1     -11.041   9.659  67.001  1.00  0.00     0.050 NA 
HETATM   19  C   UNL     1     -10.968   9.186  71.697  1.00  0.00    -0.445 A  
ENDBRANCH   4   5
ENDBRANCH   2   4
TORSDOF 2
ENDMDL
MODEL      179
REMARK 921   NORMALIZED FREE ENERGY PREDICTED BY IDOCK:    5.19 KCAL/MOL
REMARK 922        TOTAL FREE ENERGY PREDICTED BY IDOCK:    5.63 KCAL/MOL
REMARK 923 INTER-LIGAND FREE ENERGY PREDICTED BY IDOCK:    2.35 KCAL/MOL
REMARK 924 INTRA-LIGAND FREE ENERGY PREDICTED BY IDOCK:    3.28 KCAL/MOL
REMARK 927      BINDING AFFINITY PREDICTED BY RF-SCORE:    0.00 PKD
ROOT
HETATM    1  C   UNL     1     -13.287  13.672  70.736  1.00  0.00     0.131 C  
HETATM    2  N   UNL     1     -12.807  12.770  69.686  1.00  0.00     0.621 NA 
HETATM    3  C   UNL     1     -12.743  13.492  68.412  1.00  0.00     1.050 C  
ENDROOT
BRANCH   2   4
HETATM    4  C   UNL     1     -11.475  12.218  69.996  1.00  0.00    -0.053 C  
BRANCH   4   5
HETATM    5  C   UNL     1     -10.301  13.177  69.764  1.00  0.00     1.068 C  
HETATM    6  C   UNL     1      -9.479  12.910  68.479  1.00  0.00    -0.098 C  
HETATM    7  C   UNL     1     -10.322  13.090  67.219  1.00  0.00    -0.238 A  
HETATM    8  C   UNL     1      -8.196  13.746  68.488  1.00  0.00    -0.124 A  
HETATM    9  C   UNL     1     -10.922  14.320  66.907  1.00  0.00    -0.304 A  
HETATM   10  C   UNL     1      -7.063  13.293  67.811  1.00  0.00    -0.149 A  
HETATM   11  C   UNL     1      -5.869  14.002  67.943  1.00  0.00    -0.129 A  
HETATM   12  C   UNL     1     -11.802  14.430  65.825  1.00  0.00    -0.365 A  
HETATM   13  C   UNL     1      -5.835  15.143  68.735  1.00  0.00    -0.089 A  
HETATM   14  C   UNL     1     -12.076  13.314  65.038  1.00  0.00    -0.408 A  
HETATM   15  C   UNL     1      -7.007  15.546  69.345  1.00  0.00    -0.187 A  
HETATM   16  C   UNL     1     -11.459  12.096  65.305  1.00  0.00    -0.388 A  
HETATM   17 BR   UNL     1     -13.321  13.447  63.621  1.00  0.00     2.446 Br 
HETATM   18  N   UNL     1      -8.179  14.885  69.230  1.00  0.00    -0.157 NA 
HETATM   19  C   UNL     1     -10.585  11.984  66.389  1.00  0.00    -0.278 A  
ENDBRANCH   4   5
ENDBRANCH   2   4
TORSDOF 2
ENDMDL
MODEL      180
REMARK 921   NORMALIZED FREE ENERGY PREDICTED BY IDOCK:    8.29 KCAL/MOL
REMARK 922        TOTAL FREE ENERGY PREDICTED BY IDOCK:    9.10 KCAL/MOL
REMARK 923 INTER-LIGAND FREE ENERGY PREDICTED BY IDOCK:    8.07 KCAL/MOL
REMARK 924 INTRA-LIGAND FREE ENERGY PREDICTED BY IDOCK:    1.03 KCAL/MOL
REMARK 927      BINDING AFFINITY PREDICTED BY RF-SCORE:    0.00 PKD
ROOT
HETATM    1  C   UNL     1      -8.039  19.694  64.994  1.00  0.00     1.375 C  
HETATM    2  N   UNL     1      -7.020  18.802  65.553  1.00  0.00    -0.487 NA 
HETATM    3  C   UNL     1      -6.305  18.131  64.464  1.00  0.00     1.298 C  
ENDROOT
BRANCH   2   4
HETATM    4  C   UNL     1      -6.050  19.528  66.394  1.00  0.00    -0.164 C  
BRANCH   4   5
HETATM    5  C   UNL     1      -6.457  19.696  67.863  1.00  0.00    -0.257 C  
HETATM    6  C   UNL     1      -7.837  19.099  68.235  1.00  0.00    -0.351 C  
HETATM    7  C   UNL     1      -7.871  17.585  68.041  1.00  0.00    -0.225 A  
HETATM    8  C   UNL     1      -8.250  19.552  69.638  1.00  0.00     0.401 A  
HETATM    9  C   UNL     1      -7.007  16.736  68.751  1.00  0.00    -0.197 A  
HETATM   10  C   UNL     1      -9.601  19.661  69.968  1.00  0.00     0.544 A  
HETATM   11  C   UNL     1      -9.954  20.202  71.204  1.00  0.00     2.071 A  
HETATM   12  C   UNL     1      -6.955  15.369  68.461  1.00  0.00    -0.113 A  
HETATM   13  C   UNL     1      -8.957  20.610  72.081  1.00  0.00     2.569 A  
HETATM   14  C   UNL     1      -7.778  14.837  67.471  1.00  0.00    -0.194 A  
HETATM   15  C   UNL     1      -7.641  20.437  71.696  1.00  0.00     1.777 A  
HETATM   16  C   UNL     1      -8.671  15.656  66.785  1.00  0.00    -0.306 A  
HETATM   17 BR   UNL     1      -7.655  13.003  67.030  1.00  0.00     0.224 Br 
HETATM   18  N   UNL     1      -7.270  19.911  70.509  1.00  0.00     0.346 NA 
HETATM   19  C   UNL     1      -8.718  17.022  67.069  1.00  0.00    -0.240 A  
ENDBRANCH   4   5
ENDBRANCH   2   4
TORSDOF 2
ENDMDL
MODEL      181
REMARK 921   NORMALIZED FREE ENERGY PREDICTED BY IDOCK:   10.07 KCAL/MOL
REMARK 922        TOTAL FREE ENERGY PREDICTED BY IDOCK:   11.09 KCAL/MOL
REMARK 923 INTER-LIGAND FREE ENERGY PREDICTED BY IDOCK:   11.27 KCAL/MOL
REMARK 924 INTRA-LIGAND FREE ENERGY PREDICTED BY IDOCK:   -0.18 KCAL/MOL
REMARK 927      BINDING AFFINITY PREDICTED BY RF-SCORE:    0.00 PKD
ROOT
HETATM    1  C   UNL     1      -6.744  19.442  72.290  1.00  0.00     1.790 C  
HETATM    2  N   UNL     1      -7.519  19.717  71.077  1.00  0.00     1.119 NA 
HETATM    3  C   UNL     1      -6.612  19.826  69.931  1.00  0.00    -0.290 C  
ENDROOT
BRANCH   2   4
HETATM    4  C   UNL     1      -8.516  18.665  70.805  1.00  0.00     4.496 C  
BRANCH   4   5
HETATM    5  C   UNL     1      -9.241  18.785  69.459  1.00  0.00     0.384 C  
HETATM    6  C   UNL     1      -9.455  17.449  68.707  1.00  0.00    -0.256 C  
HETATM    7  C   UNL     1     -10.349  16.492  69.492  1.00  0.00    -0.266 A  
HETATM    8  C   UNL     1      -9.941  17.716  67.279  1.00  0.00    -0.322 A  
HETATM    9  C   UNL     1     -11.670  16.831  69.827  1.00  0.00     0.783 A  
HETATM   10  C   UNL     1      -9.655  16.805  66.262  1.00  0.00    -0.313 A  
HETATM   11  C   UNL     1      -9.990  17.132  64.948  1.00  0.00     1.644 A  
HETATM   12  C   UNL     1     -12.427  16.004  70.663  1.00  0.00    -0.086 A  
HETATM   13  C   UNL     1     -10.606  18.348  64.682  1.00  0.00     2.964 A  
HETATM   14  C   UNL     1     -11.875  14.826  71.159  1.00  0.00    -0.334 A  
HETATM   15  C   UNL     1     -10.887  19.182  65.748  1.00  0.00    -0.205 A  
HETATM   16  C   UNL     1     -10.582  14.452  70.805  1.00  0.00     0.975 A  
HETATM   17 BR   UNL     1     -12.874  13.747  72.348  1.00  0.00    -0.316 Br 
HETATM   18  N   UNL     1     -10.581  18.889  67.030  1.00  0.00    -0.429 NA 
HETATM   19  C   UNL     1      -9.823  15.280  69.976  1.00  0.00    -0.072 A  
ENDBRANCH   4   5
ENDBRANCH   2   4
TORSDOF 2
ENDMDL
MODEL      182
REMARK 921   NORMALIZED FREE ENERGY PREDICTED BY IDOCK:   11.44 KCAL/MOL
REMARK 922        TOTAL FREE ENERGY PREDICTED BY IDOCK:   12.62 KCAL/MOL
REMARK 923 INTER-LIGAND FREE ENERGY PREDICTED BY IDOCK:   -2.19 KCAL/MOL
REMARK 924 INTRA-LIGAND FREE ENERGY PREDICTED BY IDOCK:   14.81 KCAL/MOL
REMARK 927      BINDING AFFINITY PREDICTED BY RF-SCORE:    0.00 PKD
ROOT
HETATM    1  C   UNL     1      -7.947   9.744  66.502  1.00  0.00    -0.112 C  
HETATM    2  N   UNL     1      -8.060   9.508  67.944  1.00  0.00    -0.106 NA 
HETATM    3  C   UNL     1      -6.791   9.840  68.597  1.00  0.00    -0.051 C  
ENDROOT
BRANCH   2   4
HETATM    4  C   UNL     1      -9.141  10.306  68.553  1.00  0.00    -0.138 C  
BRANCH   4   5
HETATM    5  C   UNL     1      -9.799  11.331  67.621  1.00  0.00    -0.190 C  
HETATM    6  C   UNL     1      -8.815  12.244  66.849  1.00  0.00    -0.207 C  
HETATM    7  C   UNL     1      -7.923  11.444  65.903  1.00  0.00     0.171 A  
HETATM    8  C   UNL     1      -9.576  13.384  66.165  1.00  0.00    -0.202 A  
HETATM    9  C   UNL     1      -8.463  10.680  64.856  1.00  0.00    -0.116 A  
HETATM   10  C   UNL     1      -8.941  14.603  65.928  1.00  0.00     0.297 A  
HETATM   11  C   UNL     1      -9.689  15.668  65.427  1.00  0.00    -0.193 A  
HETATM   12  C   UNL     1      -7.645   9.846  64.087  1.00  0.00    -0.139 A  
HETATM   13  C   UNL     1     -11.042  15.492  65.169  1.00  0.00    -0.382 A  
HETATM   14  C   UNL     1      -6.279   9.782  64.348  1.00  0.00    -0.110 A  
HETATM   15  C   UNL     1     -11.591  14.244  65.398  1.00  0.00    -0.346 A  
HETATM   16  C   UNL     1      -5.718  10.563  65.354  1.00  0.00    -0.139 A  
HETATM   17 BR   UNL     1      -5.187   8.600  63.356  1.00  0.00    -0.063 Br 
HETATM   18  N   UNL     1     -10.890  13.193  65.875  1.00  0.00    -0.272 NA 
HETATM   19  C   UNL     1      -6.535  11.391  66.127  1.00  0.00     0.107 A  
ENDBRANCH   4   5
ENDBRANCH   2   4
TORSDOF 2
ENDMDL
MODEL      183
REMARK 921   NORMALIZED FREE ENERGY PREDICTED BY IDOCK:   12.80 KCAL/MOL
REMARK 922        TOTAL FREE ENERGY PREDICTED BY IDOCK:   14.13 KCAL/MOL
REMARK 923 INTER-LIGAND FREE ENERGY PREDICTED BY IDOCK:   10.68 KCAL/MOL
REMARK 924 INTRA-LIGAND FREE ENERGY PREDICTED BY IDOCK:    3.45 KCAL/MOL
REMARK 927      BINDING AFFINITY PREDICTED BY RF-SCORE:    0.00 PKD
ROOT
HETATM    1  C   UNL     1      -8.679  15.234  68.135  1.00  0.00    -0.162 C  
HETATM    2  N   UNL     1      -8.457  13.862  68.600  1.00  0.00    -0.126 NA 
HETATM    3  C   UNL     1      -9.241  13.624  69.815  1.00  0.00     1.781 C  
ENDROOT
BRANCH   2   4
HETATM    4  C   UNL     1      -8.829  12.864  67.580  1.00  0.00    -0.187 C  
BRANCH   4   5
HETATM    5  C   UNL     1      -8.299  11.447  67.831  1.00  0.00    -0.137 C  
HETATM    6  C   UNL     1      -8.357  10.975  69.305  1.00  0.00     0.033 C  
HETATM    7  C   UNL     1      -9.791  10.900  69.821  1.00  0.00     0.304 A  
HETATM    8  C   UNL     1      -7.570   9.672  69.476  1.00  0.00    -0.104 A  
HETATM    9  C   UNL     1     -10.741  10.054  69.227  1.00  0.00    -0.249 A  
HETATM   10  C   UNL     1      -6.984   9.366  70.705  1.00  0.00    -0.115 A  
HETATM   11  C   UNL     1      -6.163   8.243  70.800  1.00  0.00    -0.033 A  
HETATM   12  C   UNL     1     -12.082  10.099  69.621  1.00  0.00     0.012 A  
HETATM   13  C   UNL     1      -5.952   7.452  69.678  1.00  0.00    -0.024 A  
HETATM   14  C   UNL     1     -12.481  10.981  70.623  1.00  0.00    -0.373 A  
HETATM   15  C   UNL     1      -6.595   7.802  68.506  1.00  0.00    -0.057 A  
HETATM   16  C   UNL     1     -11.547  11.799  71.253  1.00  0.00     1.383 A  
HETATM   17 BR   UNL     1     -14.306  11.093  71.104  1.00  0.00     3.663 Br 
HETATM   18  N   UNL     1      -7.401   8.879  68.385  1.00  0.00    -0.081 NA 
HETATM   19  C   UNL     1     -10.209  11.758  70.855  1.00  0.00     5.153 A  
ENDBRANCH   4   5
ENDBRANCH   2   4
TORSDOF 2
ENDMDL
MODEL      184
REMARK 921   NORMALIZED FREE ENERGY PREDICTED BY IDOCK:   23.83 KCAL/MOL
REMARK 922        TOTAL FREE ENERGY PREDICTED BY IDOCK:   26.46 KCAL/MOL
REMARK 923 INTER-LIGAND FREE ENERGY PREDICTED BY IDOCK:   26.62 KCAL/MOL
REMARK 924 INTRA-LIGAND FREE ENERGY PREDICTED BY IDOCK:   -0.16 KCAL/MOL
REMARK 927      BINDING AFFINITY PREDICTED BY RF-SCORE:    0.00 PKD
ROOT
HETATM    1  C   UNL     1     -11.156  17.375  71.418  1.00  0.00     1.704 C  
HETATM    2  N   UNL     1      -9.695  17.470  71.469  1.00  0.00     6.051 NA 
HETATM    3  C   UNL     1      -9.222  17.039  72.787  1.00  0.00    14.292 C  
ENDROOT
BRANCH   2   4
HETATM    4  C   UNL     1      -9.050  16.646  70.430  1.00  0.00     2.488 C  
BRANCH   4   5
HETATM    5  C   UNL     1      -9.924  16.335  69.208  1.00  0.00    -0.259 C  
HETATM    6  C   UNL     1      -9.193  15.629  68.039  1.00  0.00    -0.184 C  
HETATM    7  C   UNL     1      -8.670  14.253  68.445  1.00  0.00    -0.181 A  
HETATM    8  C   UNL     1     -10.082  15.609  66.793  1.00  0.00    -0.272 A  
HETATM    9  C   UNL     1      -9.538  13.237  68.876  1.00  0.00     0.179 A  
HETATM   10  C   UNL     1      -9.505  15.587  65.523  1.00  0.00    -0.168 A  
HETATM   11  C   UNL     1     -10.329  15.704  64.404  1.00  0.00     0.975 A  
HETATM   12  C   UNL     1      -9.032  12.032  69.375  1.00  0.00     1.019 A  
HETATM   13  C   UNL     1     -11.702  15.830  64.576  1.00  0.00    -0.191 A  
HETATM   14  C   UNL     1      -7.655  11.828  69.432  1.00  0.00     0.278 A  
HETATM   15  C   UNL     1     -12.201  15.809  65.864  1.00  0.00     1.291 A  
HETATM   16  C   UNL     1      -6.780  12.807  68.970  1.00  0.00    -0.096 A  
HETATM   17 BR   UNL     1      -6.972  10.229  70.173  1.00  0.00    -0.133 Br 
HETATM   18  N   UNL     1     -11.428  15.690  66.966  1.00  0.00    -0.060 NA 
HETATM   19  C   UNL     1      -7.284  14.013  68.479  1.00  0.00    -0.109 A  
ENDBRANCH   4   5
ENDBRANCH   2   4
TORSDOF 2
ENDMDL
MODEL      185
REMARK 921   NORMALIZED FREE ENERGY PREDICTED BY IDOCK:   38.35 KCAL/MOL
REMARK 922        TOTAL FREE ENERGY PREDICTED BY IDOCK:   42.67 KCAL/MOL
REMARK 923 INTER-LIGAND FREE ENERGY PREDICTED BY IDOCK:   25.19 KCAL/MOL
REMARK 924 INTRA-LIGAND FREE ENERGY PREDICTED BY IDOCK:   17.48 KCAL/MOL
REMARK 927      BINDING AFFINITY PREDICTED BY RF-SCORE:    0.00 PKD
ROOT
HETATM    1  C   UNL     1     -11.277  21.174  65.047  1.00  0.00     3.135 C  
HETATM    2  N   UNL     1     -10.189  20.195  64.979  1.00  0.00     0.237 NA 
HETATM    3  C   UNL     1      -9.970  19.612  66.305  1.00  0.00    -0.466 C  
ENDROOT
BRANCH   2   4
HETATM    4  C   UNL     1     -10.476  19.114  64.017  1.00  0.00     8.106 C  
BRANCH   4   5
HETATM    5  C   UNL     1     -10.202  17.695  64.530  1.00  0.00     3.556 C  
HETATM    6  C   UNL     1      -9.118  17.592  65.632  1.00  0.00     0.532 C  
HETATM    7  C   UNL     1      -9.524  18.342  66.898  1.00  0.00    -0.290 A  
HETATM    8  C   UNL     1      -8.746  16.127  65.874  1.00  0.00    -0.091 A  
HETATM    9  C   UNL     1     -10.678  17.994  67.618  1.00  0.00    -0.360 A  
HETATM   10  C   UNL     1      -7.470  15.797  66.333  1.00  0.00     0.455 A  
HETATM   11  C   UNL     1      -7.109  14.453  66.418  1.00  0.00     2.746 A  
HETATM   12  C   UNL     1     -11.110  18.776  68.694  1.00  0.00     1.074 A  
HETATM   13  C   UNL     1      -8.026  13.475  66.054  1.00  0.00     2.263 A  
HETATM   14  C   UNL     1     -10.383  19.903  69.069  1.00  0.00    -0.129 A  
HETATM   15  C   UNL     1      -9.281  13.880  65.642  1.00  0.00     0.432 A  
HETATM   16  C   UNL     1      -9.213  20.242  68.393  1.00  0.00    -0.023 A  
HETATM   17 BR   UNL     1     -11.007  21.000  70.476  1.00  0.00     4.619 Br 
HETATM   18  N   UNL     1      -9.661  15.173  65.556  1.00  0.00    -0.268 NA 
HETATM   19  C   UNL     1      -8.786  19.465  67.315  1.00  0.00    -0.336 A  
ENDBRANCH   4   5
ENDBRANCH   2   4
TORSDOF 2
ENDMDL
MODEL      186
REMARK 921   NORMALIZED FREE ENERGY PREDICTED BY IDOCK:   51.88 KCAL/MOL
REMARK 922        TOTAL FREE ENERGY PREDICTED BY IDOCK:   57.79 KCAL/MOL
REMARK 923 INTER-LIGAND FREE ENERGY PREDICTED BY IDOCK:   57.24 KCAL/MOL
REMARK 924 INTRA-LIGAND FREE ENERGY PREDICTED BY IDOCK:    0.55 KCAL/MOL
REMARK 927      BINDING AFFINITY PREDICTED BY RF-SCORE:    0.00 PKD
ROOT
HETATM    1  C   UNL     1      -8.563  18.324  64.290  1.00  0.00     8.864 C  
HETATM    2  N   UNL     1      -7.790  17.094  64.097  1.00  0.00     8.776 NA 
HETATM    3  C   UNL     1      -7.648  16.825  62.664  1.00  0.00    25.508 C  
ENDROOT
BRANCH   2   4
HETATM    4  C   UNL     1      -6.450  17.181  64.708  1.00  0.00     4.052 C  
BRANCH   4   5
HETATM    5  C   UNL     1      -6.436  17.271  66.239  1.00  0.00    -0.232 C  
HETATM    6  C   UNL     1      -7.740  16.810  66.936  1.00  0.00    -0.254 C  
HETATM    7  C   UNL     1      -8.027  15.332  66.683  1.00  0.00     0.007 A  
HETATM    8  C   UNL     1      -7.710  17.188  68.420  1.00  0.00    -0.237 A  
HETATM    9  C   UNL     1      -7.131  14.331  67.092  1.00  0.00     0.262 A  
HETATM   10  C   UNL     1      -8.902  17.426  69.104  1.00  0.00     0.060 A  
HETATM   11  C   UNL     1      -8.846  17.898  70.415  1.00  0.00     3.604 A  
HETATM   12  C   UNL     1      -7.341  12.997  66.731  1.00  0.00     0.608 A  
HETATM   13  C   UNL     1      -7.611  18.112  71.013  1.00  0.00     5.165 A  
HETATM   14  C   UNL     1      -8.455  12.650  65.971  1.00  0.00     0.731 A  
HETATM   15  C   UNL     1      -6.475  17.821  70.281  1.00  0.00     0.553 A  
HETATM   16  C   UNL     1      -9.377  13.622  65.591  1.00  0.00     0.229 A  
HETATM   17 BR   UNL     1      -8.699  10.857  65.422  1.00  0.00    -0.122 Br 
HETATM   18  N   UNL     1      -6.499  17.356  69.013  1.00  0.00    -0.214 NA 
HETATM   19  C   UNL     1      -9.164  14.956  65.946  1.00  0.00    -0.115 A  
ENDBRANCH   4   5
ENDBRANCH   2   4
TORSDOF 2
ENDMDL
