MODEL        1
REMARK 921   NORMALIZED FREE ENERGY PREDICTED BY IDOCK:   -4.55 KCAL/MOL
REMARK 922        TOTAL FREE ENERGY PREDICTED BY IDOCK:   -4.93 KCAL/MOL
REMARK 923 INTER-LIGAND FREE ENERGY PREDICTED BY IDOCK:   -4.81 KCAL/MOL
REMARK 924 INTRA-LIGAND FREE ENERGY PREDICTED BY IDOCK:   -0.12 KCAL/MOL
REMARK 927      BINDING AFFINITY PREDICTED BY RF-SCORE:    0.00 PKD
ROOT
HETATM    1 BR   UNL     1      -9.680  16.112  67.496  1.00  0.00    -0.235 Br 
HETATM    2  C   UNL     1      -9.580  14.627  66.230  1.00  0.00    -0.308 C  
HETATM    3  C   UNL     1     -10.927  14.325  65.566  1.00  0.00    -0.319 C  
HETATM    4 BR   UNL     1     -10.613  12.736  64.388  1.00  0.00    -0.428 Br 
HETATM    5  C   UNL     1     -11.281  15.467  64.627  1.00  0.00    -0.371 C  
HETATM    6  C   UNL     1     -12.101  13.989  66.503  1.00  0.00    -0.488 C  
HETATM    7  N   UNL     1     -11.575  16.415  63.849  1.00  0.00    -1.602 NA 
HETATM    8  H2  UNL     1     -11.337  15.648  64.479  1.00  0.00     0.000 HD 
HETATM    9  H1  UNL     1     -11.813  17.181  63.219  1.00  0.00     0.000 HD 
ENDROOT
BRANCH   6  10
HETATM   10  C   UNL     1     -11.809  12.898  67.543  1.00  0.00    -0.407 C  
HETATM   11  C   UNL     1     -11.986  13.415  68.906  1.00  0.00    -0.324 C  
HETATM   12  N   UNL     1     -12.130  13.824  69.981  1.00  0.00    -0.333 NA 
ENDBRANCH   6  10
TORSDOF 1
ENDMDL
MODEL        2
REMARK 921   NORMALIZED FREE ENERGY PREDICTED BY IDOCK:   -4.37 KCAL/MOL
REMARK 922        TOTAL FREE ENERGY PREDICTED BY IDOCK:   -4.74 KCAL/MOL
REMARK 923 INTER-LIGAND FREE ENERGY PREDICTED BY IDOCK:   -4.67 KCAL/MOL
REMARK 924 INTRA-LIGAND FREE ENERGY PREDICTED BY IDOCK:   -0.07 KCAL/MOL
REMARK 927      BINDING AFFINITY PREDICTED BY RF-SCORE:    0.00 PKD
ROOT
HETATM    1 BR   UNL     1     -12.647  12.256  63.489  1.00  0.00    -0.488 Br 
HETATM    2  C   UNL     1     -12.643  13.069  65.266  1.00  0.00    -0.457 C  
HETATM    3  C   UNL     1     -11.426  13.969  65.502  1.00  0.00    -0.318 C  
HETATM    4 BR   UNL     1     -11.583  14.618  67.390  1.00  0.00    -0.406 Br 
HETATM    5  C   UNL     1     -11.552  15.208  64.630  1.00  0.00    -0.357 C  
HETATM    6  C   UNL     1     -10.041  13.315  65.345  1.00  0.00    -0.267 C  
HETATM    7  N   UNL     1     -11.657  16.235  63.907  1.00  0.00    -1.573 NA 
HETATM    8  H2  UNL     1     -11.572  15.404  64.492  1.00  0.00     0.000 HD 
HETATM    9  H1  UNL     1     -11.742  17.067  63.323  1.00  0.00     0.000 HD 
ENDROOT
BRANCH   6  10
HETATM   10  C   UNL     1      -9.847  12.008  66.128  1.00  0.00    -0.255 C  
HETATM   11  C   UNL     1      -9.712  10.867  65.214  1.00  0.00    -0.246 C  
HETATM   12  N   UNL     1      -9.601   9.968  64.491  1.00  0.00    -0.303 NA 
ENDBRANCH   6  10
TORSDOF 1
ENDMDL
MODEL        3
REMARK 921   NORMALIZED FREE ENERGY PREDICTED BY IDOCK:   -4.28 KCAL/MOL
REMARK 922        TOTAL FREE ENERGY PREDICTED BY IDOCK:   -4.65 KCAL/MOL
REMARK 923 INTER-LIGAND FREE ENERGY PREDICTED BY IDOCK:   -4.55 KCAL/MOL
REMARK 924 INTRA-LIGAND FREE ENERGY PREDICTED BY IDOCK:   -0.10 KCAL/MOL
REMARK 927      BINDING AFFINITY PREDICTED BY RF-SCORE:    0.00 PKD
ROOT
HETATM    1 BR   UNL     1     -12.003  12.424  64.021  1.00  0.00    -0.591 Br 
HETATM    2  C   UNL     1     -10.309  12.237  64.978  1.00  0.00    -0.291 C  
HETATM    3  C   UNL     1     -10.388  12.739  66.423  1.00  0.00    -0.258 C  
HETATM    4 BR   UNL     1      -8.543  12.532  67.176  1.00  0.00    -0.193 Br 
HETATM    5  C   UNL     1     -11.267  11.795  67.227  1.00  0.00    -0.305 C  
HETATM    6  C   UNL     1     -10.814  14.205  66.624  1.00  0.00    -0.299 C  
HETATM    7  N   UNL     1     -11.996  11.012  67.894  1.00  0.00    -0.727 NA 
HETATM    8  H2  UNL     1     -11.406  11.645  67.354  1.00  0.00     0.000 HD 
HETATM    9  H1  UNL     1     -12.586  10.378  68.433  1.00  0.00     0.000 HD 
ENDROOT
BRANCH   6  10
HETATM   10  C   UNL     1     -10.032  15.228  65.787  1.00  0.00    -0.391 C  
HETATM   11  C   UNL     1     -10.917  15.905  64.830  1.00  0.00    -0.411 C  
HETATM   12  N   UNL     1     -11.617  16.441  64.078  1.00  0.00    -1.082 NA 
ENDBRANCH   6  10
TORSDOF 1
ENDMDL
MODEL        4
REMARK 921   NORMALIZED FREE ENERGY PREDICTED BY IDOCK:   -4.27 KCAL/MOL
REMARK 922        TOTAL FREE ENERGY PREDICTED BY IDOCK:   -4.64 KCAL/MOL
REMARK 923 INTER-LIGAND FREE ENERGY PREDICTED BY IDOCK:   -4.59 KCAL/MOL
REMARK 924 INTRA-LIGAND FREE ENERGY PREDICTED BY IDOCK:   -0.05 KCAL/MOL
REMARK 927      BINDING AFFINITY PREDICTED BY RF-SCORE:    0.00 PKD
ROOT
HETATM    1 BR   UNL     1      -8.280  16.082  66.475  1.00  0.00    -0.310 Br 
HETATM    2  C   UNL     1      -9.423  14.524  66.183  1.00  0.00    -0.259 C  
HETATM    3  C   UNL     1     -10.914  14.876  66.187  1.00  0.00    -0.334 C  
HETATM    4 BR   UNL     1     -11.887  13.140  65.958  1.00  0.00    -0.485 Br 
HETATM    5  C   UNL     1     -11.232  15.690  64.943  1.00  0.00    -0.369 C  
HETATM    6  C   UNL     1     -11.461  15.557  67.454  1.00  0.00    -0.140 C  
HETATM    7  N   UNL     1     -11.495  16.365  63.911  1.00  0.00    -1.618 NA 
HETATM    8  H2  UNL     1     -11.282  15.819  64.746  1.00  0.00     0.000 HD 
HETATM    9  H1  UNL     1     -11.709  16.912  63.077  1.00  0.00     0.000 HD 
ENDROOT
BRANCH   6  10
HETATM   10  C   UNL     1     -11.119  14.846  68.772  1.00  0.00    -0.274 C  
HETATM   11  C   UNL     1     -12.057  15.235  69.833  1.00  0.00    -0.343 C  
HETATM   12  N   UNL     1     -12.799  15.541  70.669  1.00  0.00    -0.457 NA 
ENDBRANCH   6  10
TORSDOF 1
ENDMDL
MODEL        5
REMARK 921   NORMALIZED FREE ENERGY PREDICTED BY IDOCK:   -4.24 KCAL/MOL
REMARK 922        TOTAL FREE ENERGY PREDICTED BY IDOCK:   -4.60 KCAL/MOL
REMARK 923 INTER-LIGAND FREE ENERGY PREDICTED BY IDOCK:   -4.53 KCAL/MOL
REMARK 924 INTRA-LIGAND FREE ENERGY PREDICTED BY IDOCK:   -0.07 KCAL/MOL
REMARK 927      BINDING AFFINITY PREDICTED BY RF-SCORE:    0.00 PKD
ROOT
HETATM    1 BR   UNL     1     -12.262  12.182  63.471  1.00  0.00    -0.644 Br 
HETATM    2  C   UNL     1     -12.495  13.023  65.219  1.00  0.00    -0.499 C  
HETATM    3  C   UNL     1     -11.366  14.000  65.560  1.00  0.00    -0.313 C  
HETATM    4 BR   UNL     1     -11.761  14.671  67.406  1.00  0.00    -0.378 Br 
HETATM    5  C   UNL     1     -11.472  15.214  64.652  1.00  0.00    -0.362 C  
HETATM    6  C   UNL     1      -9.936  13.431  65.565  1.00  0.00    -0.226 C  
HETATM    7  N   UNL     1     -11.561  16.221  63.898  1.00  0.00    -1.573 NA 
HETATM    8  H2  UNL     1     -11.489  15.407  64.508  1.00  0.00     0.000 HD 
HETATM    9  H1  UNL     1     -11.632  17.036  63.288  1.00  0.00     0.000 HD 
ENDROOT
BRANCH   6  10
HETATM   10  C   UNL     1      -9.749  12.152  66.395  1.00  0.00    -0.243 C  
HETATM   11  C   UNL     1      -8.488  12.197  67.145  1.00  0.00    -0.182 C  
HETATM   12  N   UNL     1      -7.493  12.235  67.739  1.00  0.00    -0.114 NA 
ENDBRANCH   6  10
TORSDOF 1
ENDMDL
MODEL        6
REMARK 921   NORMALIZED FREE ENERGY PREDICTED BY IDOCK:   -4.17 KCAL/MOL
REMARK 922        TOTAL FREE ENERGY PREDICTED BY IDOCK:   -4.53 KCAL/MOL
REMARK 923 INTER-LIGAND FREE ENERGY PREDICTED BY IDOCK:   -4.41 KCAL/MOL
REMARK 924 INTRA-LIGAND FREE ENERGY PREDICTED BY IDOCK:   -0.12 KCAL/MOL
REMARK 927      BINDING AFFINITY PREDICTED BY RF-SCORE:    0.00 PKD
ROOT
HETATM    1 BR   UNL     1     -12.322  12.676  64.813  1.00  0.00    -0.548 Br 
HETATM    2  C   UNL     1     -12.136  13.946  66.287  1.00  0.00    -0.451 C  
HETATM    3  C   UNL     1     -10.905  14.846  66.140  1.00  0.00    -0.327 C  
HETATM    4 BR   UNL     1     -10.866  15.993  67.781  1.00  0.00    -0.306 Br 
HETATM    5  C   UNL     1     -11.128  15.800  64.978  1.00  0.00    -0.370 C  
HETATM    6  C   UNL     1      -9.541  14.140  66.028  1.00  0.00    -0.251 C  
HETATM    7  N   UNL     1     -11.313  16.592  64.014  1.00  0.00    -1.559 NA 
HETATM    8  H2  UNL     1     -11.163  15.951  64.794  1.00  0.00     0.000 HD 
HETATM    9  H1  UNL     1     -11.463  17.232  63.234  1.00  0.00     0.000 HD 
ENDROOT
BRANCH   6  10
HETATM   10  C   UNL     1      -9.260  13.096  67.118  1.00  0.00    -0.227 C  
HETATM   11  C   UNL     1      -8.967  11.786  66.522  1.00  0.00    -0.196 C  
HETATM   12  N   UNL     1      -8.734  10.753  66.049  1.00  0.00    -0.177 NA 
ENDBRANCH   6  10
TORSDOF 1
ENDMDL
MODEL        7
REMARK 921   NORMALIZED FREE ENERGY PREDICTED BY IDOCK:   -4.10 KCAL/MOL
REMARK 922        TOTAL FREE ENERGY PREDICTED BY IDOCK:   -4.45 KCAL/MOL
REMARK 923 INTER-LIGAND FREE ENERGY PREDICTED BY IDOCK:   -4.34 KCAL/MOL
REMARK 924 INTRA-LIGAND FREE ENERGY PREDICTED BY IDOCK:   -0.12 KCAL/MOL
REMARK 927      BINDING AFFINITY PREDICTED BY RF-SCORE:    0.00 PKD
ROOT
HETATM    1 BR   UNL     1     -10.026  16.262  66.025  1.00  0.00    -0.381 Br 
HETATM    2  C   UNL     1      -9.829  14.325  65.861  1.00  0.00    -0.298 C  
HETATM    3  C   UNL     1     -11.175  13.598  65.784  1.00  0.00    -0.295 C  
HETATM    4 BR   UNL     1     -10.739  11.645  65.706  1.00  0.00    -0.330 Br 
HETATM    5  C   UNL     1     -11.836  13.924  64.454  1.00  0.00    -0.429 C  
HETATM    6  C   UNL     1     -12.147  13.816  66.958  1.00  0.00    -0.436 C  
HETATM    7  N   UNL     1     -12.384  14.194  63.351  1.00  0.00    -1.144 NA 
HETATM    8  H2  UNL     1     -11.940  13.975  64.243  1.00  0.00     0.000 HD 
HETATM    9  H1  UNL     1     -12.827  14.412  62.459  1.00  0.00     0.000 HD 
ENDROOT
BRANCH   6  10
HETATM   10  C   UNL     1     -11.543  13.588  68.351  1.00  0.00    -0.378 C  
HETATM   11  C   UNL     1     -11.625  14.810  69.161  1.00  0.00    -0.303 C  
HETATM   12  N   UNL     1     -11.694  15.774  69.801  1.00  0.00    -0.345 NA 
ENDBRANCH   6  10
TORSDOF 1
ENDMDL
MODEL        8
REMARK 921   NORMALIZED FREE ENERGY PREDICTED BY IDOCK:   -4.00 KCAL/MOL
REMARK 922        TOTAL FREE ENERGY PREDICTED BY IDOCK:   -4.35 KCAL/MOL
REMARK 923 INTER-LIGAND FREE ENERGY PREDICTED BY IDOCK:   -4.37 KCAL/MOL
REMARK 924 INTRA-LIGAND FREE ENERGY PREDICTED BY IDOCK:    0.02 KCAL/MOL
REMARK 927      BINDING AFFINITY PREDICTED BY RF-SCORE:    0.00 PKD
ROOT
HETATM    1 BR   UNL     1     -10.301  16.338  65.950  1.00  0.00    -0.380 Br 
HETATM    2  C   UNL     1      -9.914  14.442  65.679  1.00  0.00    -0.337 C  
HETATM    3  C   UNL     1     -11.181  13.583  65.607  1.00  0.00    -0.292 C  
HETATM    4 BR   UNL     1     -10.551  11.692  65.414  1.00  0.00    -0.341 Br 
HETATM    5  C   UNL     1     -11.920  13.903  64.317  1.00  0.00    -0.444 C  
HETATM    6  C   UNL     1     -12.126  13.642  66.821  1.00  0.00    -0.445 C  
HETATM    7  N   UNL     1     -12.533  14.167  63.248  1.00  0.00    -1.098 NA 
HETATM    8  H2  UNL     1     -12.037  13.953  64.113  1.00  0.00     0.000 HD 
HETATM    9  H1  UNL     1     -13.028  14.382  62.382  1.00  0.00     0.000 HD 
ENDROOT
BRANCH   6  10
HETATM   10  C   UNL     1     -11.451  13.411  68.180  1.00  0.00    -0.339 C  
HETATM   11  C   UNL     1     -11.762  12.071  68.696  1.00  0.00    -0.326 C  
HETATM   12  N   UNL     1     -12.005  11.012  69.100  1.00  0.00    -0.367 NA 
ENDBRANCH   6  10
TORSDOF 1
ENDMDL
MODEL        9
REMARK 921   NORMALIZED FREE ENERGY PREDICTED BY IDOCK:   -3.96 KCAL/MOL
REMARK 922        TOTAL FREE ENERGY PREDICTED BY IDOCK:   -4.30 KCAL/MOL
REMARK 923 INTER-LIGAND FREE ENERGY PREDICTED BY IDOCK:   -4.23 KCAL/MOL
REMARK 924 INTRA-LIGAND FREE ENERGY PREDICTED BY IDOCK:   -0.08 KCAL/MOL
REMARK 927      BINDING AFFINITY PREDICTED BY RF-SCORE:    0.00 PKD
ROOT
HETATM    1 BR   UNL     1     -10.502   6.721  73.794  1.00  0.00    -0.332 Br 
HETATM    2  C   UNL     1     -10.411   8.238  72.566  1.00  0.00    -0.336 C  
HETATM    3  C   UNL     1     -11.614   8.305  71.619  1.00  0.00    -0.284 C  
HETATM    4 BR   UNL     1     -11.273   9.866  70.410  1.00  0.00    -0.407 Br 
HETATM    5  C   UNL     1     -12.853   8.669  72.420  1.00  0.00    -0.355 C  
HETATM    6  C   UNL     1     -11.865   7.071  70.732  1.00  0.00    -0.401 C  
HETATM    7  N   UNL     1     -13.881   8.972  73.084  1.00  0.00    -1.177 NA 
HETATM    8  H2  UNL     1     -13.050   8.727  72.547  1.00  0.00     0.000 HD 
HETATM    9  H1  UNL     1     -14.713   9.216  73.622  1.00  0.00     0.000 HD 
ENDROOT
BRANCH   6  10
HETATM   10  C   UNL     1     -10.643   6.579  69.944  1.00  0.00    -0.282 C  
HETATM   11  C   UNL     1     -10.932   6.542  68.504  1.00  0.00    -0.286 C  
HETATM   12  N   UNL     1     -11.160   6.515  67.368  1.00  0.00    -0.367 NA 
ENDBRANCH   6  10
TORSDOF 1
ENDMDL
MODEL       10
REMARK 921   NORMALIZED FREE ENERGY PREDICTED BY IDOCK:   -3.90 KCAL/MOL
REMARK 922        TOTAL FREE ENERGY PREDICTED BY IDOCK:   -4.25 KCAL/MOL
REMARK 923 INTER-LIGAND FREE ENERGY PREDICTED BY IDOCK:   -4.17 KCAL/MOL
REMARK 924 INTRA-LIGAND FREE ENERGY PREDICTED BY IDOCK:   -0.08 KCAL/MOL
REMARK 927      BINDING AFFINITY PREDICTED BY RF-SCORE:    0.00 PKD
ROOT
HETATM    1 BR   UNL     1      -9.078  10.970  66.423  1.00  0.00    -0.200 Br 
HETATM    2  C   UNL     1     -10.863  11.333  65.715  1.00  0.00    -0.194 C  
HETATM    3  C   UNL     1     -10.828  12.107  64.393  1.00  0.00    -0.328 C  
HETATM    4 BR   UNL     1     -12.742  12.437  63.901  1.00  0.00    -0.386 Br 
HETATM    5  C   UNL     1     -10.276  11.200  63.305  1.00  0.00    -0.350 C  
HETATM    6  C   UNL     1     -10.106  13.466  64.406  1.00  0.00    -0.128 C  
HETATM    7  N   UNL     1      -9.819  10.448  62.402  1.00  0.00    -0.743 NA 
HETATM    8  H2  UNL     1     -10.189  11.056  63.132  1.00  0.00     0.000 HD 
HETATM    9  H1  UNL     1      -9.448   9.839  61.672  1.00  0.00     0.000 HD 
ENDROOT
BRANCH   6  10
HETATM   10  C   UNL     1     -10.542  14.422  65.526  1.00  0.00    -0.360 C  
HETATM   11  C   UNL     1     -10.883  15.742  64.981  1.00  0.00    -0.443 C  
HETATM   12  N   UNL     1     -11.155  16.783  64.549  1.00  0.00    -1.039 NA 
ENDBRANCH   6  10
TORSDOF 1
ENDMDL
MODEL       11
REMARK 921   NORMALIZED FREE ENERGY PREDICTED BY IDOCK:   -3.89 KCAL/MOL
REMARK 922        TOTAL FREE ENERGY PREDICTED BY IDOCK:   -4.23 KCAL/MOL
REMARK 923 INTER-LIGAND FREE ENERGY PREDICTED BY IDOCK:   -4.15 KCAL/MOL
REMARK 924 INTRA-LIGAND FREE ENERGY PREDICTED BY IDOCK:   -0.08 KCAL/MOL
REMARK 927      BINDING AFFINITY PREDICTED BY RF-SCORE:    0.00 PKD
ROOT
HETATM    1 BR   UNL     1     -11.459  11.712  67.904  1.00  0.00    -0.375 Br 
HETATM    2  C   UNL     1     -10.193  13.128  67.443  1.00  0.00    -0.232 C  
HETATM    3  C   UNL     1     -10.886  14.403  66.951  1.00  0.00    -0.301 C  
HETATM    4 BR   UNL     1      -9.414  15.671  66.461  1.00  0.00    -0.329 Br 
HETATM    5  C   UNL     1     -11.613  15.050  68.118  1.00  0.00    -0.340 C  
HETATM    6  C   UNL     1     -11.809  14.261  65.727  1.00  0.00    -0.377 C  
HETATM    7  N   UNL     1     -12.217  15.588  69.086  1.00  0.00    -0.598 NA 
HETATM    8  H2  UNL     1     -11.728  15.153  68.303  1.00  0.00     0.000 HD 
HETATM    9  H1  UNL     1     -12.705  16.022  69.869  1.00  0.00     0.000 HD 
ENDROOT
BRANCH   6  10
HETATM   10  C   UNL     1     -11.184  13.543  64.522  1.00  0.00    -0.392 C  
HETATM   11  C   UNL     1     -12.170  12.681  63.859  1.00  0.00    -0.481 C  
HETATM   12  N   UNL     1     -12.951  12.004  63.334  1.00  0.00    -0.728 NA 
ENDBRANCH   6  10
TORSDOF 1
ENDMDL
MODEL       12
REMARK 921   NORMALIZED FREE ENERGY PREDICTED BY IDOCK:   -3.87 KCAL/MOL
REMARK 922        TOTAL FREE ENERGY PREDICTED BY IDOCK:   -4.21 KCAL/MOL
REMARK 923 INTER-LIGAND FREE ENERGY PREDICTED BY IDOCK:   -4.10 KCAL/MOL
REMARK 924 INTRA-LIGAND FREE ENERGY PREDICTED BY IDOCK:   -0.11 KCAL/MOL
REMARK 927      BINDING AFFINITY PREDICTED BY RF-SCORE:    0.00 PKD
ROOT
HETATM    1 BR   UNL     1     -10.433   6.886  73.557  1.00  0.00    -0.396 Br 
HETATM    2  C   UNL     1     -10.511   8.462  72.404  1.00  0.00    -0.332 C  
HETATM    3  C   UNL     1     -11.764   8.488  71.522  1.00  0.00    -0.297 C  
HETATM    4 BR   UNL     1     -11.595  10.124  70.379  1.00  0.00    -0.420 Br 
HETATM    5  C   UNL     1     -12.981   8.726  72.402  1.00  0.00    -0.383 C  
HETATM    6  C   UNL     1     -11.977   7.283  70.588  1.00  0.00    -0.259 C  
HETATM    7  N   UNL     1     -13.990   8.924  73.131  1.00  0.00    -1.215 NA 
HETATM    8  H2  UNL     1     -13.173   8.764  72.541  1.00  0.00     0.000 HD 
HETATM    9  H1  UNL     1     -14.807   9.084  73.721  1.00  0.00     0.000 HD 
ENDROOT
BRANCH   6  10
HETATM   10  C   UNL     1     -10.768   6.915  69.716  1.00  0.00    -0.276 C  
HETATM   11  C   UNL     1     -10.303   5.555  70.016  1.00  0.00    -0.288 C  
HETATM   12  N   UNL     1      -9.939   4.480  70.251  1.00  0.00    -0.233 NA 
ENDBRANCH   6  10
TORSDOF 1
ENDMDL
MODEL       13
REMARK 921   NORMALIZED FREE ENERGY PREDICTED BY IDOCK:   -3.80 KCAL/MOL
REMARK 922        TOTAL FREE ENERGY PREDICTED BY IDOCK:   -4.14 KCAL/MOL
REMARK 923 INTER-LIGAND FREE ENERGY PREDICTED BY IDOCK:   -4.06 KCAL/MOL
REMARK 924 INTRA-LIGAND FREE ENERGY PREDICTED BY IDOCK:   -0.08 KCAL/MOL
REMARK 927      BINDING AFFINITY PREDICTED BY RF-SCORE:    0.00 PKD
ROOT
HETATM    1 BR   UNL     1     -11.061  11.686  68.158  1.00  0.00    -0.329 Br 
HETATM    2  C   UNL     1     -10.170  13.417  68.330  1.00  0.00    -0.250 C  
HETATM    3  C   UNL     1     -11.131  14.596  68.153  1.00  0.00    -0.274 C  
HETATM    4 BR   UNL     1     -10.003  16.247  68.282  1.00  0.00    -0.243 Br 
HETATM    5  C   UNL     1     -12.072  14.649  69.346  1.00  0.00    -0.280 C  
HETATM    6  C   UNL     1     -11.909  14.663  66.826  1.00  0.00    -0.334 C  
HETATM    7  N   UNL     1     -12.852  14.692  70.336  1.00  0.00    -0.521 NA 
HETATM    8  H2  UNL     1     -12.221  14.657  69.535  1.00  0.00     0.000 HD 
HETATM    9  H1  UNL     1     -13.483  14.727  71.136  1.00  0.00     0.000 HD 
ENDROOT
BRANCH   6  10
HETATM   10  C   UNL     1     -11.047  14.536  65.562  1.00  0.00    -0.339 C  
HETATM   11  C   UNL     1     -11.264  15.679  64.666  1.00  0.00    -0.369 C  
HETATM   12  N   UNL     1     -11.433  16.584  63.961  1.00  0.00    -1.122 NA 
ENDBRANCH   6  10
TORSDOF 1
ENDMDL
MODEL       14
REMARK 921   NORMALIZED FREE ENERGY PREDICTED BY IDOCK:   -3.74 KCAL/MOL
REMARK 922        TOTAL FREE ENERGY PREDICTED BY IDOCK:   -4.08 KCAL/MOL
REMARK 923 INTER-LIGAND FREE ENERGY PREDICTED BY IDOCK:   -4.00 KCAL/MOL
REMARK 924 INTRA-LIGAND FREE ENERGY PREDICTED BY IDOCK:   -0.07 KCAL/MOL
REMARK 927      BINDING AFFINITY PREDICTED BY RF-SCORE:    0.00 PKD
ROOT
HETATM    1 BR   UNL     1     -11.368  11.101  68.911  1.00  0.00    -0.381 Br 
HETATM    2  C   UNL     1     -10.377  12.645  68.236  1.00  0.00    -0.241 C  
HETATM    3  C   UNL     1     -11.295  13.750  67.704  1.00  0.00    -0.304 C  
HETATM    4 BR   UNL     1     -10.081  15.177  66.996  1.00  0.00    -0.248 Br 
HETATM    5  C   UNL     1     -12.032  14.383  68.873  1.00  0.00    -0.302 C  
HETATM    6  C   UNL     1     -12.268  13.359  66.577  1.00  0.00    -0.414 C  
HETATM    7  N   UNL     1     -12.644  14.908  69.843  1.00  0.00    -0.567 NA 
HETATM    8  H2  UNL     1     -12.149  14.483  69.059  1.00  0.00     0.000 HD 
HETATM    9  H1  UNL     1     -13.139  15.333  70.627  1.00  0.00     0.000 HD 
ENDROOT
BRANCH   6  10
HETATM   10  C   UNL     1     -11.623  12.639  65.384  1.00  0.00    -0.400 C  
HETATM   11  C   UNL     1     -12.068  13.228  64.115  1.00  0.00    -0.432 C  
HETATM   12  N   UNL     1     -12.418  13.697  63.115  1.00  0.00    -0.714 NA 
ENDBRANCH   6  10
TORSDOF 1
ENDMDL
MODEL       15
REMARK 921   NORMALIZED FREE ENERGY PREDICTED BY IDOCK:   -3.71 KCAL/MOL
REMARK 922        TOTAL FREE ENERGY PREDICTED BY IDOCK:   -4.04 KCAL/MOL
REMARK 923 INTER-LIGAND FREE ENERGY PREDICTED BY IDOCK:   -3.93 KCAL/MOL
REMARK 924 INTRA-LIGAND FREE ENERGY PREDICTED BY IDOCK:   -0.11 KCAL/MOL
REMARK 927      BINDING AFFINITY PREDICTED BY RF-SCORE:    0.00 PKD
ROOT
HETATM    1 BR   UNL     1     -10.326  19.309  66.544  1.00  0.00    -0.578 Br 
HETATM    2  C   UNL     1     -10.303  18.011  68.004  1.00  0.00    -0.387 C  
HETATM    3  C   UNL     1      -9.187  16.972  67.855  1.00  0.00    -0.239 C  
HETATM    4 BR   UNL     1      -9.403  15.711  69.396  1.00  0.00    -0.268 Br 
HETATM    5  C   UNL     1      -7.846  17.656  68.070  1.00  0.00    -0.235 C  
HETATM    6  C   UNL     1      -9.187  16.137  66.562  1.00  0.00    -0.303 C  
HETATM    7  N   UNL     1      -6.734  18.222  68.248  1.00  0.00    -0.211 NA 
HETATM    8  H2  UNL     1      -7.634  17.764  68.104  1.00  0.00     0.000 HD 
HETATM    9  H1  UNL     1      -5.834  18.681  68.392  1.00  0.00     0.000 HD 
ENDROOT
BRANCH   6  10
HETATM   10  C   UNL     1     -10.528  15.472  66.219  1.00  0.00    -0.313 C  
HETATM   11  C   UNL     1     -11.055  15.985  64.948  1.00  0.00    -0.370 C  
HETATM   12  N   UNL     1     -11.468  16.389  63.943  1.00  0.00    -1.031 NA 
ENDBRANCH   6  10
TORSDOF 1
ENDMDL
MODEL       16
REMARK 921   NORMALIZED FREE ENERGY PREDICTED BY IDOCK:   -3.69 KCAL/MOL
REMARK 922        TOTAL FREE ENERGY PREDICTED BY IDOCK:   -4.02 KCAL/MOL
REMARK 923 INTER-LIGAND FREE ENERGY PREDICTED BY IDOCK:   -3.97 KCAL/MOL
REMARK 924 INTRA-LIGAND FREE ENERGY PREDICTED BY IDOCK:   -0.05 KCAL/MOL
REMARK 927      BINDING AFFINITY PREDICTED BY RF-SCORE:    0.00 PKD
ROOT
HETATM    1 BR   UNL     1      -9.101  11.792  66.808  1.00  0.00    -0.199 Br 
HETATM    2  C   UNL     1      -9.955  12.987  68.097  1.00  0.00    -0.231 C  
HETATM    3  C   UNL     1     -11.481  12.854  68.105  1.00  0.00    -0.315 C  
HETATM    4 BR   UNL     1     -12.142  14.212  69.421  1.00  0.00    -0.343 Br 
HETATM    5  C   UNL     1     -11.856  11.502  68.689  1.00  0.00    -0.318 C  
HETATM    6  C   UNL     1     -12.204  13.105  66.769  1.00  0.00    -0.306 C  
HETATM    7  N   UNL     1     -12.166  10.380  69.173  1.00  0.00    -0.695 NA 
HETATM    8  H2  UNL     1     -11.915  11.287  68.781  1.00  0.00     0.000 HD 
HETATM    9  H1  UNL     1     -12.417   9.472  69.565  1.00  0.00     0.000 HD 
ENDROOT
BRANCH   6  10
HETATM   10  C   UNL     1     -11.827  14.415  66.063  1.00  0.00    -0.379 C  
HETATM   11  C   UNL     1     -12.214  14.374  64.647  1.00  0.00    -0.464 C  
HETATM   12  N   UNL     1     -12.523  14.341  63.530  1.00  0.00    -0.721 NA 
ENDBRANCH   6  10
TORSDOF 1
ENDMDL
MODEL       17
REMARK 921   NORMALIZED FREE ENERGY PREDICTED BY IDOCK:   -3.67 KCAL/MOL
REMARK 922        TOTAL FREE ENERGY PREDICTED BY IDOCK:   -4.00 KCAL/MOL
REMARK 923 INTER-LIGAND FREE ENERGY PREDICTED BY IDOCK:   -3.95 KCAL/MOL
REMARK 924 INTRA-LIGAND FREE ENERGY PREDICTED BY IDOCK:   -0.05 KCAL/MOL
REMARK 927      BINDING AFFINITY PREDICTED BY RF-SCORE:    0.00 PKD
ROOT
HETATM    1 BR   UNL     1     -10.394  15.991  65.760  1.00  0.00    -0.415 Br 
HETATM    2  C   UNL     1     -10.085  14.229  66.546  1.00  0.00    -0.278 C  
HETATM    3  C   UNL     1     -11.382  13.540  66.982  1.00  0.00    -0.324 C  
HETATM    4 BR   UNL     1     -10.827  11.810  67.825  1.00  0.00    -0.279 Br 
HETATM    5  C   UNL     1     -12.176  13.156  65.743  1.00  0.00    -0.456 C  
HETATM    6  C   UNL     1     -12.261  14.295  67.995  1.00  0.00    -0.168 C  
HETATM    7  N   UNL     1     -12.835  12.838  64.716  1.00  0.00    -0.796 NA 
HETATM    8  H2  UNL     1     -12.302  13.095  65.547  1.00  0.00     0.000 HD 
HETATM    9  H1  UNL     1     -13.367  12.580  63.885  1.00  0.00     0.000 HD 
ENDROOT
BRANCH   6  10
HETATM   10  C   UNL     1     -11.524  14.794  69.247  1.00  0.00    -0.322 C  
HETATM   11  C   UNL     1     -12.475  15.305  70.243  1.00  0.00    -0.363 C  
HETATM   12  N   UNL     1     -13.226  15.705  71.029  1.00  0.00    -0.553 NA 
ENDBRANCH   6  10
TORSDOF 1
ENDMDL
MODEL       18
REMARK 921   NORMALIZED FREE ENERGY PREDICTED BY IDOCK:   -3.65 KCAL/MOL
REMARK 922        TOTAL FREE ENERGY PREDICTED BY IDOCK:   -3.98 KCAL/MOL
REMARK 923 INTER-LIGAND FREE ENERGY PREDICTED BY IDOCK:   -3.87 KCAL/MOL
REMARK 924 INTRA-LIGAND FREE ENERGY PREDICTED BY IDOCK:   -0.11 KCAL/MOL
REMARK 927      BINDING AFFINITY PREDICTED BY RF-SCORE:    0.00 PKD
ROOT
HETATM    1 BR   UNL     1     -10.288  10.865  66.658  1.00  0.00    -0.300 Br 
HETATM    2  C   UNL     1      -9.845  12.748  66.934  1.00  0.00    -0.236 C  
HETATM    3  C   UNL     1     -11.054  13.583  67.365  1.00  0.00    -0.281 C  
HETATM    4 BR   UNL     1     -10.395  15.469  67.506  1.00  0.00    -0.276 Br 
HETATM    5  C   UNL     1     -11.453  13.182  68.776  1.00  0.00    -0.307 C  
HETATM    6  C   UNL     1     -12.270  13.580  66.420  1.00  0.00    -0.454 C  
HETATM    7  N   UNL     1     -11.783  12.849  69.947  1.00  0.00    -0.485 NA 
HETATM    8  H2  UNL     1     -11.516  13.118  69.000  1.00  0.00     0.000 HD 
HETATM    9  H1  UNL     1     -12.051  12.580  70.894  1.00  0.00     0.000 HD 
ENDROOT
BRANCH   6  10
HETATM   10  C   UNL     1     -11.951  13.896  64.952  1.00  0.00    -0.412 C  
HETATM   11  C   UNL     1     -12.452  12.835  64.069  1.00  0.00    -0.360 C  
HETATM   12  N   UNL     1     -12.851  11.998  63.373  1.00  0.00    -0.758 NA 
ENDBRANCH   6  10
TORSDOF 1
ENDMDL
MODEL       19
REMARK 921   NORMALIZED FREE ENERGY PREDICTED BY IDOCK:   -3.65 KCAL/MOL
REMARK 922        TOTAL FREE ENERGY PREDICTED BY IDOCK:   -3.98 KCAL/MOL
REMARK 923 INTER-LIGAND FREE ENERGY PREDICTED BY IDOCK:   -3.89 KCAL/MOL
REMARK 924 INTRA-LIGAND FREE ENERGY PREDICTED BY IDOCK:   -0.09 KCAL/MOL
REMARK 927      BINDING AFFINITY PREDICTED BY RF-SCORE:    0.00 PKD
ROOT
HETATM    1 BR   UNL     1     -10.507  16.798  67.748  1.00  0.00    -0.340 Br 
HETATM    2  C   UNL     1     -11.290  15.051  68.136  1.00  0.00    -0.330 C  
HETATM    3  C   UNL     1     -10.517  13.898  67.487  1.00  0.00    -0.248 C  
HETATM    4 BR   UNL     1     -11.533  12.232  67.942  1.00  0.00    -0.414 Br 
HETATM    5  C   UNL     1      -9.170  13.758  68.177  1.00  0.00    -0.199 C  
HETATM    6  C   UNL     1     -10.358  13.947  65.957  1.00  0.00    -0.310 C  
HETATM    7  N   UNL     1      -8.053  13.641  68.749  1.00  0.00    -0.320 NA 
HETATM    8  H2  UNL     1      -8.957  13.735  68.286  1.00  0.00     0.000 HD 
HETATM    9  H1  UNL     1      -7.149  13.547  69.212  1.00  0.00     0.000 HD 
ENDROOT
BRANCH   6  10
HETATM   10  C   UNL     1     -11.661  14.168  65.175  1.00  0.00    -0.361 C  
HETATM   11  C   UNL     1     -11.644  15.466  64.489  1.00  0.00    -0.296 C  
HETATM   12  N   UNL     1     -11.628  16.489  63.945  1.00  0.00    -1.071 NA 
ENDBRANCH   6  10
TORSDOF 1
ENDMDL
MODEL       20
REMARK 921   NORMALIZED FREE ENERGY PREDICTED BY IDOCK:   -3.64 KCAL/MOL
REMARK 922        TOTAL FREE ENERGY PREDICTED BY IDOCK:   -3.97 KCAL/MOL
REMARK 923 INTER-LIGAND FREE ENERGY PREDICTED BY IDOCK:   -3.97 KCAL/MOL
REMARK 924 INTRA-LIGAND FREE ENERGY PREDICTED BY IDOCK:   -0.01 KCAL/MOL
REMARK 927      BINDING AFFINITY PREDICTED BY RF-SCORE:    0.00 PKD
ROOT
HETATM    1 BR   UNL     1     -10.546  11.910  68.251  1.00  0.00    -0.252 Br 
HETATM    2  C   UNL     1     -11.680  11.967  66.661  1.00  0.00    -0.256 C  
HETATM    3  C   UNL     1     -10.908  12.362  65.398  1.00  0.00    -0.285 C  
HETATM    4 BR   UNL     1     -12.267  12.438  63.927  1.00  0.00    -0.628 Br 
HETATM    5  C   UNL     1      -9.964  11.231  65.024  1.00  0.00    -0.274 C  
HETATM    6  C   UNL     1     -10.175  13.715  65.429  1.00  0.00    -0.330 C  
HETATM    7  N   UNL     1      -9.180  10.293  64.714  1.00  0.00    -0.218 NA 
HETATM    8  H2  UNL     1      -9.814  11.052  64.965  1.00  0.00     0.000 HD 
HETATM    9  H1  UNL     1      -8.546   9.535  64.463  1.00  0.00     0.000 HD 
ENDROOT
BRANCH   6  10
HETATM   10  C   UNL     1     -11.032  14.908  65.875  1.00  0.00    -0.338 C  
HETATM   11  C   UNL     1     -11.330  15.790  64.740  1.00  0.00    -0.314 C  
HETATM   12  N   UNL     1     -11.566  16.484  63.842  1.00  0.00    -1.071 NA 
ENDBRANCH   6  10
TORSDOF 1
ENDMDL
MODEL       21
REMARK 921   NORMALIZED FREE ENERGY PREDICTED BY IDOCK:   -3.64 KCAL/MOL
REMARK 922        TOTAL FREE ENERGY PREDICTED BY IDOCK:   -3.97 KCAL/MOL
REMARK 923 INTER-LIGAND FREE ENERGY PREDICTED BY IDOCK:   -3.86 KCAL/MOL
REMARK 924 INTRA-LIGAND FREE ENERGY PREDICTED BY IDOCK:   -0.11 KCAL/MOL
REMARK 927      BINDING AFFINITY PREDICTED BY RF-SCORE:    0.00 PKD
ROOT
HETATM    1 BR   UNL     1     -10.641  19.127  67.449  1.00  0.00    -0.585 Br 
HETATM    2  C   UNL     1      -9.022  18.707  68.461  1.00  0.00    -0.334 C  
HETATM    3  C   UNL     1      -7.759  18.734  67.594  1.00  0.00    -0.235 C  
HETATM    4 BR   UNL     1      -6.254  18.199  68.802  1.00  0.00    -0.215 Br 
HETATM    5  C   UNL     1      -7.470  20.171  67.190  1.00  0.00    -0.290 C  
HETATM    6  C   UNL     1      -7.737  17.796  66.374  1.00  0.00    -0.318 C  
HETATM    7  N   UNL     1      -7.229  21.362  66.854  1.00  0.00    -0.829 NA 
HETATM    8  H2  UNL     1      -7.424  20.398  67.125  1.00  0.00     0.000 HD 
HETATM    9  H1  UNL     1      -7.035  22.326  66.583  1.00  0.00     0.000 HD 
ENDROOT
BRANCH   6  10
HETATM   10  C   UNL     1      -8.099  16.334  66.673  1.00  0.00    -0.323 C  
HETATM   11  C   UNL     1      -9.325  15.944  65.966  1.00  0.00    -0.349 C  
HETATM   12  N   UNL     1     -10.292  15.637  65.405  1.00  0.00    -0.381 NA 
ENDBRANCH   6  10
TORSDOF 1
ENDMDL
MODEL       22
REMARK 921   NORMALIZED FREE ENERGY PREDICTED BY IDOCK:   -3.62 KCAL/MOL
REMARK 922        TOTAL FREE ENERGY PREDICTED BY IDOCK:   -3.95 KCAL/MOL
REMARK 923 INTER-LIGAND FREE ENERGY PREDICTED BY IDOCK:   -3.90 KCAL/MOL
REMARK 924 INTRA-LIGAND FREE ENERGY PREDICTED BY IDOCK:   -0.05 KCAL/MOL
REMARK 927      BINDING AFFINITY PREDICTED BY RF-SCORE:    0.00 PKD
ROOT
HETATM    1 BR   UNL     1      -9.573  10.265  65.381  1.00  0.00    -0.336 Br 
HETATM    2  C   UNL     1      -9.293  11.843  66.499  1.00  0.00    -0.216 C  
HETATM    3  C   UNL     1     -10.594  12.597  66.794  1.00  0.00    -0.237 C  
HETATM    4 BR   UNL     1     -10.064  14.203  67.869  1.00  0.00    -0.239 Br 
HETATM    5  C   UNL     1     -11.454  11.751  67.719  1.00  0.00    -0.311 C  
HETATM    6  C   UNL     1     -11.399  13.091  65.579  1.00  0.00    -0.330 C  
HETATM    7  N   UNL     1     -12.168  11.049  68.485  1.00  0.00    -0.781 NA 
HETATM    8  H2  UNL     1     -11.591  11.617  67.865  1.00  0.00     0.000 HD 
HETATM    9  H1  UNL     1     -12.746  10.482  69.106  1.00  0.00     0.000 HD 
ENDROOT
BRANCH   6  10
HETATM   10  C   UNL     1     -10.591  13.889  64.546  1.00  0.00    -0.375 C  
HETATM   11  C   UNL     1     -11.064  15.277  64.473  1.00  0.00    -0.245 C  
HETATM   12  N   UNL     1     -11.436  16.374  64.420  1.00  0.00    -0.830 NA 
ENDBRANCH   6  10
TORSDOF 1
ENDMDL
MODEL       23
REMARK 921   NORMALIZED FREE ENERGY PREDICTED BY IDOCK:   -3.61 KCAL/MOL
REMARK 922        TOTAL FREE ENERGY PREDICTED BY IDOCK:   -3.93 KCAL/MOL
REMARK 923 INTER-LIGAND FREE ENERGY PREDICTED BY IDOCK:   -3.88 KCAL/MOL
REMARK 924 INTRA-LIGAND FREE ENERGY PREDICTED BY IDOCK:   -0.06 KCAL/MOL
REMARK 927      BINDING AFFINITY PREDICTED BY RF-SCORE:    0.00 PKD
ROOT
HETATM    1 BR   UNL     1     -12.363  15.061  70.124  1.00  0.00    -0.369 Br 
HETATM    2  C   UNL     1     -10.688  14.691  69.189  1.00  0.00    -0.255 C  
HETATM    3  C   UNL     1     -10.662  15.269  67.770  1.00  0.00    -0.286 C  
HETATM    4 BR   UNL     1      -8.910  14.704  66.980  1.00  0.00    -0.268 Br 
HETATM    5  C   UNL     1     -10.602  16.785  67.857  1.00  0.00    -0.350 C  
HETATM    6  C   UNL     1     -11.778  14.809  66.815  1.00  0.00    -0.309 C  
HETATM    7  N   UNL     1     -10.552  18.043  67.930  1.00  0.00    -0.394 NA 
HETATM    8  H2  UNL     1     -10.592  17.026  67.871  1.00  0.00     0.000 HD 
HETATM    9  H1  UNL     1     -10.511  19.061  67.988  1.00  0.00     0.000 HD 
ENDROOT
BRANCH   6  10
HETATM   10  C   UNL     1     -11.968  13.288  66.723  1.00  0.00    -0.438 C  
HETATM   11  C   UNL     1     -12.459  12.903  65.394  1.00  0.00    -0.454 C  
HETATM   12  N   UNL     1     -12.844  12.600  64.344  1.00  0.00    -0.752 NA 
ENDBRANCH   6  10
TORSDOF 1
ENDMDL
MODEL       24
REMARK 921   NORMALIZED FREE ENERGY PREDICTED BY IDOCK:   -3.60 KCAL/MOL
REMARK 922        TOTAL FREE ENERGY PREDICTED BY IDOCK:   -3.92 KCAL/MOL
REMARK 923 INTER-LIGAND FREE ENERGY PREDICTED BY IDOCK:   -3.87 KCAL/MOL
REMARK 924 INTRA-LIGAND FREE ENERGY PREDICTED BY IDOCK:   -0.05 KCAL/MOL
REMARK 927      BINDING AFFINITY PREDICTED BY RF-SCORE:    0.00 PKD
ROOT
HETATM    1 BR   UNL     1      -9.207  11.311  66.388  1.00  0.00    -0.215 Br 
HETATM    2  C   UNL     1     -10.946  12.198  66.464  1.00  0.00    -0.284 C  
HETATM    3  C   UNL     1     -11.233  13.045  65.220  1.00  0.00    -0.289 C  
HETATM    4 BR   UNL     1     -13.006  13.917  65.548  1.00  0.00    -0.197 Br 
HETATM    5  C   UNL     1     -11.444  12.120  64.032  1.00  0.00    -0.411 C  
HETATM    6  C   UNL     1     -10.219  14.155  64.890  1.00  0.00    -0.371 C  
HETATM    7  N   UNL     1     -11.619  11.354  63.047  1.00  0.00    -0.853 NA 
HETATM    8  H2  UNL     1     -11.478  11.974  63.844  1.00  0.00     0.000 HD 
HETATM    9  H1  UNL     1     -11.761  10.733  62.250  1.00  0.00     0.000 HD 
ENDROOT
BRANCH   6  10
HETATM   10  C   UNL     1      -9.880  15.093  66.058  1.00  0.00    -0.349 C  
HETATM   11  C   UNL     1     -10.344  16.459  65.781  1.00  0.00    -0.369 C  
HETATM   12  N   UNL     1     -10.713  17.536  65.563  1.00  0.00    -0.537 NA 
ENDBRANCH   6  10
TORSDOF 1
ENDMDL
MODEL       25
REMARK 921   NORMALIZED FREE ENERGY PREDICTED BY IDOCK:   -3.59 KCAL/MOL
REMARK 922        TOTAL FREE ENERGY PREDICTED BY IDOCK:   -3.91 KCAL/MOL
REMARK 923 INTER-LIGAND FREE ENERGY PREDICTED BY IDOCK:   -3.83 KCAL/MOL
REMARK 924 INTRA-LIGAND FREE ENERGY PREDICTED BY IDOCK:   -0.08 KCAL/MOL
REMARK 927      BINDING AFFINITY PREDICTED BY RF-SCORE:    0.00 PKD
ROOT
HETATM    1 BR   UNL     1     -11.732  15.237  68.689  1.00  0.00    -0.343 Br 
HETATM    2  C   UNL     1      -9.914  15.605  68.075  1.00  0.00    -0.222 C  
HETATM    3  C   UNL     1      -9.876  16.561  66.879  1.00  0.00    -0.257 C  
HETATM    4 BR   UNL     1      -7.945  16.727  66.372  1.00  0.00    -0.358 Br 
HETATM    5  C   UNL     1     -10.298  17.946  67.342  1.00  0.00    -0.378 C  
HETATM    6  C   UNL     1     -10.655  16.131  65.623  1.00  0.00    -0.377 C  
HETATM    7  N   UNL     1     -10.649  19.095  67.726  1.00  0.00    -0.420 NA 
HETATM    8  H2  UNL     1     -10.365  18.166  67.415  1.00  0.00     0.000 HD 
HETATM    9  H1  UNL     1     -10.933  20.024  68.036  1.00  0.00     0.000 HD 
ENDROOT
BRANCH   6  10
HETATM   10  C   UNL     1     -10.352  14.709  65.128  1.00  0.00    -0.431 C  
HETATM   11  C   UNL     1     -11.578  14.046  64.666  1.00  0.00    -0.392 C  
HETATM   12  N   UNL     1     -12.546  13.524  64.300  1.00  0.00    -0.656 NA 
ENDBRANCH   6  10
TORSDOF 1
ENDMDL
MODEL       26
REMARK 921   NORMALIZED FREE ENERGY PREDICTED BY IDOCK:   -3.58 KCAL/MOL
REMARK 922        TOTAL FREE ENERGY PREDICTED BY IDOCK:   -3.90 KCAL/MOL
REMARK 923 INTER-LIGAND FREE ENERGY PREDICTED BY IDOCK:   -3.86 KCAL/MOL
REMARK 924 INTRA-LIGAND FREE ENERGY PREDICTED BY IDOCK:   -0.05 KCAL/MOL
REMARK 927      BINDING AFFINITY PREDICTED BY RF-SCORE:    0.00 PKD
ROOT
HETATM    1 BR   UNL     1      -9.214  15.780  66.047  1.00  0.00    -0.347 Br 
HETATM    2  C   UNL     1     -10.411  15.361  67.534  1.00  0.00    -0.275 C  
HETATM    3  C   UNL     1     -10.560  13.854  67.767  1.00  0.00    -0.246 C  
HETATM    4 BR   UNL     1     -11.879  13.658  69.261  1.00  0.00    -0.406 Br 
HETATM    5  C   UNL     1      -9.247  13.306  68.304  1.00  0.00    -0.197 C  
HETATM    6  C   UNL     1     -11.069  13.017  66.579  1.00  0.00    -0.315 C  
HETATM    7  N   UNL     1      -8.159  12.852  68.749  1.00  0.00    -0.346 NA 
HETATM    8  H2  UNL     1      -9.039  13.220  68.389  1.00  0.00     0.000 HD 
HETATM    9  H1  UNL     1      -7.278  12.485  69.110  1.00  0.00     0.000 HD 
ENDROOT
BRANCH   6  10
HETATM   10  C   UNL     1     -12.351  13.543  65.918  1.00  0.00    -0.507 C  
HETATM   11  C   UNL     1     -12.612  12.841  64.655  1.00  0.00    -0.419 C  
HETATM   12  N   UNL     1     -12.819  12.284  63.659  1.00  0.00    -0.797 NA 
ENDBRANCH   6  10
TORSDOF 1
ENDMDL
MODEL       27
REMARK 921   NORMALIZED FREE ENERGY PREDICTED BY IDOCK:   -3.56 KCAL/MOL
REMARK 922        TOTAL FREE ENERGY PREDICTED BY IDOCK:   -3.89 KCAL/MOL
REMARK 923 INTER-LIGAND FREE ENERGY PREDICTED BY IDOCK:   -3.84 KCAL/MOL
REMARK 924 INTRA-LIGAND FREE ENERGY PREDICTED BY IDOCK:   -0.05 KCAL/MOL
REMARK 927      BINDING AFFINITY PREDICTED BY RF-SCORE:    0.00 PKD
ROOT
HETATM    1 BR   UNL     1      -9.032  12.436  67.458  1.00  0.00    -0.193 Br 
HETATM    2  C   UNL     1      -9.337  14.317  67.893  1.00  0.00    -0.198 C  
HETATM    3  C   UNL     1     -10.823  14.650  68.063  1.00  0.00    -0.257 C  
HETATM    4 BR   UNL     1     -10.905  16.621  68.416  1.00  0.00    -0.349 Br 
HETATM    5  C   UNL     1     -11.335  13.986  69.331  1.00  0.00    -0.268 C  
HETATM    6  C   UNL     1     -11.742  14.350  66.865  1.00  0.00    -0.422 C  
HETATM    7  N   UNL     1     -11.760  13.434  70.382  1.00  0.00    -0.541 NA 
HETATM    8  H2  UNL     1     -11.417  13.880  69.532  1.00  0.00     0.000 HD 
HETATM    9  H1  UNL     1     -12.104  12.988  71.233  1.00  0.00     0.000 HD 
ENDROOT
BRANCH   6  10
HETATM   10  C   UNL     1     -11.261  14.915  65.521  1.00  0.00    -0.348 C  
HETATM   11  C   UNL     1     -11.983  14.292  64.405  1.00  0.00    -0.456 C  
HETATM   12  N   UNL     1     -12.556  13.801  63.525  1.00  0.00    -0.808 NA 
ENDBRANCH   6  10
TORSDOF 1
ENDMDL
MODEL       28
REMARK 921   NORMALIZED FREE ENERGY PREDICTED BY IDOCK:   -3.50 KCAL/MOL
REMARK 922        TOTAL FREE ENERGY PREDICTED BY IDOCK:   -3.82 KCAL/MOL
REMARK 923 INTER-LIGAND FREE ENERGY PREDICTED BY IDOCK:   -3.75 KCAL/MOL
REMARK 924 INTRA-LIGAND FREE ENERGY PREDICTED BY IDOCK:   -0.07 KCAL/MOL
REMARK 927      BINDING AFFINITY PREDICTED BY RF-SCORE:    0.00 PKD
ROOT
HETATM    1 BR   UNL     1     -12.103  13.812  69.906  1.00  0.00    -0.407 Br 
HETATM    2  C   UNL     1     -11.676  12.331  68.706  1.00  0.00    -0.340 C  
HETATM    3  C   UNL     1     -10.700  12.732  67.595  1.00  0.00    -0.219 C  
HETATM    4 BR   UNL     1     -10.474  11.103  66.450  1.00  0.00    -0.314 Br 
HETATM    5  C   UNL     1      -9.334  12.993  68.210  1.00  0.00    -0.199 C  
HETATM    6  C   UNL     1     -11.131  13.892  66.680  1.00  0.00    -0.310 C  
HETATM    7  N   UNL     1      -8.202  13.210  68.720  1.00  0.00    -0.351 NA 
HETATM    8  H2  UNL     1      -9.118  13.034  68.308  1.00  0.00     0.000 HD 
HETATM    9  H1  UNL     1      -7.285  13.385  69.133  1.00  0.00     0.000 HD 
ENDROOT
BRANCH   6  10
HETATM   10  C   UNL     1     -12.535  13.754  66.075  1.00  0.00    -0.491 C  
HETATM   11  C   UNL     1     -12.472  13.741  64.608  1.00  0.00    -0.315 C  
HETATM   12  N   UNL     1     -12.421  13.728  63.450  1.00  0.00    -0.803 NA 
ENDBRANCH   6  10
TORSDOF 1
ENDMDL
MODEL       29
REMARK 921   NORMALIZED FREE ENERGY PREDICTED BY IDOCK:   -3.43 KCAL/MOL
REMARK 922        TOTAL FREE ENERGY PREDICTED BY IDOCK:   -3.74 KCAL/MOL
REMARK 923 INTER-LIGAND FREE ENERGY PREDICTED BY IDOCK:   -3.63 KCAL/MOL
REMARK 924 INTRA-LIGAND FREE ENERGY PREDICTED BY IDOCK:   -0.12 KCAL/MOL
REMARK 927      BINDING AFFINITY PREDICTED BY RF-SCORE:    0.00 PKD
ROOT
HETATM    1 BR   UNL     1     -13.718   8.979  72.396  1.00  0.00    -0.516 Br 
HETATM    2  C   UNL     1     -12.682   7.625  71.440  1.00  0.00    -0.327 C  
HETATM    3  C   UNL     1     -11.176   7.744  71.694  1.00  0.00    -0.248 C  
HETATM    4 BR   UNL     1     -10.316   6.331  70.565  1.00  0.00    -0.270 Br 
HETATM    5  C   UNL     1     -10.886   7.352  73.133  1.00  0.00    -0.386 C  
HETATM    6  C   UNL     1     -10.520   9.091  71.340  1.00  0.00    -0.395 C  
HETATM    7  N   UNL     1     -10.645   7.026  74.328  1.00  0.00    -0.531 NA 
HETATM    8  H2  UNL     1     -10.840   7.290  73.362  1.00  0.00     0.000 HD 
HETATM    9  H1  UNL     1     -10.450   6.763  75.294  1.00  0.00     0.000 HD 
ENDROOT
BRANCH   6  10
HETATM   10  C   UNL     1     -10.824   9.609  69.927  1.00  0.00    -0.287 C  
HETATM   11  C   UNL     1     -11.473  10.926  69.983  1.00  0.00    -0.329 C  
HETATM   12  N   UNL     1     -11.982  11.966  70.028  1.00  0.00    -0.339 NA 
ENDBRANCH   6  10
TORSDOF 1
ENDMDL
MODEL       30
REMARK 921   NORMALIZED FREE ENERGY PREDICTED BY IDOCK:   -3.42 KCAL/MOL
REMARK 922        TOTAL FREE ENERGY PREDICTED BY IDOCK:   -3.73 KCAL/MOL
REMARK 923 INTER-LIGAND FREE ENERGY PREDICTED BY IDOCK:   -3.69 KCAL/MOL
REMARK 924 INTRA-LIGAND FREE ENERGY PREDICTED BY IDOCK:   -0.05 KCAL/MOL
REMARK 927      BINDING AFFINITY PREDICTED BY RF-SCORE:    0.00 PKD
ROOT
HETATM    1 BR   UNL     1      -8.294  15.195  67.071  1.00  0.00    -0.262 Br 
HETATM    2  C   UNL     1      -9.285  15.284  68.753  1.00  0.00    -0.203 C  
HETATM    3  C   UNL     1     -10.682  15.890  68.584  1.00  0.00    -0.274 C  
HETATM    4 BR   UNL     1     -11.474  15.960  70.423  1.00  0.00    -0.409 Br 
HETATM    5  C   UNL     1     -11.550  14.918  67.801  1.00  0.00    -0.339 C  
HETATM    6  C   UNL     1     -10.753  17.307  67.988  1.00  0.00    -0.367 C  
HETATM    7  N   UNL     1     -12.270  14.112  67.152  1.00  0.00    -0.570 NA 
HETATM    8  H2  UNL     1     -11.687  14.764  67.677  1.00  0.00     0.000 HD 
HETATM    9  H1  UNL     1     -12.852  13.460  66.626  1.00  0.00     0.000 HD 
ENDROOT
BRANCH   6  10
HETATM   10  C   UNL     1      -9.845  18.343  68.666  1.00  0.00    -0.403 C  
HETATM   11  C   UNL     1      -9.839  19.604  67.913  1.00  0.00    -0.399 C  
HETATM   12  N   UNL     1      -9.838  20.600  67.320  1.00  0.00    -0.460 NA 
ENDBRANCH   6  10
TORSDOF 1
ENDMDL
MODEL       31
REMARK 921   NORMALIZED FREE ENERGY PREDICTED BY IDOCK:   -3.41 KCAL/MOL
REMARK 922        TOTAL FREE ENERGY PREDICTED BY IDOCK:   -3.73 KCAL/MOL
REMARK 923 INTER-LIGAND FREE ENERGY PREDICTED BY IDOCK:   -3.62 KCAL/MOL
REMARK 924 INTRA-LIGAND FREE ENERGY PREDICTED BY IDOCK:   -0.11 KCAL/MOL
REMARK 927      BINDING AFFINITY PREDICTED BY RF-SCORE:    0.00 PKD
ROOT
HETATM    1 BR   UNL     1      -9.483  15.834  66.315  1.00  0.00    -0.380 Br 
HETATM    2  C   UNL     1     -10.127  14.542  67.631  1.00  0.00    -0.228 C  
HETATM    3  C   UNL     1     -10.038  13.096  67.133  1.00  0.00    -0.242 C  
HETATM    4 BR   UNL     1     -10.820  11.966  68.591  1.00  0.00    -0.293 Br 
HETATM    5  C   UNL     1      -8.575  12.695  67.044  1.00  0.00    -0.181 C  
HETATM    6  C   UNL     1     -10.788  12.766  65.830  1.00  0.00    -0.295 C  
HETATM    7  N   UNL     1      -7.361  12.362  66.969  1.00  0.00    -0.351 NA 
HETATM    8  H2  UNL     1      -8.343  12.631  67.029  1.00  0.00     0.000 HD 
HETATM    9  H1  UNL     1      -6.379  12.092  66.909  1.00  0.00     0.000 HD 
ENDROOT
BRANCH   6  10
HETATM   10  C   UNL     1     -12.258  13.209  65.798  1.00  0.00    -0.514 C  
HETATM   11  C   UNL     1     -12.483  14.190  64.729  1.00  0.00    -0.373 C  
HETATM   12  N   UNL     1     -12.660  14.963  63.883  1.00  0.00    -0.760 NA 
ENDBRANCH   6  10
TORSDOF 1
ENDMDL
MODEL       32
REMARK 921   NORMALIZED FREE ENERGY PREDICTED BY IDOCK:   -3.35 KCAL/MOL
REMARK 922        TOTAL FREE ENERGY PREDICTED BY IDOCK:   -3.67 KCAL/MOL
REMARK 923 INTER-LIGAND FREE ENERGY PREDICTED BY IDOCK:   -3.55 KCAL/MOL
REMARK 924 INTRA-LIGAND FREE ENERGY PREDICTED BY IDOCK:   -0.11 KCAL/MOL
REMARK 927      BINDING AFFINITY PREDICTED BY RF-SCORE:    0.00 PKD
ROOT
HETATM    1 BR   UNL     1     -10.646  19.443  67.404  1.00  0.00    -0.602 Br 
HETATM    2  C   UNL     1     -10.057  17.784  66.558  1.00  0.00    -0.358 C  
HETATM    3  C   UNL     1      -9.745  16.680  67.574  1.00  0.00    -0.247 C  
HETATM    4 BR   UNL     1      -9.087  15.120  66.504  1.00  0.00    -0.328 Br 
HETATM    5  C   UNL     1     -11.043  16.219  68.216  1.00  0.00    -0.346 C  
HETATM    6  C   UNL     1      -8.680  17.001  68.638  1.00  0.00    -0.261 C  
HETATM    7  N   UNL     1     -12.120  15.836  68.748  1.00  0.00    -0.545 NA 
HETATM    8  H2  UNL     1     -11.249  16.146  68.317  1.00  0.00     0.000 HD 
HETATM    9  H1  UNL     1     -12.992  15.527  69.178  1.00  0.00     0.000 HD 
ENDROOT
BRANCH   6  10
HETATM   10  C   UNL     1      -7.357  17.552  68.087  1.00  0.00    -0.218 C  
HETATM   11  C   UNL     1      -7.006  18.819  68.741  1.00  0.00    -0.304 C  
HETATM   12  N   UNL     1      -6.730  19.818  69.261  1.00  0.00    -0.345 NA 
ENDBRANCH   6  10
TORSDOF 1
ENDMDL
MODEL       33
REMARK 921   NORMALIZED FREE ENERGY PREDICTED BY IDOCK:   -3.34 KCAL/MOL
REMARK 922        TOTAL FREE ENERGY PREDICTED BY IDOCK:   -3.65 KCAL/MOL
REMARK 923 INTER-LIGAND FREE ENERGY PREDICTED BY IDOCK:   -3.57 KCAL/MOL
REMARK 924 INTRA-LIGAND FREE ENERGY PREDICTED BY IDOCK:   -0.08 KCAL/MOL
REMARK 927      BINDING AFFINITY PREDICTED BY RF-SCORE:    0.00 PKD
ROOT
HETATM    1 BR   UNL     1     -10.638  15.169  66.206  1.00  0.00    -0.325 Br 
HETATM    2  C   UNL     1     -10.004  13.335  65.976  1.00  0.00    -0.292 C  
HETATM    3  C   UNL     1     -11.123  12.299  66.126  1.00  0.00    -0.311 C  
HETATM    4 BR   UNL     1     -10.242  10.510  65.939  1.00  0.00    -0.289 Br 
HETATM    5  C   UNL     1     -12.065  12.418  64.939  1.00  0.00    -0.407 C  
HETATM    6  C   UNL     1     -11.897  12.304  67.456  1.00  0.00    -0.331 C  
HETATM    7  N   UNL     1     -12.847  12.516  63.955  1.00  0.00    -0.754 NA 
HETATM    8  H2  UNL     1     -12.215  12.436  64.751  1.00  0.00     0.000 HD 
HETATM    9  H1  UNL     1     -13.480  12.595  63.158  1.00  0.00     0.000 HD 
ENDROOT
BRANCH   6  10
HETATM   10  C   UNL     1     -11.022  12.268  68.717  1.00  0.00    -0.277 C  
HETATM   11  C   UNL     1     -11.379  11.126  69.568  1.00  0.00    -0.290 C  
HETATM   12  N   UNL     1     -11.661  10.223  70.238  1.00  0.00    -0.294 NA 
ENDBRANCH   6  10
TORSDOF 1
ENDMDL
MODEL       34
REMARK 921   NORMALIZED FREE ENERGY PREDICTED BY IDOCK:   -3.30 KCAL/MOL
REMARK 922        TOTAL FREE ENERGY PREDICTED BY IDOCK:   -3.60 KCAL/MOL
REMARK 923 INTER-LIGAND FREE ENERGY PREDICTED BY IDOCK:   -3.56 KCAL/MOL
REMARK 924 INTRA-LIGAND FREE ENERGY PREDICTED BY IDOCK:   -0.05 KCAL/MOL
REMARK 927      BINDING AFFINITY PREDICTED BY RF-SCORE:    0.00 PKD
ROOT
HETATM    1 BR   UNL     1     -10.250  19.699  67.568  1.00  0.00    -0.594 Br 
HETATM    2  C   UNL     1      -8.728  19.676  66.343  1.00  0.00    -0.368 C  
HETATM    3  C   UNL     1      -7.700  18.596  66.696  1.00  0.00    -0.248 C  
HETATM    4 BR   UNL     1      -6.206  18.808  65.379  1.00  0.00    -0.326 Br 
HETATM    5  C   UNL     1      -8.304  17.230  66.414  1.00  0.00    -0.280 C  
HETATM    6  C   UNL     1      -7.091  18.656  68.109  1.00  0.00    -0.265 C  
HETATM    7  N   UNL     1      -8.805  16.097  66.180  1.00  0.00    -0.336 NA 
HETATM    8  H2  UNL     1      -8.400  17.013  66.370  1.00  0.00     0.000 HD 
HETATM    9  H1  UNL     1      -9.211  15.180  65.991  1.00  0.00     0.000 HD 
ENDROOT
BRANCH   6  10
HETATM   10  C   UNL     1      -6.527  20.025  68.515  1.00  0.00    -0.330 C  
HETATM   11  C   UNL     1      -6.242  20.066  69.955  1.00  0.00    -0.361 C  
HETATM   12  N   UNL     1      -6.015  20.096  71.091  1.00  0.00    -0.448 NA 
ENDBRANCH   6  10
TORSDOF 1
ENDMDL
MODEL       35
REMARK 921   NORMALIZED FREE ENERGY PREDICTED BY IDOCK:   -3.29 KCAL/MOL
REMARK 922        TOTAL FREE ENERGY PREDICTED BY IDOCK:   -3.60 KCAL/MOL
REMARK 923 INTER-LIGAND FREE ENERGY PREDICTED BY IDOCK:   -3.51 KCAL/MOL
REMARK 924 INTRA-LIGAND FREE ENERGY PREDICTED BY IDOCK:   -0.09 KCAL/MOL
REMARK 927      BINDING AFFINITY PREDICTED BY RF-SCORE:    0.00 PKD
ROOT
HETATM    1 BR   UNL     1     -11.548  15.668  69.160  1.00  0.00    -0.409 Br 
HETATM    2  C   UNL     1     -12.153  14.512  67.706  1.00  0.00    -0.234 C  
HETATM    3  C   UNL     1     -11.064  13.549  67.223  1.00  0.00    -0.286 C  
HETATM    4 BR   UNL     1     -11.867  12.534  65.694  1.00  0.00    -0.486 Br 
HETATM    5  C   UNL     1     -10.803  12.516  68.308  1.00  0.00    -0.234 C  
HETATM    6  C   UNL     1      -9.750  14.181  66.728  1.00  0.00    -0.283 C  
HETATM    7  N   UNL     1     -10.587  11.660  69.208  1.00  0.00    -0.423 NA 
HETATM    8  H2  UNL     1     -10.762  12.353  68.480  1.00  0.00     0.000 HD 
HETATM    9  H1  UNL     1     -10.412  10.967  69.936  1.00  0.00     0.000 HD 
ENDROOT
BRANCH   6  10
HETATM   10  C   UNL     1      -9.920  15.295  65.685  1.00  0.00    -0.397 C  
HETATM   11  C   UNL     1      -9.021  16.420  65.973  1.00  0.00    -0.272 C  
HETATM   12  N   UNL     1      -8.309  17.306  66.200  1.00  0.00    -0.484 NA 
ENDBRANCH   6  10
TORSDOF 1
ENDMDL
MODEL       36
REMARK 921   NORMALIZED FREE ENERGY PREDICTED BY IDOCK:   -3.28 KCAL/MOL
REMARK 922        TOTAL FREE ENERGY PREDICTED BY IDOCK:   -3.59 KCAL/MOL
REMARK 923 INTER-LIGAND FREE ENERGY PREDICTED BY IDOCK:   -3.54 KCAL/MOL
REMARK 924 INTRA-LIGAND FREE ENERGY PREDICTED BY IDOCK:   -0.06 KCAL/MOL
REMARK 927      BINDING AFFINITY PREDICTED BY RF-SCORE:    0.00 PKD
ROOT
HETATM    1 BR   UNL     1      -7.957  10.932  66.781  1.00  0.00    -0.149 Br 
HETATM    2  C   UNL     1      -9.221  11.280  68.230  1.00  0.00    -0.176 C  
HETATM    3  C   UNL     1     -10.652  10.857  67.881  1.00  0.00    -0.207 C  
HETATM    4 BR   UNL     1     -11.776  11.377  69.455  1.00  0.00    -0.442 Br 
HETATM    5  C   UNL     1     -10.715   9.340  67.816  1.00  0.00    -0.207 C  
HETATM    6  C   UNL     1     -11.276  11.496  66.627  1.00  0.00    -0.336 C  
HETATM    7  N   UNL     1     -10.768   8.081  67.761  1.00  0.00    -0.464 NA 
HETATM    8  H2  UNL     1     -10.725   9.099  67.805  1.00  0.00     0.000 HD 
HETATM    9  H1  UNL     1     -10.810   7.063  67.718  1.00  0.00     0.000 HD 
ENDROOT
BRANCH   6  10
HETATM   10  C   UNL     1     -11.186  13.028  66.566  1.00  0.00    -0.335 C  
HETATM   11  C   UNL     1     -12.274  13.582  65.751  1.00  0.00    -0.461 C  
HETATM   12  N   UNL     1     -13.135  14.019  65.109  1.00  0.00    -0.759 NA 
ENDBRANCH   6  10
TORSDOF 1
ENDMDL
MODEL       37
REMARK 921   NORMALIZED FREE ENERGY PREDICTED BY IDOCK:   -3.25 KCAL/MOL
REMARK 922        TOTAL FREE ENERGY PREDICTED BY IDOCK:   -3.56 KCAL/MOL
REMARK 923 INTER-LIGAND FREE ENERGY PREDICTED BY IDOCK:   -3.49 KCAL/MOL
REMARK 924 INTRA-LIGAND FREE ENERGY PREDICTED BY IDOCK:   -0.06 KCAL/MOL
REMARK 927      BINDING AFFINITY PREDICTED BY RF-SCORE:    0.00 PKD
ROOT
HETATM    1 BR   UNL     1     -11.447  14.072  69.225  1.00  0.00    -0.364 Br 
HETATM    2  C   UNL     1     -11.849  14.562  67.377  1.00  0.00    -0.388 C  
HETATM    3  C   UNL     1     -10.614  15.055  66.615  1.00  0.00    -0.301 C  
HETATM    4 BR   UNL     1     -11.267  15.575  64.794  1.00  0.00    -0.336 Br 
HETATM    5  C   UNL     1      -9.672  13.883  66.393  1.00  0.00    -0.297 C  
HETATM    6  C   UNL     1      -9.870  16.264  67.209  1.00  0.00    -0.243 C  
HETATM    7  N   UNL     1      -8.890  12.911  66.208  1.00  0.00    -0.431 NA 
HETATM    8  H2  UNL     1      -9.523  13.697  66.357  1.00  0.00     0.000 HD 
HETATM    9  H1  UNL     1      -8.258  12.124  66.059  1.00  0.00     0.000 HD 
ENDROOT
BRANCH   6  10
HETATM   10  C   UNL     1     -10.758  17.472  67.543  1.00  0.00    -0.280 C  
HETATM   11  C   UNL     1     -10.367  18.642  66.747  1.00  0.00    -0.407 C  
HETATM   12  N   UNL     1     -10.060  19.564  66.115  1.00  0.00    -0.446 NA 
ENDBRANCH   6  10
TORSDOF 1
ENDMDL
MODEL       38
REMARK 921   NORMALIZED FREE ENERGY PREDICTED BY IDOCK:   -3.25 KCAL/MOL
REMARK 922        TOTAL FREE ENERGY PREDICTED BY IDOCK:   -3.55 KCAL/MOL
REMARK 923 INTER-LIGAND FREE ENERGY PREDICTED BY IDOCK:   -3.50 KCAL/MOL
REMARK 924 INTRA-LIGAND FREE ENERGY PREDICTED BY IDOCK:   -0.06 KCAL/MOL
REMARK 927      BINDING AFFINITY PREDICTED BY RF-SCORE:    0.00 PKD
ROOT
HETATM    1 BR   UNL     1      -7.599   6.926  66.299  1.00  0.00    -0.091 Br 
HETATM    2  C   UNL     1      -8.695   6.469  67.850  1.00  0.00    -0.116 C  
HETATM    3  C   UNL     1     -10.193   6.663  67.594  1.00  0.00    -0.177 C  
HETATM    4 BR   UNL     1     -11.106   6.222  69.321  1.00  0.00    -0.444 Br 
HETATM    5  C   UNL     1     -10.664   5.612  66.601  1.00  0.00    -0.268 C  
HETATM    6  C   UNL     1     -10.645   8.072  67.171  1.00  0.00    -0.367 C  
HETATM    7  N   UNL     1     -11.054   4.741  65.778  1.00  0.00    -0.876 NA 
HETATM    8  H2  UNL     1     -10.738   5.446  66.444  1.00  0.00     0.000 HD 
HETATM    9  H1  UNL     1     -11.370   4.036  65.112  1.00  0.00     0.000 HD 
ENDROOT
BRANCH   6  10
HETATM   10  C   UNL     1     -10.148   9.211  68.072  1.00  0.00    -0.238 C  
HETATM   11  C   UNL     1     -11.080  10.346  68.042  1.00  0.00    -0.298 C  
HETATM   12  N   UNL     1     -11.818  11.239  68.020  1.00  0.00    -0.624 NA 
ENDBRANCH   6  10
TORSDOF 1
ENDMDL
MODEL       39
REMARK 921   NORMALIZED FREE ENERGY PREDICTED BY IDOCK:   -3.24 KCAL/MOL
REMARK 922        TOTAL FREE ENERGY PREDICTED BY IDOCK:   -3.54 KCAL/MOL
REMARK 923 INTER-LIGAND FREE ENERGY PREDICTED BY IDOCK:   -3.47 KCAL/MOL
REMARK 924 INTRA-LIGAND FREE ENERGY PREDICTED BY IDOCK:   -0.08 KCAL/MOL
REMARK 927      BINDING AFFINITY PREDICTED BY RF-SCORE:    0.00 PKD
ROOT
HETATM    1 BR   UNL     1     -10.521  19.674  65.824  1.00  0.00    -0.424 Br 
HETATM    2  C   UNL     1      -9.208  20.013  67.231  1.00  0.00    -0.367 C  
HETATM    3  C   UNL     1      -8.224  18.853  67.412  1.00  0.00    -0.270 C  
HETATM    4 BR   UNL     1      -7.039  19.375  68.941  1.00  0.00    -0.401 Br 
HETATM    5  C   UNL     1      -7.315  18.783  66.195  1.00  0.00    -0.262 C  
HETATM    6  C   UNL     1      -8.829  17.476  67.737  1.00  0.00    -0.241 C  
HETATM    7  N   UNL     1      -6.562  18.725  65.186  1.00  0.00    -0.502 NA 
HETATM    8  H2  UNL     1      -7.171  18.772  66.002  1.00  0.00     0.000 HD 
HETATM    9  H1  UNL     1      -5.952  18.678  64.370  1.00  0.00     0.000 HD 
ENDROOT
BRANCH   6  10
HETATM   10  C   UNL     1      -9.825  17.464  68.905  1.00  0.00    -0.286 C  
HETATM   11  C   UNL     1     -10.913  16.510  68.653  1.00  0.00    -0.344 C  
HETATM   12  N   UNL     1     -11.769  15.754  68.455  1.00  0.00    -0.370 NA 
ENDBRANCH   6  10
TORSDOF 1
ENDMDL
MODEL       40
REMARK 921   NORMALIZED FREE ENERGY PREDICTED BY IDOCK:   -3.22 KCAL/MOL
REMARK 922        TOTAL FREE ENERGY PREDICTED BY IDOCK:   -3.53 KCAL/MOL
REMARK 923 INTER-LIGAND FREE ENERGY PREDICTED BY IDOCK:   -3.47 KCAL/MOL
REMARK 924 INTRA-LIGAND FREE ENERGY PREDICTED BY IDOCK:   -0.06 KCAL/MOL
REMARK 927      BINDING AFFINITY PREDICTED BY RF-SCORE:    0.00 PKD
ROOT
HETATM    1 BR   UNL     1     -12.207  13.847  66.132  1.00  0.00    -0.501 Br 
HETATM    2  C   UNL     1     -10.445  14.050  66.950  1.00  0.00    -0.276 C  
HETATM    3  C   UNL     1     -10.494  14.809  68.279  1.00  0.00    -0.241 C  
HETATM    4 BR   UNL     1      -8.592  14.972  68.888  1.00  0.00    -0.190 Br 
HETATM    5  C   UNL     1     -11.184  13.941  69.318  1.00  0.00    -0.251 C  
HETATM    6  C   UNL     1     -11.098  16.225  68.246  1.00  0.00    -0.346 C  
HETATM    7  N   UNL     1     -11.757  13.220  70.180  1.00  0.00    -0.516 NA 
HETATM    8  H2  UNL     1     -11.293  13.803  69.483  1.00  0.00     0.000 HD 
HETATM    9  H1  UNL     1     -12.220  12.637  70.878  1.00  0.00     0.000 HD 
ENDROOT
BRANCH   6  10
HETATM   10  C   UNL     1     -10.517  17.153  67.169  1.00  0.00    -0.291 C  
HETATM   11  C   UNL     1     -10.469  18.541  67.647  1.00  0.00    -0.417 C  
HETATM   12  N   UNL     1     -10.430  19.635  68.026  1.00  0.00    -0.438 NA 
ENDBRANCH   6  10
TORSDOF 1
ENDMDL
MODEL       41
REMARK 921   NORMALIZED FREE ENERGY PREDICTED BY IDOCK:   -3.22 KCAL/MOL
REMARK 922        TOTAL FREE ENERGY PREDICTED BY IDOCK:   -3.53 KCAL/MOL
REMARK 923 INTER-LIGAND FREE ENERGY PREDICTED BY IDOCK:   -3.42 KCAL/MOL
REMARK 924 INTRA-LIGAND FREE ENERGY PREDICTED BY IDOCK:   -0.10 KCAL/MOL
REMARK 927      BINDING AFFINITY PREDICTED BY RF-SCORE:    0.00 PKD
ROOT
HETATM    1 BR   UNL     1     -10.639   9.562  69.075  1.00  0.00    -0.226 Br 
HETATM    2  C   UNL     1      -9.837   7.872  69.640  1.00  0.00    -0.179 C  
HETATM    3  C   UNL     1     -10.792   6.684  69.486  1.00  0.00    -0.289 C  
HETATM    4 BR   UNL     1      -9.804   5.092  70.194  1.00  0.00    -0.323 Br 
HETATM    5  C   UNL     1     -11.004   6.410  68.006  1.00  0.00    -0.311 C  
HETATM    6  C   UNL     1     -12.134   6.774  70.234  1.00  0.00    -0.211 C  
HETATM    7  N   UNL     1     -11.179   6.182  66.778  1.00  0.00    -0.731 NA 
HETATM    8  H2  UNL     1     -11.037   6.366  67.771  1.00  0.00     0.000 HD 
HETATM    9  H1  UNL     1     -11.322   5.998  65.785  1.00  0.00     0.000 HD 
ENDROOT
BRANCH   6  10
HETATM   10  C   UNL     1     -12.024   7.128  71.724  1.00  0.00    -0.348 C  
HETATM   11  C   UNL     1     -12.675   8.414  72.005  1.00  0.00    -0.360 C  
HETATM   12  N   UNL     1     -13.193   9.428  72.225  1.00  0.00    -0.444 NA 
ENDBRANCH   6  10
TORSDOF 1
ENDMDL
MODEL       42
REMARK 921   NORMALIZED FREE ENERGY PREDICTED BY IDOCK:   -3.20 KCAL/MOL
REMARK 922        TOTAL FREE ENERGY PREDICTED BY IDOCK:   -3.51 KCAL/MOL
REMARK 923 INTER-LIGAND FREE ENERGY PREDICTED BY IDOCK:   -3.48 KCAL/MOL
REMARK 924 INTRA-LIGAND FREE ENERGY PREDICTED BY IDOCK:   -0.02 KCAL/MOL
REMARK 927      BINDING AFFINITY PREDICTED BY RF-SCORE:    0.00 PKD
ROOT
HETATM    1 BR   UNL     1     -12.316  12.773  65.295  1.00  0.00    -0.518 Br 
HETATM    2  C   UNL     1     -10.763  11.762  65.914  1.00  0.00    -0.282 C  
HETATM    3  C   UNL     1     -10.397  12.072  67.369  1.00  0.00    -0.207 C  
HETATM    4 BR   UNL     1      -8.748  11.002  67.759  1.00  0.00    -0.133 Br 
HETATM    5  C   UNL     1     -11.475  11.508  68.280  1.00  0.00    -0.299 C  
HETATM    6  C   UNL     1     -10.093  13.542  67.708  1.00  0.00    -0.236 C  
HETATM    7  N   UNL     1     -12.370  11.041  69.035  1.00  0.00    -0.669 NA 
HETATM    8  H2  UNL     1     -11.646  11.419  68.424  1.00  0.00     0.000 HD 
HETATM    9  H1  UNL     1     -13.094  10.662  69.646  1.00  0.00     0.000 HD 
ENDROOT
BRANCH   6  10
HETATM   10  C   UNL     1      -9.070  14.222  66.787  1.00  0.00    -0.269 C  
HETATM   11  C   UNL     1      -9.725  15.205  65.914  1.00  0.00    -0.350 C  
HETATM   12  N   UNL     1     -10.244  15.982  65.228  1.00  0.00    -0.520 NA 
ENDBRANCH   6  10
TORSDOF 1
ENDMDL
MODEL       43
REMARK 921   NORMALIZED FREE ENERGY PREDICTED BY IDOCK:   -3.19 KCAL/MOL
REMARK 922        TOTAL FREE ENERGY PREDICTED BY IDOCK:   -3.49 KCAL/MOL
REMARK 923 INTER-LIGAND FREE ENERGY PREDICTED BY IDOCK:   -3.42 KCAL/MOL
REMARK 924 INTRA-LIGAND FREE ENERGY PREDICTED BY IDOCK:   -0.07 KCAL/MOL
REMARK 927      BINDING AFFINITY PREDICTED BY RF-SCORE:    0.00 PKD
ROOT
HETATM    1 BR   UNL     1     -14.100   8.473  71.756  1.00  0.00    -0.516 Br 
HETATM    2  C   UNL     1     -12.264   8.459  72.425  1.00  0.00    -0.367 C  
HETATM    3  C   UNL     1     -11.229   8.672  71.315  1.00  0.00    -0.276 C  
HETATM    4 BR   UNL     1      -9.438   8.538  72.203  1.00  0.00    -0.374 Br 
HETATM    5  C   UNL     1     -11.331  10.103  70.814  1.00  0.00    -0.354 C  
HETATM    6  C   UNL     1     -11.250   7.669  70.148  1.00  0.00    -0.193 C  
HETATM    7  N   UNL     1     -11.416  11.291  70.398  1.00  0.00    -0.482 NA 
HETATM    8  H2  UNL     1     -11.347  10.330  70.734  1.00  0.00     0.000 HD 
HETATM    9  H1  UNL     1     -11.484  12.251  70.061  1.00  0.00     0.000 HD 
ENDROOT
BRANCH   6  10
HETATM   10  C   UNL     1     -11.231   6.191  70.562  1.00  0.00    -0.403 C  
HETATM   11  C   UNL     1     -10.319   5.421  69.707  1.00  0.00    -0.305 C  
HETATM   12  N   UNL     1      -9.596   4.815  69.033  1.00  0.00    -0.152 NA 
ENDBRANCH   6  10
TORSDOF 1
ENDMDL
MODEL       44
REMARK 921   NORMALIZED FREE ENERGY PREDICTED BY IDOCK:   -3.17 KCAL/MOL
REMARK 922        TOTAL FREE ENERGY PREDICTED BY IDOCK:   -3.47 KCAL/MOL
REMARK 923 INTER-LIGAND FREE ENERGY PREDICTED BY IDOCK:   -3.43 KCAL/MOL
REMARK 924 INTRA-LIGAND FREE ENERGY PREDICTED BY IDOCK:   -0.05 KCAL/MOL
REMARK 927      BINDING AFFINITY PREDICTED BY RF-SCORE:    0.00 PKD
ROOT
HETATM    1 BR   UNL     1     -11.552  10.922  70.204  1.00  0.00    -0.436 Br 
HETATM    2  C   UNL     1     -11.735   8.978  70.136  1.00  0.00     0.102 C  
HETATM    3  C   UNL     1     -11.646   8.327  71.521  1.00  0.00    -0.279 C  
HETATM    4 BR   UNL     1     -11.772   6.353  71.207  1.00  0.00    -0.310 Br 
HETATM    5  C   UNL     1     -12.886   8.696  72.319  1.00  0.00    -0.383 C  
HETATM    6  C   UNL     1     -10.363   8.593  72.329  1.00  0.00    -0.376 C  
HETATM    7  N   UNL     1     -13.914   9.001  72.981  1.00  0.00    -1.141 NA 
HETATM    8  H2  UNL     1     -13.082   8.754  72.446  1.00  0.00     0.000 HD 
HETATM    9  H1  UNL     1     -14.747   9.248  73.517  1.00  0.00     0.000 HD 
ENDROOT
BRANCH   6  10
HETATM   10  C   UNL     1      -9.053   8.325  71.574  1.00  0.00    -0.229 C  
HETATM   11  C   UNL     1      -7.900   8.419  72.478  1.00  0.00    -0.095 C  
HETATM   12  N   UNL     1      -6.991   8.491  73.194  1.00  0.00    -0.278 NA 
ENDBRANCH   6  10
TORSDOF 1
ENDMDL
MODEL       45
REMARK 921   NORMALIZED FREE ENERGY PREDICTED BY IDOCK:   -3.17 KCAL/MOL
REMARK 922        TOTAL FREE ENERGY PREDICTED BY IDOCK:   -3.47 KCAL/MOL
REMARK 923 INTER-LIGAND FREE ENERGY PREDICTED BY IDOCK:   -3.36 KCAL/MOL
REMARK 924 INTRA-LIGAND FREE ENERGY PREDICTED BY IDOCK:   -0.11 KCAL/MOL
REMARK 927      BINDING AFFINITY PREDICTED BY RF-SCORE:    0.00 PKD
ROOT
HETATM    1 BR   UNL     1     -10.031  19.284  68.533  1.00  0.00    -0.533 Br 
HETATM    2  C   UNL     1     -10.428  18.205  66.953  1.00  0.00    -0.357 C  
HETATM    3  C   UNL     1     -10.157  16.713  67.173  1.00  0.00    -0.276 C  
HETATM    4 BR   UNL     1     -10.547  15.822  65.421  1.00  0.00    -0.446 Br 
HETATM    5  C   UNL     1     -11.185  16.164  68.149  1.00  0.00    -0.311 C  
HETATM    6  C   UNL     1      -8.728  16.323  67.589  1.00  0.00    -0.188 C  
HETATM    7  N   UNL     1     -12.037  15.708  68.959  1.00  0.00    -0.583 NA 
HETATM    8  H2  UNL     1     -11.348  16.077  68.304  1.00  0.00     0.000 HD 
HETATM    9  H1  UNL     1     -12.726  15.339  69.615  1.00  0.00     0.000 HD 
ENDROOT
BRANCH   6  10
HETATM   10  C   UNL     1      -7.614  16.901  66.704  1.00  0.00    -0.301 C  
HETATM   11  C   UNL     1      -6.736  17.785  67.482  1.00  0.00    -0.171 C  
HETATM   12  N   UNL     1      -6.042  18.479  68.098  1.00  0.00    -0.191 NA 
ENDBRANCH   6  10
TORSDOF 1
ENDMDL
MODEL       46
REMARK 921   NORMALIZED FREE ENERGY PREDICTED BY IDOCK:   -3.17 KCAL/MOL
REMARK 922        TOTAL FREE ENERGY PREDICTED BY IDOCK:   -3.47 KCAL/MOL
REMARK 923 INTER-LIGAND FREE ENERGY PREDICTED BY IDOCK:   -3.40 KCAL/MOL
REMARK 924 INTRA-LIGAND FREE ENERGY PREDICTED BY IDOCK:   -0.06 KCAL/MOL
REMARK 927      BINDING AFFINITY PREDICTED BY RF-SCORE:    0.00 PKD
ROOT
HETATM    1 BR   UNL     1      -7.333  10.295  65.401  1.00  0.00    -0.128 Br 
HETATM    2  C   UNL     1      -8.640  10.883  66.729  1.00  0.00    -0.137 C  
HETATM    3  C   UNL     1     -10.073  10.482  66.366  1.00  0.00    -0.228 C  
HETATM    4 BR   UNL     1     -11.238  11.251  67.804  1.00  0.00    -0.366 Br 
HETATM    5  C   UNL     1     -10.210   8.973  66.491  1.00  0.00    -0.248 C  
HETATM    6  C   UNL     1     -10.610  10.980  65.012  1.00  0.00    -0.315 C  
HETATM    7  N   UNL     1     -10.323   7.722  66.595  1.00  0.00    -0.477 NA 
HETATM    8  H2  UNL     1     -10.231   8.734  66.511  1.00  0.00     0.000 HD 
HETATM    9  H1  UNL     1     -10.415   6.709  66.679  1.00  0.00     0.000 HD 
ENDROOT
BRANCH   6  10
HETATM   10  C   UNL     1     -10.441  12.486  64.761  1.00  0.00    -0.336 C  
HETATM   11  C   UNL     1     -11.589  13.023  64.022  1.00  0.00    -0.430 C  
HETATM   12  N   UNL     1     -12.498  13.447  63.440  1.00  0.00    -0.739 NA 
ENDBRANCH   6  10
TORSDOF 1
ENDMDL
MODEL       47
REMARK 921   NORMALIZED FREE ENERGY PREDICTED BY IDOCK:   -3.16 KCAL/MOL
REMARK 922        TOTAL FREE ENERGY PREDICTED BY IDOCK:   -3.47 KCAL/MOL
REMARK 923 INTER-LIGAND FREE ENERGY PREDICTED BY IDOCK:   -3.40 KCAL/MOL
REMARK 924 INTRA-LIGAND FREE ENERGY PREDICTED BY IDOCK:   -0.06 KCAL/MOL
REMARK 927      BINDING AFFINITY PREDICTED BY RF-SCORE:    0.00 PKD
ROOT
HETATM    1 BR   UNL     1      -7.856  14.411  68.534  1.00  0.00    -0.142 Br 
HETATM    2  C   UNL     1      -8.977  14.351  66.935  1.00  0.00    -0.243 C  
HETATM    3  C   UNL     1      -9.685  15.681  66.658  1.00  0.00    -0.249 C  
HETATM    4 BR   UNL     1     -10.828  15.368  65.043  1.00  0.00    -0.449 Br 
HETATM    5  C   UNL     1      -8.651  16.712  66.234  1.00  0.00    -0.324 C  
HETATM    6  C   UNL     1     -10.592  16.228  67.776  1.00  0.00    -0.314 C  
HETATM    7  N   UNL     1      -7.793  17.566  65.883  1.00  0.00    -0.546 NA 
HETATM    8  H2  UNL     1      -8.487  16.875  66.167  1.00  0.00     0.000 HD 
HETATM    9  H1  UNL     1      -7.099  18.258  65.598  1.00  0.00     0.000 HD 
ENDROOT
BRANCH   6  10
HETATM   10  C   UNL     1     -11.619  15.228  68.325  1.00  0.00    -0.357 C  
HETATM   11  C   UNL     1     -11.927  15.517  69.732  1.00  0.00    -0.364 C  
HETATM   12  N   UNL     1     -12.172  15.748  70.841  1.00  0.00    -0.412 NA 
ENDBRANCH   6  10
TORSDOF 1
ENDMDL
MODEL       48
REMARK 921   NORMALIZED FREE ENERGY PREDICTED BY IDOCK:   -3.16 KCAL/MOL
REMARK 922        TOTAL FREE ENERGY PREDICTED BY IDOCK:   -3.46 KCAL/MOL
REMARK 923 INTER-LIGAND FREE ENERGY PREDICTED BY IDOCK:   -3.38 KCAL/MOL
REMARK 924 INTRA-LIGAND FREE ENERGY PREDICTED BY IDOCK:   -0.08 KCAL/MOL
REMARK 927      BINDING AFFINITY PREDICTED BY RF-SCORE:    0.00 PKD
ROOT
HETATM    1 BR   UNL     1     -12.578  13.767  65.787  1.00  0.00    -0.493 Br 
HETATM    2  C   UNL     1     -10.854  12.886  66.049  1.00  0.00    -0.279 C  
HETATM    3  C   UNL     1     -10.513  12.684  67.529  1.00  0.00    -0.221 C  
HETATM    4 BR   UNL     1      -8.690  11.853  67.563  1.00  0.00    -0.171 Br 
HETATM    5  C   UNL     1     -11.450  11.639  68.113  1.00  0.00    -0.313 C  
HETATM    6  C   UNL     1     -10.468  13.947  68.408  1.00  0.00    -0.250 C  
HETATM    7  N   UNL     1     -12.228  10.772  68.597  1.00  0.00    -0.827 NA 
HETATM    8  H2  UNL     1     -11.599  11.473  68.206  1.00  0.00     0.000 HD 
HETATM    9  H1  UNL     1     -12.857  10.071  68.989  1.00  0.00     0.000 HD 
ENDROOT
BRANCH   6  10
HETATM   10  C   UNL     1      -9.607  15.091  67.856  1.00  0.00    -0.203 C  
HETATM   11  C   UNL     1     -10.258  16.389  68.078  1.00  0.00    -0.264 C  
HETATM   12  N   UNL     1     -10.772  17.412  68.257  1.00  0.00    -0.360 NA 
ENDBRANCH   6  10
TORSDOF 1
ENDMDL
MODEL       49
REMARK 921   NORMALIZED FREE ENERGY PREDICTED BY IDOCK:   -3.14 KCAL/MOL
REMARK 922        TOTAL FREE ENERGY PREDICTED BY IDOCK:   -3.44 KCAL/MOL
REMARK 923 INTER-LIGAND FREE ENERGY PREDICTED BY IDOCK:   -3.32 KCAL/MOL
REMARK 924 INTRA-LIGAND FREE ENERGY PREDICTED BY IDOCK:   -0.12 KCAL/MOL
REMARK 927      BINDING AFFINITY PREDICTED BY RF-SCORE:    0.00 PKD
ROOT
HETATM    1 BR   UNL     1     -11.779  11.886  68.371  1.00  0.00    -0.369 Br 
HETATM    2  C   UNL     1     -11.563  13.285  67.024  1.00  0.00    -0.359 C  
HETATM    3  C   UNL     1     -10.367  14.200  67.308  1.00  0.00    -0.267 C  
HETATM    4 BR   UNL     1     -10.388  15.592  65.867  1.00  0.00    -0.395 Br 
HETATM    5  C   UNL     1      -9.084  13.413  67.099  1.00  0.00    -0.235 C  
HETATM    6  C   UNL     1     -10.360  14.929  68.664  1.00  0.00    -0.237 C  
HETATM    7  N   UNL     1      -8.019  12.760  66.925  1.00  0.00    -0.396 NA 
HETATM    8  H2  UNL     1      -8.880  13.288  67.065  1.00  0.00     0.000 HD 
HETATM    9  H1  UNL     1      -7.158  12.231  66.785  1.00  0.00     0.000 HD 
ENDROOT
BRANCH   6  10
HETATM   10  C   UNL     1     -11.652  15.688  68.999  1.00  0.00    -0.396 C  
HETATM   11  C   UNL     1     -12.208  15.231  70.279  1.00  0.00    -0.363 C  
HETATM   12  N   UNL     1     -12.644  14.871  71.291  1.00  0.00    -0.306 NA 
ENDBRANCH   6  10
TORSDOF 1
ENDMDL
MODEL       50
REMARK 921   NORMALIZED FREE ENERGY PREDICTED BY IDOCK:   -3.14 KCAL/MOL
REMARK 922        TOTAL FREE ENERGY PREDICTED BY IDOCK:   -3.44 KCAL/MOL
REMARK 923 INTER-LIGAND FREE ENERGY PREDICTED BY IDOCK:   -3.32 KCAL/MOL
REMARK 924 INTRA-LIGAND FREE ENERGY PREDICTED BY IDOCK:   -0.12 KCAL/MOL
REMARK 927      BINDING AFFINITY PREDICTED BY RF-SCORE:    0.00 PKD
ROOT
HETATM    1 BR   UNL     1     -11.247   5.038  73.111  1.00  0.00    -0.394 Br 
HETATM    2  C   UNL     1     -10.906   6.853  72.473  1.00  0.00    -0.244 C  
HETATM    3  C   UNL     1     -11.715   7.200  71.219  1.00  0.00    -0.306 C  
HETATM    4 BR   UNL     1     -11.152   9.051  70.699  1.00  0.00    -0.332 Br 
HETATM    5  C   UNL     1     -13.184   7.310  71.594  1.00  0.00    -0.366 C  
HETATM    6  C   UNL     1     -11.518   6.289  69.994  1.00  0.00    -0.460 C  
HETATM    7  N   UNL     1     -14.403   7.400  71.905  1.00  0.00    -0.590 NA 
HETATM    8  H2  UNL     1     -13.417   7.327  71.654  1.00  0.00     0.000 HD 
HETATM    9  H1  UNL     1     -15.388   7.473  72.157  1.00  0.00     0.000 HD 
ENDROOT
BRANCH   6  10
HETATM   10  C   UNL     1     -10.056   6.054  69.588  1.00  0.00    -0.244 C  
HETATM   11  C   UNL     1      -9.731   4.623  69.616  1.00  0.00    -0.213 C  
HETATM   12  N   UNL     1      -9.476   3.492  69.635  1.00  0.00    -0.174 NA 
ENDBRANCH   6  10
TORSDOF 1
ENDMDL
MODEL       51
REMARK 921   NORMALIZED FREE ENERGY PREDICTED BY IDOCK:   -3.14 KCAL/MOL
REMARK 922        TOTAL FREE ENERGY PREDICTED BY IDOCK:   -3.44 KCAL/MOL
REMARK 923 INTER-LIGAND FREE ENERGY PREDICTED BY IDOCK:   -3.32 KCAL/MOL
REMARK 924 INTRA-LIGAND FREE ENERGY PREDICTED BY IDOCK:   -0.12 KCAL/MOL
REMARK 927      BINDING AFFINITY PREDICTED BY RF-SCORE:    0.00 PKD
ROOT
HETATM    1 BR   UNL     1      -8.880  12.649  67.061  1.00  0.00    -0.200 Br 
HETATM    2  C   UNL     1      -9.552  14.218  66.110  1.00  0.00    -0.275 C  
HETATM    3  C   UNL     1     -11.047  14.120  65.789  1.00  0.00    -0.309 C  
HETATM    4 BR   UNL     1     -11.495  15.775  64.753  1.00  0.00    -0.169 Br 
HETATM    5  C   UNL     1     -11.837  14.220  67.084  1.00  0.00    -0.425 C  
HETATM    6  C   UNL     1     -11.497  12.908  64.954  1.00  0.00    -0.351 C  
HETATM    7  N   UNL     1     -12.492  14.304  68.158  1.00  0.00    -0.500 NA 
HETATM    8  H2  UNL     1     -11.962  14.236  67.289  1.00  0.00     0.000 HD 
HETATM    9  H1  UNL     1     -13.022  14.371  69.027  1.00  0.00     0.000 HD 
ENDROOT
BRANCH   6  10
HETATM   10  C   UNL     1     -10.700  12.678  63.662  1.00  0.00    -0.410 C  
HETATM   11  C   UNL     1     -10.099  11.338  63.651  1.00  0.00    -0.382 C  
HETATM   12  N   UNL     1      -9.627  10.279  63.643  1.00  0.00    -0.300 NA 
ENDBRANCH   6  10
TORSDOF 1
ENDMDL
MODEL       52
REMARK 921   NORMALIZED FREE ENERGY PREDICTED BY IDOCK:   -3.13 KCAL/MOL
REMARK 922        TOTAL FREE ENERGY PREDICTED BY IDOCK:   -3.43 KCAL/MOL
REMARK 923 INTER-LIGAND FREE ENERGY PREDICTED BY IDOCK:   -3.36 KCAL/MOL
REMARK 924 INTRA-LIGAND FREE ENERGY PREDICTED BY IDOCK:   -0.07 KCAL/MOL
REMARK 927      BINDING AFFINITY PREDICTED BY RF-SCORE:    0.00 PKD
ROOT
HETATM    1 BR   UNL     1      -8.703  15.802  66.561  1.00  0.00    -0.373 Br 
HETATM    2  C   UNL     1     -10.285  15.073  65.676  1.00  0.00    -0.360 C  
HETATM    3  C   UNL     1     -11.044  14.071  66.551  1.00  0.00    -0.314 C  
HETATM    4 BR   UNL     1     -12.559  13.398  65.427  1.00  0.00    -0.487 Br 
HETATM    5  C   UNL     1     -11.692  14.817  67.707  1.00  0.00    -0.343 C  
HETATM    6  C   UNL     1     -10.252  12.849  67.050  1.00  0.00    -0.243 C  
HETATM    7  N   UNL     1     -12.229  15.436  68.665  1.00  0.00    -0.560 NA 
HETATM    8  H2  UNL     1     -11.794  14.935  67.890  1.00  0.00     0.000 HD 
HETATM    9  H1  UNL     1     -12.663  15.936  69.440  1.00  0.00     0.000 HD 
ENDROOT
BRANCH   6  10
HETATM   10  C   UNL     1      -9.495  12.077  65.960  1.00  0.00    -0.229 C  
HETATM   11  C   UNL     1      -9.690  10.630  66.115  1.00  0.00    -0.205 C  
HETATM   12  N   UNL     1      -9.848   9.488  66.237  1.00  0.00    -0.246 NA 
ENDBRANCH   6  10
TORSDOF 1
ENDMDL
MODEL       53
REMARK 921   NORMALIZED FREE ENERGY PREDICTED BY IDOCK:   -3.10 KCAL/MOL
REMARK 922        TOTAL FREE ENERGY PREDICTED BY IDOCK:   -3.40 KCAL/MOL
REMARK 923 INTER-LIGAND FREE ENERGY PREDICTED BY IDOCK:   -3.33 KCAL/MOL
REMARK 924 INTRA-LIGAND FREE ENERGY PREDICTED BY IDOCK:   -0.07 KCAL/MOL
REMARK 927      BINDING AFFINITY PREDICTED BY RF-SCORE:    0.00 PKD
ROOT
HETATM    1 BR   UNL     1     -13.762   9.121  72.285  1.00  0.00    -0.543 Br 
HETATM    2  C   UNL     1     -12.722   7.803  71.286  1.00  0.00    -0.250 C  
HETATM    3  C   UNL     1     -11.215   7.928  71.534  1.00  0.00    -0.249 C  
HETATM    4 BR   UNL     1     -10.351   6.554  70.360  1.00  0.00    -0.251 Br 
HETATM    5  C   UNL     1     -10.912   7.498  72.960  1.00  0.00    -0.390 C  
HETATM    6  C   UNL     1     -10.572   9.290  71.213  1.00  0.00    -0.417 C  
HETATM    7  N   UNL     1     -10.661   7.142  74.143  1.00  0.00    -0.564 NA 
HETATM    8  H2  UNL     1     -10.864   7.430  73.186  1.00  0.00     0.000 HD 
HETATM    9  H1  UNL     1     -10.458   6.853  75.100  1.00  0.00     0.000 HD 
ENDROOT
BRANCH   6  10
HETATM   10  C   UNL     1     -10.890   9.845  69.817  1.00  0.00    -0.300 C  
HETATM   11  C   UNL     1      -9.683  10.392  69.186  1.00  0.00    -0.220 C  
HETATM   12  N   UNL     1      -8.728  10.821  68.687  1.00  0.00    -0.145 NA 
ENDBRANCH   6  10
TORSDOF 1
ENDMDL
MODEL       54
REMARK 921   NORMALIZED FREE ENERGY PREDICTED BY IDOCK:   -3.10 KCAL/MOL
REMARK 922        TOTAL FREE ENERGY PREDICTED BY IDOCK:   -3.39 KCAL/MOL
REMARK 923 INTER-LIGAND FREE ENERGY PREDICTED BY IDOCK:   -3.33 KCAL/MOL
REMARK 924 INTRA-LIGAND FREE ENERGY PREDICTED BY IDOCK:   -0.06 KCAL/MOL
REMARK 927      BINDING AFFINITY PREDICTED BY RF-SCORE:    0.00 PKD
ROOT
HETATM    1 BR   UNL     1     -11.976   9.578  71.217  1.00  0.00    -0.474 Br 
HETATM    2  C   UNL     1     -11.879   7.883  72.185  1.00  0.00    -0.334 C  
HETATM    3  C   UNL     1     -10.552   7.151  71.964  1.00  0.00    -0.210 C  
HETATM    4 BR   UNL     1     -10.705   5.424  72.968  1.00  0.00    -0.331 Br 
HETATM    5  C   UNL     1      -9.440   7.927  72.651  1.00  0.00    -0.222 C  
HETATM    6  C   UNL     1     -10.181   6.815  70.508  1.00  0.00    -0.212 C  
HETATM    7  N   UNL     1      -8.518   8.570  73.221  1.00  0.00    -0.389 NA 
HETATM    8  H2  UNL     1      -9.264   8.050  72.760  1.00  0.00     0.000 HD 
HETATM    9  H1  UNL     1      -7.771   9.091  73.682  1.00  0.00     0.000 HD 
ENDROOT
BRANCH   6  10
HETATM   10  C   UNL     1     -11.278   6.099  69.707  1.00  0.00    -0.494 C  
HETATM   11  C   UNL     1     -11.142   6.377  68.272  1.00  0.00    -0.267 C  
HETATM   12  N   UNL     1     -11.032   6.595  67.139  1.00  0.00    -0.401 NA 
ENDBRANCH   6  10
TORSDOF 1
ENDMDL
MODEL       55
REMARK 921   NORMALIZED FREE ENERGY PREDICTED BY IDOCK:   -3.08 KCAL/MOL
REMARK 922        TOTAL FREE ENERGY PREDICTED BY IDOCK:   -3.38 KCAL/MOL
REMARK 923 INTER-LIGAND FREE ENERGY PREDICTED BY IDOCK:   -3.31 KCAL/MOL
REMARK 924 INTRA-LIGAND FREE ENERGY PREDICTED BY IDOCK:   -0.07 KCAL/MOL
REMARK 927      BINDING AFFINITY PREDICTED BY RF-SCORE:    0.00 PKD
ROOT
HETATM    1 BR   UNL     1     -11.982  13.292  63.756  1.00  0.00    -0.526 Br 
HETATM    2  C   UNL     1     -12.401  14.039  65.512  1.00  0.00    -0.483 C  
HETATM    3  C   UNL     1     -11.192  14.051  66.454  1.00  0.00    -0.319 C  
HETATM    4 BR   UNL     1     -11.864  14.770  68.199  1.00  0.00    -0.272 Br 
HETATM    5  C   UNL     1     -10.185  15.072  65.950  1.00  0.00    -0.315 C  
HETATM    6  C   UNL     1     -10.520  12.695  66.733  1.00  0.00    -0.254 C  
HETATM    7  N   UNL     1      -9.350  15.919  65.533  1.00  0.00    -0.338 NA 
HETATM    8  H2  UNL     1     -10.026  15.234  65.870  1.00  0.00     0.000 HD 
HETATM    9  H1  UNL     1      -8.674  16.605  65.195  1.00  0.00     0.000 HD 
ENDROOT
BRANCH   6  10
HETATM   10  C   UNL     1     -11.474  11.575  67.171  1.00  0.00    -0.313 C  
HETATM   11  C   UNL     1     -11.117  11.077  68.505  1.00  0.00    -0.243 C  
HETATM   12  N   UNL     1     -10.836  10.687  69.560  1.00  0.00    -0.244 NA 
ENDBRANCH   6  10
TORSDOF 1
ENDMDL
MODEL       56
REMARK 921   NORMALIZED FREE ENERGY PREDICTED BY IDOCK:   -3.07 KCAL/MOL
REMARK 922        TOTAL FREE ENERGY PREDICTED BY IDOCK:   -3.37 KCAL/MOL
REMARK 923 INTER-LIGAND FREE ENERGY PREDICTED BY IDOCK:   -3.32 KCAL/MOL
REMARK 924 INTRA-LIGAND FREE ENERGY PREDICTED BY IDOCK:   -0.05 KCAL/MOL
REMARK 927      BINDING AFFINITY PREDICTED BY RF-SCORE:    0.00 PKD
ROOT
HETATM    1 BR   UNL     1     -10.661   5.742  69.590  1.00  0.00    -0.414 Br 
HETATM    2  C   UNL     1      -9.645   6.422  71.114  1.00  0.00    -0.174 C  
HETATM    3  C   UNL     1     -10.541   6.811  72.295  1.00  0.00    -0.213 C  
HETATM    4 BR   UNL     1      -9.313   7.551  73.694  1.00  0.00    -0.343 Br 
HETATM    5  C   UNL     1     -11.137   5.550  72.899  1.00  0.00    -0.299 C  
HETATM    6  C   UNL     1     -11.628   7.866  72.020  1.00  0.00    -0.357 C  
HETATM    7  N   UNL     1     -11.631   4.504  73.399  1.00  0.00    -0.271 NA 
HETATM    8  H2  UNL     1     -11.232   5.350  72.994  1.00  0.00     0.000 HD 
HETATM    9  H1  UNL     1     -12.031   3.657  73.805  1.00  0.00     0.000 HD 
ENDROOT
BRANCH   6  10
HETATM   10  C   UNL     1     -11.131   9.147  71.335  1.00  0.00    -0.415 C  
HETATM   11  C   UNL     1     -12.142  10.209  71.419  1.00  0.00    -0.382 C  
HETATM   12  N   UNL     1     -12.940  11.047  71.488  1.00  0.00    -0.450 NA 
ENDBRANCH   6  10
TORSDOF 1
ENDMDL
MODEL       57
REMARK 921   NORMALIZED FREE ENERGY PREDICTED BY IDOCK:   -3.06 KCAL/MOL
REMARK 922        TOTAL FREE ENERGY PREDICTED BY IDOCK:   -3.36 KCAL/MOL
REMARK 923 INTER-LIGAND FREE ENERGY PREDICTED BY IDOCK:   -3.29 KCAL/MOL
REMARK 924 INTRA-LIGAND FREE ENERGY PREDICTED BY IDOCK:   -0.06 KCAL/MOL
REMARK 927      BINDING AFFINITY PREDICTED BY RF-SCORE:    0.00 PKD
ROOT
HETATM    1 BR   UNL     1     -11.807  12.371  68.873  1.00  0.00    -0.321 Br 
HETATM    2  C   UNL     1     -11.453  13.987  67.832  1.00  0.00    -0.316 C  
HETATM    3  C   UNL     1     -10.951  13.681  66.417  1.00  0.00    -0.297 C  
HETATM    4 BR   UNL     1     -10.578  15.458  65.572  1.00  0.00    -0.432 Br 
HETATM    5  C   UNL     1     -12.088  13.074  65.611  1.00  0.00    -0.454 C  
HETATM    6  C   UNL     1      -9.672  12.831  66.306  1.00  0.00    -0.262 C  
HETATM    7  N   UNL     1     -13.031  12.571  64.942  1.00  0.00    -0.805 NA 
HETATM    8  H2  UNL     1     -12.268  12.978  65.483  1.00  0.00     0.000 HD 
HETATM    9  H1  UNL     1     -13.793  12.164  64.400  1.00  0.00     0.000 HD 
ENDROOT
BRANCH   6  10
HETATM   10  C   UNL     1      -8.490  13.323  67.153  1.00  0.00    -0.182 C  
HETATM   11  C   UNL     1      -7.625  12.202  67.543  1.00  0.00    -0.151 C  
HETATM   12  N   UNL     1      -6.942  11.317  67.847  1.00  0.00    -0.071 NA 
ENDBRANCH   6  10
TORSDOF 1
ENDMDL
MODEL       58
REMARK 921   NORMALIZED FREE ENERGY PREDICTED BY IDOCK:   -3.04 KCAL/MOL
REMARK 922        TOTAL FREE ENERGY PREDICTED BY IDOCK:   -3.34 KCAL/MOL
REMARK 923 INTER-LIGAND FREE ENERGY PREDICTED BY IDOCK:   -3.26 KCAL/MOL
REMARK 924 INTRA-LIGAND FREE ENERGY PREDICTED BY IDOCK:   -0.07 KCAL/MOL
REMARK 927      BINDING AFFINITY PREDICTED BY RF-SCORE:    0.00 PKD
ROOT
HETATM    1 BR   UNL     1     -10.719  19.220  66.870  1.00  0.00    -0.502 Br 
HETATM    2  C   UNL     1      -9.753  18.047  68.099  1.00  0.00    -0.322 C  
HETATM    3  C   UNL     1      -9.160  16.819  67.401  1.00  0.00    -0.216 C  
HETATM    4 BR   UNL     1      -8.300  15.729  68.845  1.00  0.00    -0.229 Br 
HETATM    5  C   UNL     1      -8.025  17.267  66.495  1.00  0.00    -0.283 C  
HETATM    6  C   UNL     1     -10.146  15.906  66.649  1.00  0.00    -0.287 C  
HETATM    7  N   UNL     1      -7.083  17.639  65.743  1.00  0.00    -0.423 NA 
HETATM    8  H2  UNL     1      -7.845  17.338  66.351  1.00  0.00     0.000 HD 
HETATM    9  H1  UNL     1      -6.321  17.940  65.135  1.00  0.00     0.000 HD 
ENDROOT
BRANCH   6  10
HETATM   10  C   UNL     1     -11.372  15.466  67.463  1.00  0.00    -0.269 C  
HETATM   11  C   UNL     1     -11.596  14.021  67.329  1.00  0.00    -0.369 C  
HETATM   12  N   UNL     1     -11.769  12.880  67.225  1.00  0.00    -0.362 NA 
ENDBRANCH   6  10
TORSDOF 1
ENDMDL
MODEL       59
REMARK 921   NORMALIZED FREE ENERGY PREDICTED BY IDOCK:   -3.03 KCAL/MOL
REMARK 922        TOTAL FREE ENERGY PREDICTED BY IDOCK:   -3.32 KCAL/MOL
REMARK 923 INTER-LIGAND FREE ENERGY PREDICTED BY IDOCK:   -3.24 KCAL/MOL
REMARK 924 INTRA-LIGAND FREE ENERGY PREDICTED BY IDOCK:   -0.08 KCAL/MOL
REMARK 927      BINDING AFFINITY PREDICTED BY RF-SCORE:    0.00 PKD
ROOT
HETATM    1 BR   UNL     1     -10.446  19.697  66.017  1.00  0.00    -0.574 Br 
HETATM    2  C   UNL     1      -9.118  19.661  67.451  1.00  0.00    -0.315 C  
HETATM    3  C   UNL     1      -7.737  19.207  66.966  1.00  0.00    -0.243 C  
HETATM    4 BR   UNL     1      -6.573  19.163  68.596  1.00  0.00    -0.311 Br 
HETATM    5  C   UNL     1      -7.149  20.285  66.071  1.00  0.00    -0.262 C  
HETATM    6  C   UNL     1      -7.660  17.822  66.298  1.00  0.00    -0.322 C  
HETATM    7  N   UNL     1      -6.662  21.179  65.328  1.00  0.00    -0.500 NA 
HETATM    8  H2  UNL     1      -7.056  20.456  65.929  1.00  0.00     0.000 HD 
HETATM    9  H1  UNL     1      -6.267  21.903  64.727  1.00  0.00     0.000 HD 
ENDROOT
BRANCH   6  10
HETATM   10  C   UNL     1      -8.303  16.679  67.096  1.00  0.00    -0.202 C  
HETATM   11  C   UNL     1      -7.351  15.577  67.289  1.00  0.00    -0.214 C  
HETATM   12  N   UNL     1      -6.598  14.710  67.443  1.00  0.00    -0.298 NA 
ENDBRANCH   6  10
TORSDOF 1
ENDMDL
MODEL       60
REMARK 921   NORMALIZED FREE ENERGY PREDICTED BY IDOCK:   -3.01 KCAL/MOL
REMARK 922        TOTAL FREE ENERGY PREDICTED BY IDOCK:   -3.30 KCAL/MOL
REMARK 923 INTER-LIGAND FREE ENERGY PREDICTED BY IDOCK:   -3.22 KCAL/MOL
REMARK 924 INTRA-LIGAND FREE ENERGY PREDICTED BY IDOCK:   -0.09 KCAL/MOL
REMARK 927      BINDING AFFINITY PREDICTED BY RF-SCORE:    0.00 PKD
ROOT
HETATM    1 BR   UNL     1      -9.401  11.630  67.458  1.00  0.00    -0.173 Br 
HETATM    2  C   UNL     1      -8.736  13.458  67.279  1.00  0.00    -0.218 C  
HETATM    3  C   UNL     1      -9.853  14.504  67.361  1.00  0.00    -0.227 C  
HETATM    4 BR   UNL     1      -8.965  16.277  67.071  1.00  0.00    -0.243 Br 
HETATM    5  C   UNL     1     -10.390  14.542  68.782  1.00  0.00    -0.243 C  
HETATM    6  C   UNL     1     -10.994  14.379  66.335  1.00  0.00    -0.319 C  
HETATM    7  N   UNL     1     -10.836  14.573  69.961  1.00  0.00    -0.461 NA 
HETATM    8  H2  UNL     1     -10.476  14.548  69.007  1.00  0.00     0.000 HD 
HETATM    9  H1  UNL     1     -11.197  14.599  70.915  1.00  0.00     0.000 HD 
ENDROOT
BRANCH   6  10
HETATM   10  C   UNL     1     -10.543  14.253  64.873  1.00  0.00    -0.452 C  
HETATM   11  C   UNL     1     -11.338  13.241  64.167  1.00  0.00    -0.386 C  
HETATM   12  N   UNL     1     -11.969  12.444  63.609  1.00  0.00    -0.495 NA 
ENDBRANCH   6  10
TORSDOF 1
ENDMDL
MODEL       61
REMARK 921   NORMALIZED FREE ENERGY PREDICTED BY IDOCK:   -3.01 KCAL/MOL
REMARK 922        TOTAL FREE ENERGY PREDICTED BY IDOCK:   -3.30 KCAL/MOL
REMARK 923 INTER-LIGAND FREE ENERGY PREDICTED BY IDOCK:   -3.25 KCAL/MOL
REMARK 924 INTRA-LIGAND FREE ENERGY PREDICTED BY IDOCK:   -0.05 KCAL/MOL
REMARK 927      BINDING AFFINITY PREDICTED BY RF-SCORE:    0.00 PKD
ROOT
HETATM    1 BR   UNL     1      -9.055   9.148  70.907  1.00  0.00    -0.300 Br 
HETATM    2  C   UNL     1     -10.994   8.969  71.067  1.00  0.00    -0.284 C  
HETATM    3  C   UNL     1     -11.424   7.565  71.503  1.00  0.00    -0.265 C  
HETATM    4 BR   UNL     1     -13.427   7.586  71.520  1.00  0.00    -0.396 Br 
HETATM    5  C   UNL     1     -11.005   7.347  72.948  1.00  0.00    -0.361 C  
HETATM    6  C   UNL     1     -10.975   6.395  70.609  1.00  0.00    -0.355 C  
HETATM    7  N   UNL     1     -10.656   7.166  74.146  1.00  0.00    -0.564 NA 
HETATM    8  H2  UNL     1     -10.938   7.312  73.177  1.00  0.00     0.000 HD 
HETATM    9  H1  UNL     1     -10.375   7.020  75.116  1.00  0.00     0.000 HD 
ENDROOT
BRANCH   6  10
HETATM   10  C   UNL     1     -11.286   6.564  69.115  1.00  0.00    -0.367 C  
HETATM   11  C   UNL     1     -10.513   5.608  68.310  1.00  0.00    -0.192 C  
HETATM   12  N   UNL     1      -9.905   4.852  67.677  1.00  0.00    -0.165 NA 
ENDBRANCH   6  10
TORSDOF 1
ENDMDL
MODEL       62
REMARK 921   NORMALIZED FREE ENERGY PREDICTED BY IDOCK:   -2.99 KCAL/MOL
REMARK 922        TOTAL FREE ENERGY PREDICTED BY IDOCK:   -3.28 KCAL/MOL
REMARK 923 INTER-LIGAND FREE ENERGY PREDICTED BY IDOCK:   -3.17 KCAL/MOL
REMARK 924 INTRA-LIGAND FREE ENERGY PREDICTED BY IDOCK:   -0.12 KCAL/MOL
REMARK 927      BINDING AFFINITY PREDICTED BY RF-SCORE:    0.00 PKD
ROOT
HETATM    1 BR   UNL     1     -10.227  16.511  65.897  1.00  0.00    -0.349 Br 
HETATM    2  C   UNL     1      -9.994  14.719  65.155  1.00  0.00    -0.244 C  
HETATM    3  C   UNL     1     -10.785  13.654  65.922  1.00  0.00    -0.281 C  
HETATM    4 BR   UNL     1     -10.336  11.906  65.052  1.00  0.00    -0.344 Br 
HETATM    5  C   UNL     1     -12.269  13.867  65.671  1.00  0.00    -0.452 C  
HETATM    6  C   UNL     1     -10.487  13.519  67.426  1.00  0.00    -0.247 C  
HETATM    7  N   UNL     1     -13.500  14.044  65.462  1.00  0.00    -0.627 NA 
HETATM    8  H2  UNL     1     -12.504  13.901  65.631  1.00  0.00     0.000 HD 
HETATM    9  H1  UNL     1     -14.496  14.187  65.294  1.00  0.00     0.000 HD 
ENDROOT
BRANCH   6  10
HETATM   10  C   UNL     1      -9.001  13.380  67.783  1.00  0.00    -0.205 C  
HETATM   11  C   UNL     1      -8.569  14.478  68.658  1.00  0.00    -0.168 C  
HETATM   12  N   UNL     1      -8.231  15.343  69.352  1.00  0.00    -0.249 NA 
ENDBRANCH   6  10
TORSDOF 1
ENDMDL
MODEL       63
REMARK 921   NORMALIZED FREE ENERGY PREDICTED BY IDOCK:   -2.99 KCAL/MOL
REMARK 922        TOTAL FREE ENERGY PREDICTED BY IDOCK:   -3.28 KCAL/MOL
REMARK 923 INTER-LIGAND FREE ENERGY PREDICTED BY IDOCK:   -3.16 KCAL/MOL
REMARK 924 INTRA-LIGAND FREE ENERGY PREDICTED BY IDOCK:   -0.12 KCAL/MOL
REMARK 927      BINDING AFFINITY PREDICTED BY RF-SCORE:    0.00 PKD
ROOT
HETATM    1 BR   UNL     1     -10.647  15.478  66.664  1.00  0.00    -0.305 Br 
HETATM    2  C   UNL     1     -10.606  16.958  67.939  1.00  0.00    -0.361 C  
HETATM    3  C   UNL     1      -9.716  18.115  67.473  1.00  0.00    -0.303 C  
HETATM    4 BR   UNL     1      -9.755  19.466  68.951  1.00  0.00    -0.477 Br 
HETATM    5  C   UNL     1     -10.371  18.793  66.281  1.00  0.00    -0.448 C  
HETATM    6  C   UNL     1      -8.241  17.780  67.183  1.00  0.00    -0.233 C  
HETATM    7  N   UNL     1     -10.915  19.355  65.292  1.00  0.00    -0.368 NA 
HETATM    8  H2  UNL     1     -10.475  18.900  66.092  1.00  0.00     0.000 HD 
HETATM    9  H1  UNL     1     -11.355  19.810  64.492  1.00  0.00     0.000 HD 
ENDROOT
BRANCH   6  10
HETATM   10  C   UNL     1      -7.516  17.020  68.303  1.00  0.00    -0.207 C  
HETATM   11  C   UNL     1      -6.958  15.758  67.800  1.00  0.00    -0.152 C  
HETATM   12  N   UNL     1      -6.515  14.764  67.402  1.00  0.00    -0.310 NA 
ENDBRANCH   6  10
TORSDOF 1
ENDMDL
MODEL       64
REMARK 921   NORMALIZED FREE ENERGY PREDICTED BY IDOCK:   -2.98 KCAL/MOL
REMARK 922        TOTAL FREE ENERGY PREDICTED BY IDOCK:   -3.27 KCAL/MOL
REMARK 923 INTER-LIGAND FREE ENERGY PREDICTED BY IDOCK:   -3.20 KCAL/MOL
REMARK 924 INTRA-LIGAND FREE ENERGY PREDICTED BY IDOCK:   -0.07 KCAL/MOL
REMARK 927      BINDING AFFINITY PREDICTED BY RF-SCORE:    0.00 PKD
ROOT
HETATM    1 BR   UNL     1     -10.580   6.645  68.611  1.00  0.00    -0.308 Br 
HETATM    2  C   UNL     1     -10.781   5.652  70.282  1.00  0.00    -0.294 C  
HETATM    3  C   UNL     1     -11.213   6.544  71.451  1.00  0.00    -0.283 C  
HETATM    4 BR   UNL     1     -11.273   5.349  73.058  1.00  0.00    -0.357 Br 
HETATM    5  C   UNL     1     -12.646   6.995  71.222  1.00  0.00    -0.373 C  
HETATM    6  C   UNL     1     -10.299   7.736  71.787  1.00  0.00    -0.243 C  
HETATM    7  N   UNL     1     -13.835   7.370  71.033  1.00  0.00    -0.609 NA 
HETATM    8  H2  UNL     1     -12.873   7.067  71.186  1.00  0.00     0.000 HD 
HETATM    9  H1  UNL     1     -14.797   7.674  70.880  1.00  0.00     0.000 HD 
ENDROOT
BRANCH   6  10
HETATM   10  C   UNL     1      -8.813   7.387  71.957  1.00  0.00    -0.141 C  
HETATM   11  C   UNL     1      -8.243   8.085  73.116  1.00  0.00    -0.188 C  
HETATM   12  N   UNL     1      -7.794   8.634  74.033  1.00  0.00    -0.408 NA 
ENDBRANCH   6  10
TORSDOF 1
ENDMDL
MODEL       65
REMARK 921   NORMALIZED FREE ENERGY PREDICTED BY IDOCK:   -2.98 KCAL/MOL
REMARK 922        TOTAL FREE ENERGY PREDICTED BY IDOCK:   -3.27 KCAL/MOL
REMARK 923 INTER-LIGAND FREE ENERGY PREDICTED BY IDOCK:   -3.22 KCAL/MOL
REMARK 924 INTRA-LIGAND FREE ENERGY PREDICTED BY IDOCK:   -0.05 KCAL/MOL
REMARK 927      BINDING AFFINITY PREDICTED BY RF-SCORE:    0.00 PKD
ROOT
HETATM    1 BR   UNL     1      -9.826  11.629  65.688  1.00  0.00    -0.280 Br 
HETATM    2  C   UNL     1     -10.677  12.373  67.282  1.00  0.00    -0.230 C  
HETATM    3  C   UNL     1     -11.094  13.836  67.101  1.00  0.00    -0.302 C  
HETATM    4 BR   UNL     1     -11.857  14.410  68.862  1.00  0.00    -0.344 Br 
HETATM    5  C   UNL     1     -12.248  13.902  66.114  1.00  0.00    -0.464 C  
HETATM    6  C   UNL     1      -9.981  14.832  66.726  1.00  0.00    -0.256 C  
HETATM    7  N   UNL     1     -13.205  13.957  65.295  1.00  0.00    -0.721 NA 
HETATM    8  H2  UNL     1     -12.431  13.913  65.957  1.00  0.00     0.000 HD 
HETATM    9  H1  UNL     1     -13.979  14.001  64.632  1.00  0.00     0.000 HD 
ENDROOT
BRANCH   6  10
HETATM   10  C   UNL     1      -8.736  14.781  67.623  1.00  0.00    -0.183 C  
HETATM   11  C   UNL     1      -7.705  15.707  67.137  1.00  0.00    -0.223 C  
HETATM   12  N   UNL     1      -6.894  16.441  66.754  1.00  0.00    -0.219 NA 
ENDBRANCH   6  10
TORSDOF 1
ENDMDL
MODEL       66
REMARK 921   NORMALIZED FREE ENERGY PREDICTED BY IDOCK:   -2.97 KCAL/MOL
REMARK 922        TOTAL FREE ENERGY PREDICTED BY IDOCK:   -3.26 KCAL/MOL
REMARK 923 INTER-LIGAND FREE ENERGY PREDICTED BY IDOCK:   -3.14 KCAL/MOL
REMARK 924 INTRA-LIGAND FREE ENERGY PREDICTED BY IDOCK:   -0.12 KCAL/MOL
REMARK 927      BINDING AFFINITY PREDICTED BY RF-SCORE:    0.00 PKD
ROOT
HETATM    1 BR   UNL     1      -9.584  18.371  68.133  1.00  0.00    -0.358 Br 
HETATM    2  C   UNL     1     -10.756  16.922  67.547  1.00  0.00    -0.270 C  
HETATM    3  C   UNL     1     -10.656  15.682  68.441  1.00  0.00    -0.252 C  
HETATM    4 BR   UNL     1     -11.862  14.313  67.616  1.00  0.00    -0.402 Br 
HETATM    5  C   UNL     1     -11.265  16.001  69.796  1.00  0.00    -0.344 C  
HETATM    6  C   UNL     1      -9.261  15.049  68.591  1.00  0.00    -0.198 C  
HETATM    7  N   UNL     1     -11.771  16.266  70.921  1.00  0.00    -0.571 NA 
HETATM    8  H2  UNL     1     -11.362  16.052  70.011  1.00  0.00     0.000 HD 
HETATM    9  H1  UNL     1     -12.179  16.481  71.831  1.00  0.00     0.000 HD 
ENDROOT
BRANCH   6  10
HETATM   10  C   UNL     1      -8.532  14.764  67.271  1.00  0.00    -0.234 C  
HETATM   11  C   UNL     1      -7.238  15.457  67.229  1.00  0.00    -0.194 C  
HETATM   12  N   UNL     1      -6.215  16.002  67.199  1.00  0.00    -0.318 NA 
ENDBRANCH   6  10
TORSDOF 1
ENDMDL
MODEL       67
REMARK 921   NORMALIZED FREE ENERGY PREDICTED BY IDOCK:   -2.96 KCAL/MOL
REMARK 922        TOTAL FREE ENERGY PREDICTED BY IDOCK:   -3.25 KCAL/MOL
REMARK 923 INTER-LIGAND FREE ENERGY PREDICTED BY IDOCK:   -3.23 KCAL/MOL
REMARK 924 INTRA-LIGAND FREE ENERGY PREDICTED BY IDOCK:   -0.02 KCAL/MOL
REMARK 927      BINDING AFFINITY PREDICTED BY RF-SCORE:    0.00 PKD
ROOT
HETATM    1 BR   UNL     1     -10.763   9.605  69.394  1.00  0.00    -0.249 Br 
HETATM    2  C   UNL     1      -9.680   7.992  69.601  1.00  0.00    -0.169 C  
HETATM    3  C   UNL     1     -10.513   6.708  69.528  1.00  0.00    -0.218 C  
HETATM    4 BR   UNL     1      -9.229   5.203  69.846  1.00  0.00    -0.187 Br 
HETATM    5  C   UNL     1     -11.014   6.525  68.104  1.00  0.00    -0.281 C  
HETATM    6  C   UNL     1     -11.660   6.568  70.545  1.00  0.00    -0.455 C  
HETATM    7  N   UNL     1     -11.429   6.374  66.923  1.00  0.00    -0.749 NA 
HETATM    8  H2  UNL     1     -11.093   6.496  67.878  1.00  0.00     0.000 HD 
HETATM    9  H1  UNL     1     -11.765   6.251  65.968  1.00  0.00     0.000 HD 
ENDROOT
BRANCH   6  10
HETATM   10  C   UNL     1     -11.265   6.816  72.007  1.00  0.00    -0.297 C  
HETATM   11  C   UNL     1     -11.306   5.566  72.778  1.00  0.00    -0.303 C  
HETATM   12  N   UNL     1     -11.336   4.579  73.384  1.00  0.00    -0.318 NA 
ENDBRANCH   6  10
TORSDOF 1
ENDMDL
MODEL       68
REMARK 921   NORMALIZED FREE ENERGY PREDICTED BY IDOCK:   -2.94 KCAL/MOL
REMARK 922        TOTAL FREE ENERGY PREDICTED BY IDOCK:   -3.23 KCAL/MOL
REMARK 923 INTER-LIGAND FREE ENERGY PREDICTED BY IDOCK:   -3.17 KCAL/MOL
REMARK 924 INTRA-LIGAND FREE ENERGY PREDICTED BY IDOCK:   -0.06 KCAL/MOL
REMARK 927      BINDING AFFINITY PREDICTED BY RF-SCORE:    0.00 PKD
ROOT
HETATM    1 BR   UNL     1      -9.993  15.370  67.097  1.00  0.00    -0.238 Br 
HETATM    2  C   UNL     1     -10.057  14.376  65.416  1.00  0.00    -0.359 C  
HETATM    3  C   UNL     1     -11.056  13.215  65.454  1.00  0.00    -0.278 C  
HETATM    4 BR   UNL     1     -10.895  12.297  63.680  1.00  0.00    -0.536 Br 
HETATM    5  C   UNL     1     -12.467  13.779  65.497  1.00  0.00    -0.512 C  
HETATM    6  C   UNL     1     -10.845  12.156  66.551  1.00  0.00    -0.307 C  
HETATM    7  N   UNL     1     -13.637  14.247  65.533  1.00  0.00    -0.426 NA 
HETATM    8  H2  UNL     1     -12.690  13.869  65.504  1.00  0.00     0.000 HD 
HETATM    9  H1  UNL     1     -14.584  14.626  65.561  1.00  0.00     0.000 HD 
ENDROOT
BRANCH   6  10
HETATM   10  C   UNL     1      -9.422  11.585  66.636  1.00  0.00    -0.208 C  
HETATM   11  C   UNL     1      -9.121  11.137  68.002  1.00  0.00    -0.153 C  
HETATM   12  N   UNL     1      -8.886  10.780  69.079  1.00  0.00    -0.154 NA 
ENDBRANCH   6  10
TORSDOF 1
ENDMDL
MODEL       69
REMARK 921   NORMALIZED FREE ENERGY PREDICTED BY IDOCK:   -2.94 KCAL/MOL
REMARK 922        TOTAL FREE ENERGY PREDICTED BY IDOCK:   -3.23 KCAL/MOL
REMARK 923 INTER-LIGAND FREE ENERGY PREDICTED BY IDOCK:   -3.11 KCAL/MOL
REMARK 924 INTRA-LIGAND FREE ENERGY PREDICTED BY IDOCK:   -0.12 KCAL/MOL
REMARK 927      BINDING AFFINITY PREDICTED BY RF-SCORE:    0.00 PKD
ROOT
HETATM    1 BR   UNL     1     -12.181   9.620  71.481  1.00  0.00    -0.508 Br 
HETATM    2  C   UNL     1     -11.327   8.040  70.714  1.00  0.00    -0.272 C  
HETATM    3  C   UNL     1      -9.862   8.285  70.334  1.00  0.00    -0.186 C  
HETATM    4 BR   UNL     1      -9.220   6.580  69.501  1.00  0.00    -0.142 Br 
HETATM    5  C   UNL     1      -9.045   8.453  71.605  1.00  0.00    -0.205 C  
HETATM    6  C   UNL     1      -9.587   9.426  69.338  1.00  0.00    -0.177 C  
HETATM    7  N   UNL     1      -8.368   8.593  72.659  1.00  0.00    -0.408 NA 
HETATM    8  H2  UNL     1      -8.916   8.480  71.806  1.00  0.00     0.000 HD 
HETATM    9  H1  UNL     1      -7.819   8.706  73.512  1.00  0.00     0.000 HD 
ENDROOT
BRANCH   6  10
HETATM   10  C   UNL     1     -10.429   9.384  68.055  1.00  0.00    -0.278 C  
HETATM   11  C   UNL     1     -11.232  10.606  67.917  1.00  0.00    -0.308 C  
HETATM   12  N   UNL     1     -11.863  11.572  67.809  1.00  0.00    -0.626 NA 
ENDBRANCH   6  10
TORSDOF 1
ENDMDL
MODEL       70
REMARK 921   NORMALIZED FREE ENERGY PREDICTED BY IDOCK:   -2.93 KCAL/MOL
REMARK 922        TOTAL FREE ENERGY PREDICTED BY IDOCK:   -3.22 KCAL/MOL
REMARK 923 INTER-LIGAND FREE ENERGY PREDICTED BY IDOCK:   -3.14 KCAL/MOL
REMARK 924 INTRA-LIGAND FREE ENERGY PREDICTED BY IDOCK:   -0.08 KCAL/MOL
REMARK 927      BINDING AFFINITY PREDICTED BY RF-SCORE:    0.00 PKD
ROOT
HETATM    1 BR   UNL     1     -11.894  14.482  64.715  1.00  0.00    -0.461 Br 
HETATM    2  C   UNL     1     -12.236  13.172  66.124  1.00  0.00    -0.385 C  
HETATM    3  C   UNL     1     -11.324  13.361  67.341  1.00  0.00    -0.309 C  
HETATM    4 BR   UNL     1     -11.786  11.878  68.606  1.00  0.00    -0.381 Br 
HETATM    5  C   UNL     1     -11.714  14.645  68.055  1.00  0.00    -0.342 C  
HETATM    6  C   UNL     1      -9.807  13.303  67.085  1.00  0.00    -0.237 C  
HETATM    7  N   UNL     1     -12.038  15.710  68.647  1.00  0.00    -0.541 NA 
HETATM    8  H2  UNL     1     -11.776  14.848  68.168  1.00  0.00     0.000 HD 
HETATM    9  H1  UNL     1     -12.300  16.571  69.126  1.00  0.00     0.000 HD 
ENDROOT
BRANCH   6  10
HETATM   10  C   UNL     1      -9.328  12.076  66.296  1.00  0.00    -0.228 C  
HETATM   11  C   UNL     1      -8.295  11.347  67.042  1.00  0.00    -0.161 C  
HETATM   12  N   UNL     1      -7.482  10.770  67.634  1.00  0.00    -0.094 NA 
ENDBRANCH   6  10
TORSDOF 1
ENDMDL
MODEL       71
REMARK 921   NORMALIZED FREE ENERGY PREDICTED BY IDOCK:   -2.93 KCAL/MOL
REMARK 922        TOTAL FREE ENERGY PREDICTED BY IDOCK:   -3.21 KCAL/MOL
REMARK 923 INTER-LIGAND FREE ENERGY PREDICTED BY IDOCK:   -3.17 KCAL/MOL
REMARK 924 INTRA-LIGAND FREE ENERGY PREDICTED BY IDOCK:   -0.05 KCAL/MOL
REMARK 927      BINDING AFFINITY PREDICTED BY RF-SCORE:    0.00 PKD
ROOT
HETATM    1 BR   UNL     1     -10.896   5.979  69.936  1.00  0.00    -0.456 Br 
HETATM    2  C   UNL     1     -12.111   7.168  70.900  1.00  0.00    -0.326 C  
HETATM    3  C   UNL     1     -11.533   8.574  71.093  1.00  0.00    -0.276 C  
HETATM    4 BR   UNL     1     -12.892   9.582  72.164  1.00  0.00    -0.454 Br 
HETATM    5  C   UNL     1     -11.474   9.271  69.744  1.00  0.00     0.087 C  
HETATM    6  C   UNL     1     -10.186   8.673  71.832  1.00  0.00    -0.404 C  
HETATM    7  N   UNL     1     -11.425   9.850  68.625  1.00  0.00    -0.505 NA 
HETATM    8  H2  UNL     1     -11.465   9.382  69.530  1.00  0.00     0.000 HD 
HETATM    9  H1  UNL     1     -11.386  10.319  67.720  1.00  0.00     0.000 HD 
ENDROOT
BRANCH   6  10
HETATM   10  C   UNL     1     -10.125   7.927  73.173  1.00  0.00    -0.362 C  
HETATM   11  C   UNL     1      -8.784   8.024  73.763  1.00  0.00    -0.265 C  
HETATM   12  N   UNL     1      -7.725   8.104  74.229  1.00  0.00    -0.209 NA 
ENDBRANCH   6  10
TORSDOF 1
ENDMDL
MODEL       72
REMARK 921   NORMALIZED FREE ENERGY PREDICTED BY IDOCK:   -2.93 KCAL/MOL
REMARK 922        TOTAL FREE ENERGY PREDICTED BY IDOCK:   -3.21 KCAL/MOL
REMARK 923 INTER-LIGAND FREE ENERGY PREDICTED BY IDOCK:   -3.11 KCAL/MOL
REMARK 924 INTRA-LIGAND FREE ENERGY PREDICTED BY IDOCK:   -0.10 KCAL/MOL
REMARK 927      BINDING AFFINITY PREDICTED BY RF-SCORE:    0.00 PKD
ROOT
HETATM    1 BR   UNL     1      -8.356  12.683  67.667  1.00  0.00    -0.187 Br 
HETATM    2  C   UNL     1      -9.761  12.721  66.311  1.00  0.00    -0.262 C  
HETATM    3  C   UNL     1     -11.007  13.485  66.772  1.00  0.00    -0.292 C  
HETATM    4 BR   UNL     1     -12.331  13.326  65.277  1.00  0.00    -0.550 Br 
HETATM    5  C   UNL     1     -10.671  14.965  66.866  1.00  0.00    -0.308 C  
HETATM    6  C   UNL     1     -11.689  12.985  68.058  1.00  0.00    -0.397 C  
HETATM    7  N   UNL     1     -10.393  16.192  66.944  1.00  0.00    -0.293 NA 
HETATM    8  H2  UNL     1     -10.618  15.199  66.881  1.00  0.00     0.000 HD 
HETATM    9  H1  UNL     1     -10.167  17.185  67.007  1.00  0.00     0.000 HD 
ENDROOT
BRANCH   6  10
HETATM   10  C   UNL     1     -11.995  11.481  68.087  1.00  0.00    -0.206 C  
HETATM   11  C   UNL     1     -11.534  10.879  69.345  1.00  0.00    -0.302 C  
HETATM   12  N   UNL     1     -11.173  10.406  70.340  1.00  0.00    -0.314 NA 
ENDBRANCH   6  10
TORSDOF 1
ENDMDL
MODEL       73
REMARK 921   NORMALIZED FREE ENERGY PREDICTED BY IDOCK:   -2.92 KCAL/MOL
REMARK 922        TOTAL FREE ENERGY PREDICTED BY IDOCK:   -3.21 KCAL/MOL
REMARK 923 INTER-LIGAND FREE ENERGY PREDICTED BY IDOCK:   -3.16 KCAL/MOL
REMARK 924 INTRA-LIGAND FREE ENERGY PREDICTED BY IDOCK:   -0.05 KCAL/MOL
REMARK 927      BINDING AFFINITY PREDICTED BY RF-SCORE:    0.00 PKD
ROOT
HETATM    1 BR   UNL     1      -8.445  14.150  67.331  1.00  0.00    -0.225 Br 
HETATM    2  C   UNL     1      -9.121  12.381  67.814  1.00  0.00    -0.193 C  
HETATM    3  C   UNL     1      -9.200  11.431  66.615  1.00  0.00    -0.181 C  
HETATM    4 BR   UNL     1      -9.987   9.727  67.317  1.00  0.00    -0.258 Br 
HETATM    5  C   UNL     1      -7.790  11.078  66.171  1.00  0.00    -0.117 C  
HETATM    6  C   UNL     1     -10.062  11.889  65.424  1.00  0.00    -0.285 C  
HETATM    7  N   UNL     1      -6.620  10.785  65.802  1.00  0.00    -0.279 NA 
HETATM    8  H2  UNL     1      -7.567  11.022  66.100  1.00  0.00     0.000 HD 
HETATM    9  H1  UNL     1      -5.674  10.548  65.504  1.00  0.00     0.000 HD 
ENDROOT
BRANCH   6  10
HETATM   10  C   UNL     1     -11.483  12.344  65.789  1.00  0.00    -0.416 C  
HETATM   11  C   UNL     1     -12.334  12.402  64.593  1.00  0.00    -0.441 C  
HETATM   12  N   UNL     1     -13.006  12.445  63.650  1.00  0.00    -0.768 NA 
ENDBRANCH   6  10
TORSDOF 1
ENDMDL
MODEL       74
REMARK 921   NORMALIZED FREE ENERGY PREDICTED BY IDOCK:   -2.91 KCAL/MOL
REMARK 922        TOTAL FREE ENERGY PREDICTED BY IDOCK:   -3.19 KCAL/MOL
REMARK 923 INTER-LIGAND FREE ENERGY PREDICTED BY IDOCK:   -3.14 KCAL/MOL
REMARK 924 INTRA-LIGAND FREE ENERGY PREDICTED BY IDOCK:   -0.05 KCAL/MOL
REMARK 927      BINDING AFFINITY PREDICTED BY RF-SCORE:    0.00 PKD
ROOT
HETATM    1 BR   UNL     1     -13.888   7.360  71.697  1.00  0.00    -0.441 Br 
HETATM    2  C   UNL     1     -12.183   8.130  72.261  1.00  0.00    -0.346 C  
HETATM    3  C   UNL     1     -10.979   7.434  71.619  1.00  0.00    -0.225 C  
HETATM    4 BR   UNL     1      -9.357   8.318  72.394  1.00  0.00    -0.355 Br 
HETATM    5  C   UNL     1     -10.954   7.760  70.135  1.00  0.00    -0.241 C  
HETATM    6  C   UNL     1     -10.846   5.919  71.859  1.00  0.00    -0.307 C  
HETATM    7  N   UNL     1     -10.933   8.032  68.904  1.00  0.00    -0.424 NA 
HETATM    8  H2  UNL     1     -10.950   7.812  69.900  1.00  0.00     0.000 HD 
HETATM    9  H1  UNL     1     -10.917   8.251  67.908  1.00  0.00     0.000 HD 
ENDROOT
BRANCH   6  10
HETATM   10  C   UNL     1     -10.941   5.484  73.329  1.00  0.00    -0.339 C  
HETATM   11  C   UNL     1     -11.127   4.031  73.432  1.00  0.00    -0.246 C  
HETATM   12  N   UNL     1     -11.270   2.883  73.511  1.00  0.00    -0.220 NA 
ENDBRANCH   6  10
TORSDOF 1
ENDMDL
MODEL       75
REMARK 921   NORMALIZED FREE ENERGY PREDICTED BY IDOCK:   -2.91 KCAL/MOL
REMARK 922        TOTAL FREE ENERGY PREDICTED BY IDOCK:   -3.19 KCAL/MOL
REMARK 923 INTER-LIGAND FREE ENERGY PREDICTED BY IDOCK:   -3.09 KCAL/MOL
REMARK 924 INTRA-LIGAND FREE ENERGY PREDICTED BY IDOCK:   -0.10 KCAL/MOL
REMARK 927      BINDING AFFINITY PREDICTED BY RF-SCORE:    0.00 PKD
ROOT
HETATM    1 BR   UNL     1     -11.036   6.371  68.840  1.00  0.00    -0.390 Br 
HETATM    2  C   UNL     1     -10.457   6.304  70.705  1.00  0.00    -0.223 C  
HETATM    3  C   UNL     1     -11.052   7.435  71.550  1.00  0.00    -0.239 C  
HETATM    4 BR   UNL     1     -10.266   7.223  73.380  1.00  0.00    -0.415 Br 
HETATM    5  C   UNL     1     -12.544   7.196  71.714  1.00  0.00    -0.346 C  
HETATM    6  C   UNL     1     -10.766   8.873  71.081  1.00  0.00    -0.333 C  
HETATM    7  N   UNL     1     -13.782   6.997  71.850  1.00  0.00    -0.530 NA 
HETATM    8  H2  UNL     1     -12.781   7.158  71.740  1.00  0.00     0.000 HD 
HETATM    9  H1  UNL     1     -14.783   6.836  71.960  1.00  0.00     0.000 HD 
ENDROOT
BRANCH   6  10
HETATM   10  C   UNL     1      -9.287   9.186  70.811  1.00  0.00    -0.325 C  
HETATM   11  C   UNL     1      -9.073   9.509  69.394  1.00  0.00    -0.168 C  
HETATM   12  N   UNL     1      -8.906   9.766  68.276  1.00  0.00    -0.119 NA 
ENDBRANCH   6  10
TORSDOF 1
ENDMDL
MODEL       76
REMARK 921   NORMALIZED FREE ENERGY PREDICTED BY IDOCK:   -2.90 KCAL/MOL
REMARK 922        TOTAL FREE ENERGY PREDICTED BY IDOCK:   -3.19 KCAL/MOL
REMARK 923 INTER-LIGAND FREE ENERGY PREDICTED BY IDOCK:   -3.13 KCAL/MOL
REMARK 924 INTRA-LIGAND FREE ENERGY PREDICTED BY IDOCK:   -0.06 KCAL/MOL
REMARK 927      BINDING AFFINITY PREDICTED BY RF-SCORE:    0.00 PKD
ROOT
HETATM    1 BR   UNL     1      -8.898   7.640  71.552  1.00  0.00    -0.147 Br 
HETATM    2  C   UNL     1     -10.225   9.028  71.911  1.00  0.00    -0.272 C  
HETATM    3  C   UNL     1     -11.483   8.880  71.051  1.00  0.00    -0.294 C  
HETATM    4 BR   UNL     1     -12.654  10.437  71.519  1.00  0.00    -0.545 Br 
HETATM    5  C   UNL     1     -12.246   7.644  71.500  1.00  0.00    -0.324 C  
HETATM    6  C   UNL     1     -11.283   8.887  69.524  1.00  0.00     0.087 C  
HETATM    7  N   UNL     1     -12.878   6.619  71.874  1.00  0.00    -0.478 NA 
HETATM    8  H2  UNL     1     -12.366   7.448  71.572  1.00  0.00     0.000 HD 
HETATM    9  H1  UNL     1     -13.389   5.790  72.176  1.00  0.00     0.000 HD 
ENDROOT
BRANCH   6  10
HETATM   10  C   UNL     1     -10.452  10.060  68.984  1.00  0.00    -0.233 C  
HETATM   11  C   UNL     1     -11.255  10.897  68.083  1.00  0.00    -0.301 C  
HETATM   12  N   UNL     1     -11.890  11.558  67.374  1.00  0.00    -0.620 NA 
ENDBRANCH   6  10
TORSDOF 1
ENDMDL
MODEL       77
REMARK 921   NORMALIZED FREE ENERGY PREDICTED BY IDOCK:   -2.87 KCAL/MOL
REMARK 922        TOTAL FREE ENERGY PREDICTED BY IDOCK:   -3.16 KCAL/MOL
REMARK 923 INTER-LIGAND FREE ENERGY PREDICTED BY IDOCK:   -3.10 KCAL/MOL
REMARK 924 INTRA-LIGAND FREE ENERGY PREDICTED BY IDOCK:   -0.05 KCAL/MOL
REMARK 927      BINDING AFFINITY PREDICTED BY RF-SCORE:    0.00 PKD
ROOT
HETATM    1 BR   UNL     1      -7.745   9.555  69.398  1.00  0.00    -0.104 Br 
HETATM    2  C   UNL     1      -8.814   7.961  69.767  1.00  0.00    -0.141 C  
HETATM    3  C   UNL     1     -10.241   8.067  69.221  1.00  0.00    -0.213 C  
HETATM    4 BR   UNL     1     -11.168   6.382  69.781  1.00  0.00    -0.494 Br 
HETATM    5  C   UNL     1     -10.193   8.023  67.703  1.00  0.00    -0.228 C  
HETATM    6  C   UNL     1     -11.086   9.254  69.718  1.00  0.00    -0.168 C  
HETATM    7  N   UNL     1     -10.153   7.986  66.443  1.00  0.00    -0.476 NA 
HETATM    8  H2  UNL     1     -10.185   8.016  67.462  1.00  0.00     0.000 HD 
HETATM    9  H1  UNL     1     -10.120   7.957  65.424  1.00  0.00     0.000 HD 
ENDROOT
BRANCH   6  10
HETATM   10  C   UNL     1     -11.128   9.427  71.243  1.00  0.00    -0.446 C  
HETATM   11  C   UNL     1     -12.308  10.202  71.648  1.00  0.00    -0.377 C  
HETATM   12  N   UNL     1     -13.242  10.810  71.967  1.00  0.00    -0.455 NA 
ENDBRANCH   6  10
TORSDOF 1
ENDMDL
MODEL       78
REMARK 921   NORMALIZED FREE ENERGY PREDICTED BY IDOCK:   -2.85 KCAL/MOL
REMARK 922        TOTAL FREE ENERGY PREDICTED BY IDOCK:   -3.14 KCAL/MOL
REMARK 923 INTER-LIGAND FREE ENERGY PREDICTED BY IDOCK:   -3.02 KCAL/MOL
REMARK 924 INTRA-LIGAND FREE ENERGY PREDICTED BY IDOCK:   -0.12 KCAL/MOL
REMARK 927      BINDING AFFINITY PREDICTED BY RF-SCORE:    0.00 PKD
ROOT
HETATM    1 BR   UNL     1      -9.402  11.108  65.998  1.00  0.00    -0.238 Br 
HETATM    2  C   UNL     1      -9.105  10.522  67.838  1.00  0.00    -0.136 C  
HETATM    3  C   UNL     1     -10.358   9.908  68.472  1.00  0.00    -0.196 C  
HETATM    4 BR   UNL     1      -9.854   9.462  70.359  1.00  0.00    -0.333 Br 
HETATM    5  C   UNL     1     -10.649   8.576  67.800  1.00  0.00    -0.175 C  
HETATM    6  C   UNL     1     -11.615  10.795  68.520  1.00  0.00    -0.325 C  
HETATM    7  N   UNL     1     -10.890   7.471  67.242  1.00  0.00    -0.528 NA 
HETATM    8  H2  UNL     1     -10.695   8.365  67.693  1.00  0.00     0.000 HD 
HETATM    9  H1  UNL     1     -11.086   6.577  66.791  1.00  0.00     0.000 HD 
ENDROOT
BRANCH   6  10
HETATM   10  C   UNL     1     -11.398  12.196  69.111  1.00  0.00    -0.333 C  
HETATM   11  C   UNL     1     -11.775  13.234  68.144  1.00  0.00    -0.362 C  
HETATM   12  N   UNL     1     -12.076  14.053  67.381  1.00  0.00    -0.393 NA 
ENDBRANCH   6  10
TORSDOF 1
ENDMDL
MODEL       79
REMARK 921   NORMALIZED FREE ENERGY PREDICTED BY IDOCK:   -2.84 KCAL/MOL
REMARK 922        TOTAL FREE ENERGY PREDICTED BY IDOCK:   -3.13 KCAL/MOL
REMARK 923 INTER-LIGAND FREE ENERGY PREDICTED BY IDOCK:   -3.07 KCAL/MOL
REMARK 924 INTRA-LIGAND FREE ENERGY PREDICTED BY IDOCK:   -0.06 KCAL/MOL
REMARK 927      BINDING AFFINITY PREDICTED BY RF-SCORE:    0.00 PKD
ROOT
HETATM    1 BR   UNL     1     -11.363  15.231  64.983  1.00  0.00    -0.327 Br 
HETATM    2  C   UNL     1      -9.880  15.676  66.175  1.00  0.00    -0.314 C  
HETATM    3  C   UNL     1      -9.747  14.696  67.345  1.00  0.00    -0.218 C  
HETATM    4 BR   UNL     1      -8.238  15.384  68.468  1.00  0.00    -0.154 Br 
HETATM    5  C   UNL     1      -9.281  13.351  66.811  1.00  0.00    -0.236 C  
HETATM    6  C   UNL     1     -10.977  14.537  68.258  1.00  0.00    -0.258 C  
HETATM    7  N   UNL     1      -8.893  12.236  66.368  1.00  0.00    -0.382 NA 
HETATM    8  H2  UNL     1      -9.207  13.138  66.726  1.00  0.00     0.000 HD 
HETATM    9  H1  UNL     1      -8.580  11.334  66.009  1.00  0.00     0.000 HD 
ENDROOT
BRANCH   6  10
HETATM   10  C   UNL     1     -11.569  15.853  68.783  1.00  0.00    -0.389 C  
HETATM   11  C   UNL     1     -12.265  15.639  70.058  1.00  0.00    -0.327 C  
HETATM   12  N   UNL     1     -12.812  15.470  71.066  1.00  0.00    -0.467 NA 
ENDBRANCH   6  10
TORSDOF 1
ENDMDL
MODEL       80
REMARK 921   NORMALIZED FREE ENERGY PREDICTED BY IDOCK:   -2.84 KCAL/MOL
REMARK 922        TOTAL FREE ENERGY PREDICTED BY IDOCK:   -3.12 KCAL/MOL
REMARK 923 INTER-LIGAND FREE ENERGY PREDICTED BY IDOCK:   -3.06 KCAL/MOL
REMARK 924 INTRA-LIGAND FREE ENERGY PREDICTED BY IDOCK:   -0.06 KCAL/MOL
REMARK 927      BINDING AFFINITY PREDICTED BY RF-SCORE:    0.00 PKD
ROOT
HETATM    1 BR   UNL     1      -9.638   6.781  69.494  1.00  0.00    -0.151 Br 
HETATM    2  C   UNL     1     -11.122   8.002  69.847  1.00  0.00    -0.108 C  
HETATM    3  C   UNL     1     -10.730   9.155  70.778  1.00  0.00    -0.263 C  
HETATM    4 BR   UNL     1     -12.403  10.218  71.067  1.00  0.00    -0.522 Br 
HETATM    5  C   UNL     1      -9.778  10.082  70.040  1.00  0.00    -0.175 C  
HETATM    6  C   UNL     1     -10.175   8.770  72.161  1.00  0.00    -0.371 C  
HETATM    7  N   UNL     1      -8.988  10.851  69.428  1.00  0.00    -0.399 NA 
HETATM    8  H2  UNL     1      -9.627  10.229  69.923  1.00  0.00     0.000 HD 
HETATM    9  H1  UNL     1      -8.348  11.473  68.934  1.00  0.00     0.000 HD 
ENDROOT
BRANCH   6  10
HETATM   10  C   UNL     1     -11.033   7.770  72.949  1.00  0.00    -0.467 C  
HETATM   11  C   UNL     1     -10.200   6.964  73.851  1.00  0.00    -0.367 C  
HETATM   12  N   UNL     1      -9.542   6.331  74.564  1.00  0.00    -0.233 NA 
ENDBRANCH   6  10
TORSDOF 1
ENDMDL
MODEL       81
REMARK 921   NORMALIZED FREE ENERGY PREDICTED BY IDOCK:   -2.83 KCAL/MOL
REMARK 922        TOTAL FREE ENERGY PREDICTED BY IDOCK:   -3.12 KCAL/MOL
REMARK 923 INTER-LIGAND FREE ENERGY PREDICTED BY IDOCK:   -3.04 KCAL/MOL
REMARK 924 INTRA-LIGAND FREE ENERGY PREDICTED BY IDOCK:   -0.08 KCAL/MOL
REMARK 927      BINDING AFFINITY PREDICTED BY RF-SCORE:    0.00 PKD
ROOT
HETATM    1 BR   UNL     1     -10.397  14.486  65.947  1.00  0.00    -0.354 Br 
HETATM    2  C   UNL     1      -9.384  13.210  67.025  1.00  0.00    -0.238 C  
HETATM    3  C   UNL     1     -10.130  11.888  67.233  1.00  0.00    -0.196 C  
HETATM    4 BR   UNL     1      -8.958  10.778  68.419  1.00  0.00    -0.160 Br 
HETATM    5  C   UNL     1     -10.194  11.144  65.908  1.00  0.00    -0.251 C  
HETATM    6  C   UNL     1     -11.518  11.974  67.892  1.00  0.00    -0.396 C  
HETATM    7  N   UNL     1     -10.247  10.527  64.810  1.00  0.00    -0.341 NA 
HETATM    8  H2  UNL     1     -10.204  11.026  65.699  1.00  0.00     0.000 HD 
HETATM    9  H1  UNL     1     -10.290  10.028  63.921  1.00  0.00     0.000 HD 
ENDROOT
BRANCH   6  10
HETATM   10  C   UNL     1     -11.567  12.778  69.199  1.00  0.00    -0.373 C  
HETATM   11  C   UNL     1     -12.112  11.964  70.293  1.00  0.00    -0.325 C  
HETATM   12  N   UNL     1     -12.540  11.319  71.156  1.00  0.00    -0.403 NA 
ENDBRANCH   6  10
TORSDOF 1
ENDMDL
MODEL       82
REMARK 921   NORMALIZED FREE ENERGY PREDICTED BY IDOCK:   -2.82 KCAL/MOL
REMARK 922        TOTAL FREE ENERGY PREDICTED BY IDOCK:   -3.10 KCAL/MOL
REMARK 923 INTER-LIGAND FREE ENERGY PREDICTED BY IDOCK:   -3.17 KCAL/MOL
REMARK 924 INTRA-LIGAND FREE ENERGY PREDICTED BY IDOCK:    0.07 KCAL/MOL
REMARK 927      BINDING AFFINITY PREDICTED BY RF-SCORE:    0.00 PKD
ROOT
HETATM    1 BR   UNL     1     -10.259  18.950  66.111  1.00  0.00    -0.465 Br 
HETATM    2  C   UNL     1     -10.900  17.410  67.129  1.00  0.00    -0.090 C  
HETATM    3  C   UNL     1     -10.216  16.102  66.715  1.00  0.00    -0.281 C  
HETATM    4 BR   UNL     1     -11.076  14.664  67.813  1.00  0.00    -0.322 Br 
HETATM    5  C   UNL     1      -8.763  16.144  67.159  1.00  0.00    -0.194 C  
HETATM    6  C   UNL     1     -10.336  15.697  65.235  1.00  0.00    -0.405 C  
HETATM    7  N   UNL     1      -7.558  16.178  67.527  1.00  0.00    -0.137 NA 
HETATM    8  H2  UNL     1      -8.533  16.150  67.229  1.00  0.00     0.000 HD 
HETATM    9  H1  UNL     1      -6.582  16.205  67.825  1.00  0.00     0.000 HD 
ENDROOT
BRANCH   6  10
HETATM   10  C   UNL     1     -11.766  15.705  64.674  1.00  0.00    -0.190 C  
HETATM   11  C   UNL     1     -12.312  14.344  64.619  1.00  0.00    -0.418 C  
HETATM   12  N   UNL     1     -12.744  13.268  64.579  1.00  0.00    -0.671 NA 
ENDBRANCH   6  10
TORSDOF 1
ENDMDL
MODEL       83
REMARK 921   NORMALIZED FREE ENERGY PREDICTED BY IDOCK:   -2.82 KCAL/MOL
REMARK 922        TOTAL FREE ENERGY PREDICTED BY IDOCK:   -3.10 KCAL/MOL
REMARK 923 INTER-LIGAND FREE ENERGY PREDICTED BY IDOCK:   -3.03 KCAL/MOL
REMARK 924 INTRA-LIGAND FREE ENERGY PREDICTED BY IDOCK:   -0.06 KCAL/MOL
REMARK 927      BINDING AFFINITY PREDICTED BY RF-SCORE:    0.00 PKD
ROOT
HETATM    1 BR   UNL     1      -7.550   7.323  68.462  1.00  0.00    -0.121 Br 
HETATM    2  C   UNL     1      -9.050   6.751  69.576  1.00  0.00    -0.141 C  
HETATM    3  C   UNL     1     -10.400   7.248  69.050  1.00  0.00    -0.205 C  
HETATM    4 BR   UNL     1     -11.767   6.625  70.375  1.00  0.00    -0.389 Br 
HETATM    5  C   UNL     1     -10.723   6.521  67.755  1.00  0.00    -0.296 C  
HETATM    6  C   UNL     1     -10.562   8.771  68.891  1.00  0.00    -0.178 C  
HETATM    7  N   UNL     1     -10.991   5.918  66.681  1.00  0.00    -0.686 NA 
HETATM    8  H2  UNL     1     -10.774   6.406  67.550  1.00  0.00     0.000 HD 
HETATM    9  H1  UNL     1     -11.208   5.430  65.812  1.00  0.00     0.000 HD 
ENDROOT
BRANCH   6  10
HETATM   10  C   UNL     1     -10.180   9.597  70.127  1.00  0.00    -0.313 C  
HETATM   11  C   UNL     1     -11.343  10.328  70.646  1.00  0.00    -0.347 C  
HETATM   12  N   UNL     1     -12.263  10.903  71.056  1.00  0.00    -0.358 NA 
ENDBRANCH   6  10
TORSDOF 1
ENDMDL
MODEL       84
REMARK 921   NORMALIZED FREE ENERGY PREDICTED BY IDOCK:   -2.81 KCAL/MOL
REMARK 922        TOTAL FREE ENERGY PREDICTED BY IDOCK:   -3.09 KCAL/MOL
REMARK 923 INTER-LIGAND FREE ENERGY PREDICTED BY IDOCK:   -2.98 KCAL/MOL
REMARK 924 INTRA-LIGAND FREE ENERGY PREDICTED BY IDOCK:   -0.11 KCAL/MOL
REMARK 927      BINDING AFFINITY PREDICTED BY RF-SCORE:    0.00 PKD
ROOT
HETATM    1 BR   UNL     1     -11.631  12.745  68.844  1.00  0.00    -0.382 Br 
HETATM    2  C   UNL     1     -11.534  10.854  68.362  1.00  0.00    -0.304 C  
HETATM    3  C   UNL     1     -10.175  10.464  67.771  1.00  0.00    -0.193 C  
HETATM    4 BR   UNL     1     -10.328   8.529  67.277  1.00  0.00    -0.374 Br 
HETATM    5  C   UNL     1      -9.125  10.525  68.867  1.00  0.00    -0.177 C  
HETATM    6  C   UNL     1      -9.719  11.233  66.518  1.00  0.00    -0.230 C  
HETATM    7  N   UNL     1      -8.253  10.576  69.777  1.00  0.00    -0.378 NA 
HETATM    8  H2  UNL     1      -8.958  10.535  69.041  1.00  0.00     0.000 HD 
HETATM    9  H1  UNL     1      -7.548  10.617  70.513  1.00  0.00     0.000 HD 
ENDROOT
BRANCH   6  10
HETATM   10  C   UNL     1     -10.751  11.294  65.382  1.00  0.00    -0.291 C  
HETATM   11  C   UNL     1     -11.014  12.685  64.990  1.00  0.00    -0.289 C  
HETATM   12  N   UNL     1     -11.218  13.783  64.680  1.00  0.00    -0.363 NA 
ENDBRANCH   6  10
TORSDOF 1
ENDMDL
MODEL       85
REMARK 921   NORMALIZED FREE ENERGY PREDICTED BY IDOCK:   -2.79 KCAL/MOL
REMARK 922        TOTAL FREE ENERGY PREDICTED BY IDOCK:   -3.07 KCAL/MOL
REMARK 923 INTER-LIGAND FREE ENERGY PREDICTED BY IDOCK:   -2.99 KCAL/MOL
REMARK 924 INTRA-LIGAND FREE ENERGY PREDICTED BY IDOCK:   -0.08 KCAL/MOL
REMARK 927      BINDING AFFINITY PREDICTED BY RF-SCORE:    0.00 PKD
ROOT
HETATM    1 BR   UNL     1      -6.595  14.904  68.035  1.00  0.00    -0.177 Br 
HETATM    2  C   UNL     1      -8.461  15.034  68.601  1.00  0.00    -0.168 C  
HETATM    3  C   UNL     1      -9.414  15.318  67.434  1.00  0.00    -0.199 C  
HETATM    4 BR   UNL     1     -11.237  15.493  68.247  1.00  0.00    -0.358 Br 
HETATM    5  C   UNL     1      -9.479  14.090  66.541  1.00  0.00    -0.279 C  
HETATM    6  C   UNL     1      -9.142  16.592  66.613  1.00  0.00    -0.283 C  
HETATM    7  N   UNL     1      -9.533  13.071  65.800  1.00  0.00    -0.470 NA 
HETATM    8  H2  UNL     1      -9.489  13.895  66.400  1.00  0.00     0.000 HD 
HETATM    9  H1  UNL     1      -9.577  12.247  65.201  1.00  0.00     0.000 HD 
ENDROOT
BRANCH   6  10
HETATM   10  C   UNL     1      -8.980  17.875  67.441  1.00  0.00    -0.245 C  
HETATM   11  C   UNL     1      -9.964  18.886  67.034  1.00  0.00    -0.340 C  
HETATM   12  N   UNL     1     -10.744  19.682  66.714  1.00  0.00    -0.476 NA 
ENDBRANCH   6  10
TORSDOF 1
ENDMDL
MODEL       86
REMARK 921   NORMALIZED FREE ENERGY PREDICTED BY IDOCK:   -2.79 KCAL/MOL
REMARK 922        TOTAL FREE ENERGY PREDICTED BY IDOCK:   -3.07 KCAL/MOL
REMARK 923 INTER-LIGAND FREE ENERGY PREDICTED BY IDOCK:   -3.01 KCAL/MOL
REMARK 924 INTRA-LIGAND FREE ENERGY PREDICTED BY IDOCK:   -0.06 KCAL/MOL
REMARK 927      BINDING AFFINITY PREDICTED BY RF-SCORE:    0.00 PKD
ROOT
HETATM    1 BR   UNL     1     -11.306  11.290  67.957  1.00  0.00    -0.379 Br 
HETATM    2  C   UNL     1      -9.739  10.346  68.645  1.00  0.00    -0.175 C  
HETATM    3  C   UNL     1     -10.008   8.860  68.899  1.00  0.00    -0.190 C  
HETATM    4 BR   UNL     1      -8.314   8.120  69.670  1.00  0.00    -0.126 Br 
HETATM    5  C   UNL     1     -10.192   8.157  67.564  1.00  0.00    -0.243 C  
HETATM    6  C   UNL     1     -11.153   8.520  69.870  1.00  0.00    -0.114 C  
HETATM    7  N   UNL     1     -10.344   7.573  66.456  1.00  0.00    -0.501 NA 
HETATM    8  H2  UNL     1     -10.221   8.045  67.352  1.00  0.00     0.000 HD 
HETATM    9  H1  UNL     1     -10.467   7.101  65.560  1.00  0.00     0.000 HD 
ENDROOT
BRANCH   6  10
HETATM   10  C   UNL     1     -11.096   9.248  71.221  1.00  0.00    -0.427 C  
HETATM   11  C   UNL     1     -12.438   9.372  71.804  1.00  0.00    -0.391 C  
HETATM   12  N   UNL     1     -13.498   9.466  72.265  1.00  0.00    -0.461 NA 
ENDBRANCH   6  10
TORSDOF 1
ENDMDL
MODEL       87
REMARK 921   NORMALIZED FREE ENERGY PREDICTED BY IDOCK:   -2.78 KCAL/MOL
REMARK 922        TOTAL FREE ENERGY PREDICTED BY IDOCK:   -3.06 KCAL/MOL
REMARK 923 INTER-LIGAND FREE ENERGY PREDICTED BY IDOCK:   -2.95 KCAL/MOL
REMARK 924 INTRA-LIGAND FREE ENERGY PREDICTED BY IDOCK:   -0.11 KCAL/MOL
REMARK 927      BINDING AFFINITY PREDICTED BY RF-SCORE:    0.00 PKD
ROOT
HETATM    1 BR   UNL     1     -10.486   7.551  67.203  1.00  0.00    -0.413 Br 
HETATM    2  C   UNL     1      -9.287   7.979  68.685  1.00  0.00    -0.146 C  
HETATM    3  C   UNL     1     -10.039   8.354  69.965  1.00  0.00    -0.192 C  
HETATM    4 BR   UNL     1      -8.632   8.831  71.309  1.00  0.00    -0.264 Br 
HETATM    5  C   UNL     1     -10.727   7.115  70.514  1.00  0.00    -0.238 C  
HETATM    6  C   UNL     1     -11.018   9.539  69.871  1.00  0.00    -0.263 C  
HETATM    7  N   UNL     1     -11.297   6.086  70.970  1.00  0.00    -0.273 NA 
HETATM    8  H2  UNL     1     -10.836   6.918  70.601  1.00  0.00     0.000 HD 
HETATM    9  H1  UNL     1     -11.758   5.254  71.338  1.00  0.00     0.000 HD 
ENDROOT
BRANCH   6  10
HETATM   10  C   UNL     1     -10.432  10.816  69.252  1.00  0.00    -0.243 C  
HETATM   11  C   UNL     1     -11.299  11.320  68.179  1.00  0.00    -0.303 C  
HETATM   12  N   UNL     1     -11.985  11.718  67.334  1.00  0.00    -0.612 NA 
ENDBRANCH   6  10
TORSDOF 1
ENDMDL
MODEL       88
REMARK 921   NORMALIZED FREE ENERGY PREDICTED BY IDOCK:   -2.75 KCAL/MOL
REMARK 922        TOTAL FREE ENERGY PREDICTED BY IDOCK:   -3.03 KCAL/MOL
REMARK 923 INTER-LIGAND FREE ENERGY PREDICTED BY IDOCK:   -2.91 KCAL/MOL
REMARK 924 INTRA-LIGAND FREE ENERGY PREDICTED BY IDOCK:   -0.12 KCAL/MOL
REMARK 927      BINDING AFFINITY PREDICTED BY RF-SCORE:    0.00 PKD
ROOT
HETATM    1 BR   UNL     1      -8.343  12.681  67.487  1.00  0.00    -0.188 Br 
HETATM    2  C   UNL     1      -9.892  13.133  66.384  1.00  0.00    -0.279 C  
HETATM    3  C   UNL     1     -10.902  11.985  66.283  1.00  0.00    -0.279 C  
HETATM    4 BR   UNL     1     -12.345  12.632  65.054  1.00  0.00    -0.534 Br 
HETATM    5  C   UNL     1     -11.569  11.796  67.636  1.00  0.00    -0.294 C  
HETATM    6  C   UNL     1     -10.377  10.649  65.728  1.00  0.00    -0.287 C  
HETATM    7  N   UNL     1     -12.123  11.639  68.757  1.00  0.00    -0.433 NA 
HETATM    8  H2  UNL     1     -11.675  11.766  67.850  1.00  0.00     0.000 HD 
HETATM    9  H1  UNL     1     -12.572  11.512  69.665  1.00  0.00     0.000 HD 
ENDROOT
BRANCH   6  10
HETATM   10  C   UNL     1      -9.615  10.753  64.399  1.00  0.00    -0.330 C  
HETATM   11  C   UNL     1      -8.236  10.270  64.550  1.00  0.00    -0.158 C  
HETATM   12  N   UNL     1      -7.149   9.886  64.669  1.00  0.00    -0.132 NA 
ENDBRANCH   6  10
TORSDOF 1
ENDMDL
MODEL       89
REMARK 921   NORMALIZED FREE ENERGY PREDICTED BY IDOCK:   -2.74 KCAL/MOL
REMARK 922        TOTAL FREE ENERGY PREDICTED BY IDOCK:   -3.01 KCAL/MOL
REMARK 923 INTER-LIGAND FREE ENERGY PREDICTED BY IDOCK:   -2.90 KCAL/MOL
REMARK 924 INTRA-LIGAND FREE ENERGY PREDICTED BY IDOCK:   -0.11 KCAL/MOL
REMARK 927      BINDING AFFINITY PREDICTED BY RF-SCORE:    0.00 PKD
ROOT
HETATM    1 BR   UNL     1     -11.892  10.913  69.347  1.00  0.00    -0.400 Br 
HETATM    2  C   UNL     1     -10.329  11.913  68.735  1.00  0.00    -0.165 C  
HETATM    3  C   UNL     1     -10.403  12.275  67.249  1.00  0.00    -0.214 C  
HETATM    4 BR   UNL     1      -8.682  13.209  66.825  1.00  0.00    -0.024 Br 
HETATM    5  C   UNL     1     -11.493  13.315  67.048  1.00  0.00    -0.339 C  
HETATM    6  C   UNL     1     -10.558  11.106  66.259  1.00  0.00    -0.309 C  
HETATM    7  N   UNL     1     -12.398  14.178  66.882  1.00  0.00    -0.565 NA 
HETATM    8  H2  UNL     1     -11.666  13.480  67.016  1.00  0.00     0.000 HD 
HETATM    9  H1  UNL     1     -13.130  14.876  66.748  1.00  0.00     0.000 HD 
ENDROOT
BRANCH   6  10
HETATM   10  C   UNL     1      -9.546   9.965  66.438  1.00  0.00    -0.255 C  
HETATM   11  C   UNL     1     -10.231   8.708  66.763  1.00  0.00    -0.291 C  
HETATM   12  N   UNL     1     -10.772   7.715  67.017  1.00  0.00    -0.339 NA 
ENDBRANCH   6  10
TORSDOF 1
ENDMDL
MODEL       90
REMARK 921   NORMALIZED FREE ENERGY PREDICTED BY IDOCK:   -2.73 KCAL/MOL
REMARK 922        TOTAL FREE ENERGY PREDICTED BY IDOCK:   -3.00 KCAL/MOL
REMARK 923 INTER-LIGAND FREE ENERGY PREDICTED BY IDOCK:   -2.93 KCAL/MOL
REMARK 924 INTRA-LIGAND FREE ENERGY PREDICTED BY IDOCK:   -0.08 KCAL/MOL
REMARK 927      BINDING AFFINITY PREDICTED BY RF-SCORE:    0.00 PKD
ROOT
HETATM    1 BR   UNL     1     -12.185  14.174  70.345  1.00  0.00    -0.446 Br 
HETATM    2  C   UNL     1     -11.752  15.816  69.377  1.00  0.00    -0.370 C  
HETATM    3  C   UNL     1     -10.916  15.557  68.119  1.00  0.00    -0.312 C  
HETATM    4 BR   UNL     1     -10.522  17.361  67.342  1.00  0.00    -0.309 Br 
HETATM    5  C   UNL     1     -11.781  14.847  67.090  1.00  0.00    -0.277 C  
HETATM    6  C   UNL     1      -9.574  14.829  68.318  1.00  0.00    -0.215 C  
HETATM    7  N   UNL     1     -12.498  14.259  66.236  1.00  0.00    -0.473 NA 
HETATM    8  H2  UNL     1     -11.918  14.735  66.927  1.00  0.00     0.000 HD 
HETATM    9  H1  UNL     1     -13.078  13.783  65.545  1.00  0.00     0.000 HD 
ENDROOT
BRANCH   6  10
HETATM   10  C   UNL     1      -8.664  15.429  69.399  1.00  0.00    -0.252 C  
HETATM   11  C   UNL     1      -7.364  15.810  68.834  1.00  0.00    -0.162 C  
HETATM   12  N   UNL     1      -6.339  16.114  68.386  1.00  0.00    -0.110 NA 
ENDBRANCH   6  10
TORSDOF 1
ENDMDL
MODEL       91
REMARK 921   NORMALIZED FREE ENERGY PREDICTED BY IDOCK:   -2.72 KCAL/MOL
REMARK 922        TOTAL FREE ENERGY PREDICTED BY IDOCK:   -3.00 KCAL/MOL
REMARK 923 INTER-LIGAND FREE ENERGY PREDICTED BY IDOCK:   -2.95 KCAL/MOL
REMARK 924 INTRA-LIGAND FREE ENERGY PREDICTED BY IDOCK:   -0.05 KCAL/MOL
REMARK 927      BINDING AFFINITY PREDICTED BY RF-SCORE:    0.00 PKD
ROOT
HETATM    1 BR   UNL     1     -10.569   7.533  67.213  1.00  0.00    -0.377 Br 
HETATM    2  C   UNL     1      -9.074   8.788  67.292  1.00  0.00    -0.132 C  
HETATM    3  C   UNL     1      -9.526  10.233  67.529  1.00  0.00    -0.152 C  
HETATM    4 BR   UNL     1      -7.858  11.342  67.490  1.00  0.00    -0.129 Br 
HETATM    5  C   UNL     1     -10.065  10.354  68.945  1.00  0.00    -0.201 C  
HETATM    6  C   UNL     1     -10.508  10.827  66.504  1.00  0.00    -0.299 C  
HETATM    7  N   UNL     1     -10.513  10.456  70.120  1.00  0.00    -0.445 NA 
HETATM    8  H2  UNL     1     -10.151  10.374  69.170  1.00  0.00     0.000 HD 
HETATM    9  H1  UNL     1     -10.875  10.537  71.070  1.00  0.00     0.000 HD 
ENDROOT
BRANCH   6  10
HETATM   10  C   UNL     1     -10.084  10.678  65.036  1.00  0.00    -0.388 C  
HETATM   11  C   UNL     1     -10.928  11.504  64.163  1.00  0.00    -0.366 C  
HETATM   12  N   UNL     1     -11.593  12.159  63.475  1.00  0.00    -0.464 NA 
ENDBRANCH   6  10
TORSDOF 1
ENDMDL
MODEL       92
REMARK 921   NORMALIZED FREE ENERGY PREDICTED BY IDOCK:   -2.71 KCAL/MOL
REMARK 922        TOTAL FREE ENERGY PREDICTED BY IDOCK:   -2.98 KCAL/MOL
REMARK 923 INTER-LIGAND FREE ENERGY PREDICTED BY IDOCK:   -2.87 KCAL/MOL
REMARK 924 INTRA-LIGAND FREE ENERGY PREDICTED BY IDOCK:   -0.12 KCAL/MOL
REMARK 927      BINDING AFFINITY PREDICTED BY RF-SCORE:    0.00 PKD
ROOT
HETATM    1 BR   UNL     1      -9.496  15.684  66.074  1.00  0.00    -0.386 Br 
HETATM    2  C   UNL     1      -7.998  15.260  67.255  1.00  0.00    -0.202 C  
HETATM    3  C   UNL     1      -8.064  16.014  68.588  1.00  0.00    -0.187 C  
HETATM    4 BR   UNL     1      -6.409  15.498  69.591  1.00  0.00    -0.170 Br 
HETATM    5  C   UNL     1      -9.225  15.470  69.405  1.00  0.00    -0.280 C  
HETATM    6  C   UNL     1      -8.106  17.551  68.512  1.00  0.00    -0.275 C  
HETATM    7  N   UNL     1     -10.188  15.019  70.083  1.00  0.00    -0.501 NA 
HETATM    8  H2  UNL     1      -9.409  15.384  69.534  1.00  0.00     0.000 HD 
HETATM    9  H1  UNL     1     -10.966  14.655  70.631  1.00  0.00     0.000 HD 
ENDROOT
BRANCH   6  10
HETATM   10  C   UNL     1      -7.016  18.188  67.638  1.00  0.00    -0.205 C  
HETATM   11  C   UNL     1      -7.611  19.003  66.572  1.00  0.00    -0.251 C  
HETATM   12  N   UNL     1      -8.083  19.650  65.733  1.00  0.00    -0.410 NA 
ENDBRANCH   6  10
TORSDOF 1
ENDMDL
MODEL       93
REMARK 921   NORMALIZED FREE ENERGY PREDICTED BY IDOCK:   -2.69 KCAL/MOL
REMARK 922        TOTAL FREE ENERGY PREDICTED BY IDOCK:   -2.97 KCAL/MOL
REMARK 923 INTER-LIGAND FREE ENERGY PREDICTED BY IDOCK:   -2.85 KCAL/MOL
REMARK 924 INTRA-LIGAND FREE ENERGY PREDICTED BY IDOCK:   -0.12 KCAL/MOL
REMARK 927      BINDING AFFINITY PREDICTED BY RF-SCORE:    0.00 PKD
ROOT
HETATM    1 BR   UNL     1     -12.350   6.626  71.677  1.00  0.00    -0.324 Br 
HETATM    2  C   UNL     1     -11.145   6.993  70.182  1.00  0.00    -0.285 C  
HETATM    3  C   UNL     1      -9.934   7.835  70.593  1.00  0.00    -0.186 C  
HETATM    4 BR   UNL     1      -8.894   8.156  68.911  1.00  0.00    -0.141 Br 
HETATM    5  C   UNL     1      -9.028   6.997  71.481  1.00  0.00    -0.139 C  
HETATM    6  C   UNL     1     -10.227   9.205  71.231  1.00  0.00    -0.400 C  
HETATM    7  N   UNL     1      -8.277   6.302  72.217  1.00  0.00    -0.109 NA 
HETATM    8  H2  UNL     1      -8.884   6.864  71.621  1.00  0.00     0.000 HD 
HETATM    9  H1  UNL     1      -7.669   5.739  72.813  1.00  0.00     0.000 HD 
ENDROOT
BRANCH   6  10
HETATM   10  C   UNL     1     -11.201  10.093  70.442  1.00  0.00    -0.402 C  
HETATM   11  C   UNL     1     -12.360  10.457  71.267  1.00  0.00    -0.401 C  
HETATM   12  N   UNL     1     -13.273  10.747  71.920  1.00  0.00    -0.466 NA 
ENDBRANCH   6  10
TORSDOF 1
ENDMDL
MODEL       94
REMARK 921   NORMALIZED FREE ENERGY PREDICTED BY IDOCK:   -2.69 KCAL/MOL
REMARK 922        TOTAL FREE ENERGY PREDICTED BY IDOCK:   -2.97 KCAL/MOL
REMARK 923 INTER-LIGAND FREE ENERGY PREDICTED BY IDOCK:   -2.95 KCAL/MOL
REMARK 924 INTRA-LIGAND FREE ENERGY PREDICTED BY IDOCK:   -0.02 KCAL/MOL
REMARK 927      BINDING AFFINITY PREDICTED BY RF-SCORE:    0.00 PKD
ROOT
HETATM    1 BR   UNL     1     -10.551  11.323  63.466  1.00  0.00    -0.387 Br 
HETATM    2  C   UNL     1      -9.516  11.667  65.088  1.00  0.00    -0.133 C  
HETATM    3  C   UNL     1     -10.224  11.178  66.356  1.00  0.00    -0.233 C  
HETATM    4 BR   UNL     1      -9.039  11.704  67.883  1.00  0.00    -0.177 Br 
HETATM    5  C   UNL     1     -10.241   9.658  66.355  1.00  0.00    -0.217 C  
HETATM    6  C   UNL     1     -11.626  11.752  66.631  1.00  0.00    -0.273 C  
HETATM    7  N   UNL     1     -10.256   8.397  66.355  1.00  0.00    -0.433 NA 
HETATM    8  H2  UNL     1     -10.244   9.417  66.355  1.00  0.00     0.000 HD 
HETATM    9  H1  UNL     1     -10.267   7.377  66.355  1.00  0.00     0.000 HD 
ENDROOT
BRANCH   6  10
HETATM   10  C   UNL     1     -11.723  13.283  66.572  1.00  0.00    -0.423 C  
HETATM   11  C   UNL     1     -11.928  13.845  67.914  1.00  0.00    -0.358 C  
HETATM   12  N   UNL     1     -12.086  14.287  68.973  1.00  0.00    -0.315 NA 
ENDBRANCH   6  10
TORSDOF 1
ENDMDL
MODEL       95
REMARK 921   NORMALIZED FREE ENERGY PREDICTED BY IDOCK:   -2.68 KCAL/MOL
REMARK 922        TOTAL FREE ENERGY PREDICTED BY IDOCK:   -2.95 KCAL/MOL
REMARK 923 INTER-LIGAND FREE ENERGY PREDICTED BY IDOCK:   -2.90 KCAL/MOL
REMARK 924 INTRA-LIGAND FREE ENERGY PREDICTED BY IDOCK:   -0.05 KCAL/MOL
REMARK 927      BINDING AFFINITY PREDICTED BY RF-SCORE:    0.00 PKD
ROOT
HETATM    1 BR   UNL     1     -10.651  19.519  65.948  1.00  0.00    -0.485 Br 
HETATM    2  C   UNL     1      -9.306  19.304  67.349  1.00  0.00    -0.307 C  
HETATM    3  C   UNL     1      -8.121  18.441  66.903  1.00  0.00    -0.245 C  
HETATM    4 BR   UNL     1      -6.924  18.286  68.502  1.00  0.00    -0.272 Br 
HETATM    5  C   UNL     1      -7.319  19.206  65.863  1.00  0.00    -0.252 C  
HETATM    6  C   UNL     1      -8.445  17.016  66.420  1.00  0.00    -0.318 C  
HETATM    7  N   UNL     1      -6.653  19.841  65.000  1.00  0.00    -0.319 NA 
HETATM    8  H2  UNL     1      -7.191  19.327  65.698  1.00  0.00     0.000 HD 
HETATM    9  H1  UNL     1      -6.114  20.354  64.302  1.00  0.00     0.000 HD 
ENDROOT
BRANCH   6  10
HETATM   10  C   UNL     1      -9.323  16.192  67.373  1.00  0.00    -0.220 C  
HETATM   11  C   UNL     1      -9.211  14.758  67.077  1.00  0.00    -0.233 C  
HETATM   12  N   UNL     1      -9.118  13.626  66.845  1.00  0.00    -0.246 NA 
ENDBRANCH   6  10
TORSDOF 1
ENDMDL
MODEL       96
REMARK 921   NORMALIZED FREE ENERGY PREDICTED BY IDOCK:   -2.67 KCAL/MOL
REMARK 922        TOTAL FREE ENERGY PREDICTED BY IDOCK:   -2.95 KCAL/MOL
REMARK 923 INTER-LIGAND FREE ENERGY PREDICTED BY IDOCK:   -2.87 KCAL/MOL
REMARK 924 INTRA-LIGAND FREE ENERGY PREDICTED BY IDOCK:   -0.08 KCAL/MOL
REMARK 927      BINDING AFFINITY PREDICTED BY RF-SCORE:    0.00 PKD
ROOT
HETATM    1 BR   UNL     1     -12.683  15.106  70.552  1.00  0.00    -0.404 Br 
HETATM    2  C   UNL     1     -11.036  14.384  69.790  1.00  0.00    -0.112 C  
HETATM    3  C   UNL     1     -11.295  13.268  68.772  1.00  0.00    -0.290 C  
HETATM    4 BR   UNL     1      -9.488  12.626  68.191  1.00  0.00    -0.209 Br 
HETATM    5  C   UNL     1     -11.934  13.871  67.531  1.00  0.00    -0.386 C  
HETATM    6  C   UNL     1     -12.088  12.047  69.271  1.00  0.00    -0.249 C  
HETATM    7  N   UNL     1     -12.464  14.371  66.502  1.00  0.00    -0.490 NA 
HETATM    8  H2  UNL     1     -12.035  13.966  67.335  1.00  0.00     0.000 HD 
HETATM    9  H1  UNL     1     -12.893  14.776  65.670  1.00  0.00     0.000 HD 
ENDROOT
BRANCH   6  10
HETATM   10  C   UNL     1     -11.562  11.417  70.569  1.00  0.00    -0.168 C  
HETATM   11  C   UNL     1     -11.225  10.003  70.363  1.00  0.00    -0.323 C  
HETATM   12  N   UNL     1     -10.957   8.887  70.199  1.00  0.00    -0.238 NA 
ENDBRANCH   6  10
TORSDOF 1
ENDMDL
MODEL       97
REMARK 921   NORMALIZED FREE ENERGY PREDICTED BY IDOCK:   -2.67 KCAL/MOL
REMARK 922        TOTAL FREE ENERGY PREDICTED BY IDOCK:   -2.94 KCAL/MOL
REMARK 923 INTER-LIGAND FREE ENERGY PREDICTED BY IDOCK:   -2.83 KCAL/MOL
REMARK 924 INTRA-LIGAND FREE ENERGY PREDICTED BY IDOCK:   -0.12 KCAL/MOL
REMARK 927      BINDING AFFINITY PREDICTED BY RF-SCORE:    0.00 PKD
ROOT
HETATM    1 BR   UNL     1      -9.914  18.156  68.883  1.00  0.00    -0.295 Br 
HETATM    2  C   UNL     1      -8.460  19.329  68.312  1.00  0.00    -0.331 C  
HETATM    3  C   UNL     1      -8.209  19.268  66.802  1.00  0.00    -0.285 C  
HETATM    4 BR   UNL     1      -6.642  20.468  66.457  1.00  0.00    -0.313 Br 
HETATM    5  C   UNL     1      -9.383  19.909  66.080  1.00  0.00    -0.358 C  
HETATM    6  C   UNL     1      -7.879  17.885  66.211  1.00  0.00    -0.296 C  
HETATM    7  N   UNL     1     -10.357  20.441  65.482  1.00  0.00    -0.365 NA 
HETATM    8  H2  UNL     1      -9.569  20.011  65.966  1.00  0.00     0.000 HD 
HETATM    9  H1  UNL     1     -11.145  20.872  64.998  1.00  0.00     0.000 HD 
ENDROOT
BRANCH   6  10
HETATM   10  C   UNL     1      -6.755  17.124  66.928  1.00  0.00    -0.238 C  
HETATM   11  C   UNL     1      -7.229  15.817  67.402  1.00  0.00    -0.202 C  
HETATM   12  N   UNL     1      -7.604  14.785  67.772  1.00  0.00    -0.143 NA 
ENDBRANCH   6  10
TORSDOF 1
ENDMDL
MODEL       98
REMARK 921   NORMALIZED FREE ENERGY PREDICTED BY IDOCK:   -2.67 KCAL/MOL
REMARK 922        TOTAL FREE ENERGY PREDICTED BY IDOCK:   -2.94 KCAL/MOL
REMARK 923 INTER-LIGAND FREE ENERGY PREDICTED BY IDOCK:   -2.83 KCAL/MOL
REMARK 924 INTRA-LIGAND FREE ENERGY PREDICTED BY IDOCK:   -0.11 KCAL/MOL
REMARK 927      BINDING AFFINITY PREDICTED BY RF-SCORE:    0.00 PKD
ROOT
HETATM    1 BR   UNL     1     -11.083   6.276  69.692  1.00  0.00    -0.503 Br 
HETATM    2  C   UNL     1     -10.327   7.841  68.799  1.00  0.00    -0.204 C  
HETATM    3  C   UNL     1      -9.400   8.652  69.711  1.00  0.00    -0.165 C  
HETATM    4 BR   UNL     1      -8.814  10.233  68.630  1.00  0.00    -0.145 Br 
HETATM    5  C   UNL     1      -8.138   7.845  69.973  1.00  0.00    -0.117 C  
HETATM    6  C   UNL     1     -10.008   9.179  71.023  1.00  0.00    -0.367 C  
HETATM    7  N   UNL     1      -7.092   7.176  70.191  1.00  0.00    -0.065 NA 
HETATM    8  H2  UNL     1      -7.938   7.717  70.015  1.00  0.00     0.000 HD 
HETATM    9  H1  UNL     1      -6.245   6.635  70.367  1.00  0.00     0.000 HD 
ENDROOT
BRANCH   6  10
HETATM   10  C   UNL     1     -11.332   9.941  70.864  1.00  0.00    -0.446 C  
HETATM   11  C   UNL     1     -12.350   9.413  71.782  1.00  0.00    -0.394 C  
HETATM   12  N   UNL     1     -13.151   8.998  72.509  1.00  0.00    -0.427 NA 
ENDBRANCH   6  10
TORSDOF 1
ENDMDL
MODEL       99
REMARK 921   NORMALIZED FREE ENERGY PREDICTED BY IDOCK:   -2.65 KCAL/MOL
REMARK 922        TOTAL FREE ENERGY PREDICTED BY IDOCK:   -2.92 KCAL/MOL
REMARK 923 INTER-LIGAND FREE ENERGY PREDICTED BY IDOCK:   -2.80 KCAL/MOL
REMARK 924 INTRA-LIGAND FREE ENERGY PREDICTED BY IDOCK:   -0.12 KCAL/MOL
REMARK 927      BINDING AFFINITY PREDICTED BY RF-SCORE:    0.00 PKD
ROOT
HETATM    1 BR   UNL     1      -8.852   9.138  68.743  1.00  0.00    -0.133 Br 
HETATM    2  C   UNL     1     -10.372   9.245  69.966  1.00  0.00    -0.217 C  
HETATM    3  C   UNL     1     -10.345   8.153  71.040  1.00  0.00    -0.195 C  
HETATM    4 BR   UNL     1     -12.017   8.400  72.114  1.00  0.00    -0.460 Br 
HETATM    5  C   UNL     1      -9.197   8.430  71.997  1.00  0.00    -0.234 C  
HETATM    6  C   UNL     1     -10.317   6.695  70.544  1.00  0.00    -0.231 C  
HETATM    7  N   UNL     1      -8.246   8.661  72.791  1.00  0.00    -0.409 NA 
HETATM    8  H2  UNL     1      -9.016   8.475  72.149  1.00  0.00     0.000 HD 
HETATM    9  H1  UNL     1      -7.476   8.848  73.434  1.00  0.00     0.000 HD 
ENDROOT
BRANCH   6  10
HETATM   10  C   UNL     1     -11.394   6.342  69.508  1.00  0.00    -0.460 C  
HETATM   11  C   UNL     1     -10.782   5.887  68.253  1.00  0.00    -0.243 C  
HETATM   12  N   UNL     1     -10.297   5.526  67.264  1.00  0.00    -0.221 NA 
ENDBRANCH   6  10
TORSDOF 1
ENDMDL
MODEL      100
REMARK 921   NORMALIZED FREE ENERGY PREDICTED BY IDOCK:   -2.64 KCAL/MOL
REMARK 922        TOTAL FREE ENERGY PREDICTED BY IDOCK:   -2.91 KCAL/MOL
REMARK 923 INTER-LIGAND FREE ENERGY PREDICTED BY IDOCK:   -2.83 KCAL/MOL
REMARK 924 INTRA-LIGAND FREE ENERGY PREDICTED BY IDOCK:   -0.08 KCAL/MOL
REMARK 927      BINDING AFFINITY PREDICTED BY RF-SCORE:    0.00 PKD
ROOT
HETATM    1 BR   UNL     1      -7.912   8.040  72.773  1.00  0.00    -0.211 Br 
HETATM    2  C   UNL     1      -8.805   7.489  71.124  1.00  0.00    -0.141 C  
HETATM    3  C   UNL     1      -9.753   8.561  70.578  1.00  0.00    -0.177 C  
HETATM    4 BR   UNL     1     -10.610   7.759  68.955  1.00  0.00    -0.133 Br 
HETATM    5  C   UNL     1      -8.930   9.734  70.070  1.00  0.00    -0.222 C  
HETATM    6  C   UNL     1     -10.877   9.034  71.517  1.00  0.00    -0.416 C  
HETATM    7  N   UNL     1      -8.248  10.707  69.648  1.00  0.00    -0.382 NA 
HETATM    8  H2  UNL     1      -8.800   9.920  69.989  1.00  0.00     0.000 HD 
HETATM    9  H1  UNL     1      -7.696  11.494  69.307  1.00  0.00     0.000 HD 
ENDROOT
BRANCH   6  10
HETATM   10  C   UNL     1     -11.714   7.910  72.145  1.00  0.00    -0.385 C  
HETATM   11  C   UNL     1     -13.148   8.145  71.931  1.00  0.00    -0.327 C  
HETATM   12  N   UNL     1     -14.279   8.330  71.759  1.00  0.00    -0.440 NA 
ENDBRANCH   6  10
TORSDOF 1
ENDMDL
MODEL      101
REMARK 921   NORMALIZED FREE ENERGY PREDICTED BY IDOCK:   -2.63 KCAL/MOL
REMARK 922        TOTAL FREE ENERGY PREDICTED BY IDOCK:   -2.90 KCAL/MOL
REMARK 923 INTER-LIGAND FREE ENERGY PREDICTED BY IDOCK:   -2.84 KCAL/MOL
REMARK 924 INTRA-LIGAND FREE ENERGY PREDICTED BY IDOCK:   -0.06 KCAL/MOL
REMARK 927      BINDING AFFINITY PREDICTED BY RF-SCORE:    0.00 PKD
ROOT
HETATM    1 BR   UNL     1      -7.294  17.282  66.253  1.00  0.00    -0.321 Br 
HETATM    2  C   UNL     1      -6.064  16.814  67.698  1.00  0.00    -0.146 C  
HETATM    3  C   UNL     1      -6.696  16.967  69.085  1.00  0.00    -0.241 C  
HETATM    4 BR   UNL     1      -5.250  16.523  70.398  1.00  0.00    -0.213 Br 
HETATM    5  C   UNL     1      -7.757  15.893  69.264  1.00  0.00    -0.222 C  
HETATM    6  C   UNL     1      -7.246  18.359  69.446  1.00  0.00    -0.011 C  
HETATM    7  N   UNL     1      -8.637  15.002  69.413  1.00  0.00    -0.388 NA 
HETATM    8  H2  UNL     1      -7.925  15.723  69.293  1.00  0.00     0.000 HD 
HETATM    9  H1  UNL     1      -9.348  14.281  69.533  1.00  0.00     0.000 HD 
ENDROOT
BRANCH   6  10
HETATM   10  C   UNL     1      -6.268  19.521  69.219  1.00  0.00    -0.328 C  
HETATM   11  C   UNL     1      -5.942  20.183  70.489  1.00  0.00    -0.347 C  
HETATM   12  N   UNL     1      -5.683  20.703  71.492  1.00  0.00    -0.617 NA 
ENDBRANCH   6  10
TORSDOF 1
ENDMDL
MODEL      102
REMARK 921   NORMALIZED FREE ENERGY PREDICTED BY IDOCK:   -2.61 KCAL/MOL
REMARK 922        TOTAL FREE ENERGY PREDICTED BY IDOCK:   -2.88 KCAL/MOL
REMARK 923 INTER-LIGAND FREE ENERGY PREDICTED BY IDOCK:   -2.89 KCAL/MOL
REMARK 924 INTRA-LIGAND FREE ENERGY PREDICTED BY IDOCK:    0.01 KCAL/MOL
REMARK 927      BINDING AFFINITY PREDICTED BY RF-SCORE:    0.00 PKD
ROOT
HETATM    1 BR   UNL     1      -8.322  16.418  66.405  1.00  0.00    -0.366 Br 
HETATM    2  C   UNL     1      -8.374  18.360  66.612  1.00  0.00    -0.265 C  
HETATM    3  C   UNL     1      -6.976  18.984  66.690  1.00  0.00    -0.207 C  
HETATM    4 BR   UNL     1      -7.267  20.944  66.983  1.00  0.00    -0.297 Br 
HETATM    5  C   UNL     1      -6.308  18.867  65.330  1.00  0.00    -0.279 C  
HETATM    6  C   UNL     1      -6.053  18.474  67.811  1.00  0.00    -0.189 C  
HETATM    7  N   UNL     1      -5.753  18.770  64.202  1.00  0.00    -0.309 NA 
HETATM    8  H2  UNL     1      -6.202  18.848  65.114  1.00  0.00     0.000 HD 
HETATM    9  H1  UNL     1      -5.305  18.692  63.289  1.00  0.00     0.000 HD 
ENDROOT
BRANCH   6  10
HETATM   10  C   UNL     1      -6.673  18.479  69.216  1.00  0.00    -0.252 C  
HETATM   11  C   UNL     1      -6.108  19.561  70.032  1.00  0.00    -0.280 C  
HETATM   12  N   UNL     1      -5.663  20.417  70.674  1.00  0.00    -0.449 NA 
ENDBRANCH   6  10
TORSDOF 1
ENDMDL
MODEL      103
REMARK 921   NORMALIZED FREE ENERGY PREDICTED BY IDOCK:   -2.60 KCAL/MOL
REMARK 922        TOTAL FREE ENERGY PREDICTED BY IDOCK:   -2.87 KCAL/MOL
REMARK 923 INTER-LIGAND FREE ENERGY PREDICTED BY IDOCK:   -2.83 KCAL/MOL
REMARK 924 INTRA-LIGAND FREE ENERGY PREDICTED BY IDOCK:   -0.05 KCAL/MOL
REMARK 927      BINDING AFFINITY PREDICTED BY RF-SCORE:    0.00 PKD
ROOT
HETATM    1 BR   UNL     1     -10.927   8.325  72.123  1.00  0.00    -0.421 Br 
HETATM    2  C   UNL     1     -11.036   8.064  70.190  1.00  0.00    -0.226 C  
HETATM    3  C   UNL     1     -10.165   9.055  69.409  1.00  0.00    -0.204 C  
HETATM    4 BR   UNL     1     -10.494   8.665  67.472  1.00  0.00    -0.307 Br 
HETATM    5  C   UNL     1      -8.702   8.723  69.652  1.00  0.00    -0.136 C  
HETATM    6  C   UNL     1     -10.444  10.551  69.640  1.00  0.00    -0.257 C  
HETATM    7  N   UNL     1      -7.488   8.447  69.853  1.00  0.00    -0.063 NA 
HETATM    8  H2  UNL     1      -8.470   8.670  69.691  1.00  0.00     0.000 HD 
HETATM    9  H1  UNL     1      -6.506   8.224  70.016  1.00  0.00     0.000 HD 
ENDROOT
BRANCH   6  10
HETATM   10  C   UNL     1     -11.915  10.968  69.495  1.00  0.00    -0.413 C  
HETATM   11  C   UNL     1     -12.485  11.329  70.799  1.00  0.00    -0.376 C  
HETATM   12  N   UNL     1     -12.933  11.617  71.829  1.00  0.00    -0.424 NA 
ENDBRANCH   6  10
TORSDOF 1
ENDMDL
MODEL      104
REMARK 921   NORMALIZED FREE ENERGY PREDICTED BY IDOCK:   -2.59 KCAL/MOL
REMARK 922        TOTAL FREE ENERGY PREDICTED BY IDOCK:   -2.86 KCAL/MOL
REMARK 923 INTER-LIGAND FREE ENERGY PREDICTED BY IDOCK:   -2.87 KCAL/MOL
REMARK 924 INTRA-LIGAND FREE ENERGY PREDICTED BY IDOCK:    0.01 KCAL/MOL
REMARK 927      BINDING AFFINITY PREDICTED BY RF-SCORE:    0.00 PKD
ROOT
HETATM    1 BR   UNL     1      -9.014   6.437  68.877  1.00  0.00    -0.122 Br 
HETATM    2  C   UNL     1     -10.113   8.045  68.723  1.00  0.00    -0.195 C  
HETATM    3  C   UNL     1     -10.236   8.807  70.047  1.00  0.00    -0.198 C  
HETATM    4 BR   UNL     1     -11.458  10.351  69.679  1.00  0.00    -0.329 Br 
HETATM    5  C   UNL     1      -8.889   9.423  70.388  1.00  0.00    -0.249 C  
HETATM    6  C   UNL     1     -10.812   8.027  71.242  1.00  0.00    -0.267 C  
HETATM    7  N   UNL     1      -7.771   9.934  70.671  1.00  0.00    -0.396 NA 
HETATM    8  H2  UNL     1      -8.675   9.521  70.442  1.00  0.00     0.000 HD 
HETATM    9  H1  UNL     1      -6.868  10.347  70.900  1.00  0.00     0.000 HD 
ENDROOT
BRANCH   6  10
HETATM   10  C   UNL     1     -12.137   7.301  70.966  1.00  0.00    -0.361 C  
HETATM   11  C   UNL     1     -13.256   7.991  71.621  1.00  0.00    -0.330 C  
HETATM   12  N   UNL     1     -14.138   8.538  72.136  1.00  0.00    -0.424 NA 
ENDBRANCH   6  10
TORSDOF 1
ENDMDL
MODEL      105
REMARK 921   NORMALIZED FREE ENERGY PREDICTED BY IDOCK:   -2.59 KCAL/MOL
REMARK 922        TOTAL FREE ENERGY PREDICTED BY IDOCK:   -2.86 KCAL/MOL
REMARK 923 INTER-LIGAND FREE ENERGY PREDICTED BY IDOCK:   -2.79 KCAL/MOL
REMARK 924 INTRA-LIGAND FREE ENERGY PREDICTED BY IDOCK:   -0.07 KCAL/MOL
REMARK 927      BINDING AFFINITY PREDICTED BY RF-SCORE:    0.00 PKD
ROOT
HETATM    1 BR   UNL     1      -9.450   8.308  66.642  1.00  0.00    -0.293 Br 
HETATM    2  C   UNL     1     -10.661   9.268  67.836  1.00  0.00    -0.231 C  
HETATM    3  C   UNL     1     -10.168   9.289  69.287  1.00  0.00    -0.206 C  
HETATM    4 BR   UNL     1     -11.587  10.239  70.334  1.00  0.00    -0.439 Br 
HETATM    5  C   UNL     1      -8.933  10.171  69.375  1.00  0.00    -0.191 C  
HETATM    6  C   UNL     1      -9.927   7.923  69.955  1.00  0.00    -0.191 C  
HETATM    7  N   UNL     1      -7.909  10.902  69.449  1.00  0.00    -0.336 NA 
HETATM    8  H2  UNL     1      -8.737  10.311  69.390  1.00  0.00     0.000 HD 
HETATM    9  H1  UNL     1      -7.080  11.494  69.509  1.00  0.00     0.000 HD 
ENDROOT
BRANCH   6  10
HETATM   10  C   UNL     1     -11.095   6.932  69.845  1.00  0.00    -0.333 C  
HETATM   11  C   UNL     1     -11.331   6.260  71.130  1.00  0.00    -0.303 C  
HETATM   12  N   UNL     1     -11.519   5.733  72.145  1.00  0.00    -0.268 NA 
ENDBRANCH   6  10
TORSDOF 1
ENDMDL
MODEL      106
REMARK 921   NORMALIZED FREE ENERGY PREDICTED BY IDOCK:   -2.58 KCAL/MOL
REMARK 922        TOTAL FREE ENERGY PREDICTED BY IDOCK:   -2.85 KCAL/MOL
REMARK 923 INTER-LIGAND FREE ENERGY PREDICTED BY IDOCK:   -2.77 KCAL/MOL
REMARK 924 INTRA-LIGAND FREE ENERGY PREDICTED BY IDOCK:   -0.08 KCAL/MOL
REMARK 927      BINDING AFFINITY PREDICTED BY RF-SCORE:    0.00 PKD
ROOT
HETATM    1 BR   UNL     1      -7.298   7.669  65.781  1.00  0.00    -0.072 Br 
HETATM    2  C   UNL     1      -8.232   8.534  67.264  1.00  0.00    -0.108 C  
HETATM    3  C   UNL     1      -9.702   8.824  66.948  1.00  0.00    -0.210 C  
HETATM    4 BR   UNL     1     -10.431   9.775  68.553  1.00  0.00    -0.251 Br 
HETATM    5  C   UNL     1     -10.460   7.508  66.873  1.00  0.00    -0.315 C  
HETATM    6  C   UNL     1      -9.985   9.701  65.715  1.00  0.00    -0.342 C  
HETATM    7  N   UNL     1     -11.088   6.417  66.810  1.00  0.00    -0.720 NA 
HETATM    8  H2  UNL     1     -10.580   7.299  66.861  1.00  0.00     0.000 HD 
HETATM    9  H1  UNL     1     -11.596   5.534  66.760  1.00  0.00     0.000 HD 
ENDROOT
BRANCH   6  10
HETATM   10  C   UNL     1      -9.200  11.020  65.663  1.00  0.00    -0.231 C  
HETATM   11  C   UNL     1     -10.112  12.167  65.567  1.00  0.00    -0.248 C  
HETATM   12  N   UNL     1     -10.834  13.071  65.494  1.00  0.00    -0.275 NA 
ENDBRANCH   6  10
TORSDOF 1
ENDMDL
MODEL      107
REMARK 921   NORMALIZED FREE ENERGY PREDICTED BY IDOCK:   -2.58 KCAL/MOL
REMARK 922        TOTAL FREE ENERGY PREDICTED BY IDOCK:   -2.84 KCAL/MOL
REMARK 923 INTER-LIGAND FREE ENERGY PREDICTED BY IDOCK:   -2.81 KCAL/MOL
REMARK 924 INTRA-LIGAND FREE ENERGY PREDICTED BY IDOCK:   -0.04 KCAL/MOL
REMARK 927      BINDING AFFINITY PREDICTED BY RF-SCORE:    0.00 PKD
ROOT
HETATM    1 BR   UNL     1      -8.505   3.990  68.305  1.00  0.00    -0.111 Br 
HETATM    2  C   UNL     1      -9.856   4.587  69.584  1.00  0.00    -0.218 C  
HETATM    3  C   UNL     1     -10.106   6.097  69.519  1.00  0.00    -0.185 C  
HETATM    4 BR   UNL     1     -11.445   6.493  70.954  1.00  0.00    -0.419 Br 
HETATM    5  C   UNL     1     -10.801   6.425  68.208  1.00  0.00    -0.309 C  
HETATM    6  C   UNL     1      -8.888   7.011  69.749  1.00  0.00    -0.142 C  
HETATM    7  N   UNL     1     -11.377   6.698  67.120  1.00  0.00    -0.779 NA 
HETATM    8  H2  UNL     1     -10.911   6.477  68.000  1.00  0.00     0.000 HD 
HETATM    9  H1  UNL     1     -11.844   6.918  66.240  1.00  0.00     0.000 HD 
ENDROOT
BRANCH   6  10
HETATM   10  C   UNL     1      -8.074   6.700  71.013  1.00  0.00    -0.119 C  
HETATM   11  C   UNL     1      -8.195   7.788  71.992  1.00  0.00    -0.111 C  
HETATM   12  N   UNL     1      -8.295   8.646  72.765  1.00  0.00    -0.413 NA 
ENDBRANCH   6  10
TORSDOF 1
ENDMDL
MODEL      108
REMARK 921   NORMALIZED FREE ENERGY PREDICTED BY IDOCK:   -2.57 KCAL/MOL
REMARK 922        TOTAL FREE ENERGY PREDICTED BY IDOCK:   -2.84 KCAL/MOL
REMARK 923 INTER-LIGAND FREE ENERGY PREDICTED BY IDOCK:   -2.78 KCAL/MOL
REMARK 924 INTRA-LIGAND FREE ENERGY PREDICTED BY IDOCK:   -0.06 KCAL/MOL
REMARK 927      BINDING AFFINITY PREDICTED BY RF-SCORE:    0.00 PKD
ROOT
HETATM    1 BR   UNL     1     -11.854  15.252  70.245  1.00  0.00    -0.390 Br 
HETATM    2  C   UNL     1     -11.652  15.785  68.377  1.00  0.00    -0.338 C  
HETATM    3  C   UNL     1     -10.256  15.481  67.823  1.00  0.00    -0.243 C  
HETATM    4 BR   UNL     1     -10.249  16.178  65.945  1.00  0.00    -0.396 Br 
HETATM    5  C   UNL     1     -10.091  13.975  67.701  1.00  0.00    -0.241 C  
HETATM    6  C   UNL     1      -9.065  16.115  68.563  1.00  0.00    -0.208 C  
HETATM    7  N   UNL     1      -9.954  12.725  67.601  1.00  0.00    -0.213 NA 
HETATM    8  H2  UNL     1     -10.065  13.736  67.682  1.00  0.00     0.000 HD 
HETATM    9  H1  UNL     1      -9.844  11.715  67.519  1.00  0.00     0.000 HD 
ENDROOT
BRANCH   6  10
HETATM   10  C   UNL     1      -9.181  17.627  68.804  1.00  0.00    -0.215 C  
HETATM   11  C   UNL     1      -7.858  18.264  68.771  1.00  0.00    -0.260 C  
HETATM   12  N   UNL     1      -6.814  18.765  68.741  1.00  0.00    -0.276 NA 
ENDBRANCH   6  10
TORSDOF 1
ENDMDL
MODEL      109
REMARK 921   NORMALIZED FREE ENERGY PREDICTED BY IDOCK:   -2.57 KCAL/MOL
REMARK 922        TOTAL FREE ENERGY PREDICTED BY IDOCK:   -2.84 KCAL/MOL
REMARK 923 INTER-LIGAND FREE ENERGY PREDICTED BY IDOCK:   -2.77 KCAL/MOL
REMARK 924 INTRA-LIGAND FREE ENERGY PREDICTED BY IDOCK:   -0.07 KCAL/MOL
REMARK 927      BINDING AFFINITY PREDICTED BY RF-SCORE:    0.00 PKD
ROOT
HETATM    1 BR   UNL     1     -11.101  15.639  64.740  1.00  0.00    -0.346 Br 
HETATM    2  C   UNL     1     -10.722  15.990  66.624  1.00  0.00    -0.247 C  
HETATM    3  C   UNL     1      -9.252  15.753  66.986  1.00  0.00    -0.216 C  
HETATM    4 BR   UNL     1      -9.112  16.087  68.956  1.00  0.00    -0.248 Br 
HETATM    5  C   UNL     1      -8.403  16.828  66.327  1.00  0.00    -0.318 C  
HETATM    6  C   UNL     1      -8.688  14.348  66.707  1.00  0.00    -0.187 C  
HETATM    7  N   UNL     1      -7.698  17.720  65.781  1.00  0.00    -0.549 NA 
HETATM    8  H2  UNL     1      -8.268  16.999  66.223  1.00  0.00     0.000 HD 
HETATM    9  H1  UNL     1      -7.128  18.441  65.339  1.00  0.00     0.000 HD 
ENDROOT
BRANCH   6  10
HETATM   10  C   UNL     1      -9.527  13.190  67.267  1.00  0.00    -0.225 C  
HETATM   11  C   UNL     1      -9.423  12.006  66.404  1.00  0.00    -0.231 C  
HETATM   12  N   UNL     1      -9.338  11.072  65.724  1.00  0.00    -0.204 NA 
ENDBRANCH   6  10
TORSDOF 1
ENDMDL
MODEL      110
REMARK 921   NORMALIZED FREE ENERGY PREDICTED BY IDOCK:   -2.55 KCAL/MOL
REMARK 922        TOTAL FREE ENERGY PREDICTED BY IDOCK:   -2.82 KCAL/MOL
REMARK 923 INTER-LIGAND FREE ENERGY PREDICTED BY IDOCK:   -2.75 KCAL/MOL
REMARK 924 INTRA-LIGAND FREE ENERGY PREDICTED BY IDOCK:   -0.07 KCAL/MOL
REMARK 927      BINDING AFFINITY PREDICTED BY RF-SCORE:    0.00 PKD
ROOT
HETATM    1 BR   UNL     1      -6.595  14.843  69.697  1.00  0.00    -0.171 Br 
HETATM    2  C   UNL     1      -8.364  15.662  69.568  1.00  0.00    -0.176 C  
HETATM    3  C   UNL     1      -8.655  16.224  68.172  1.00  0.00    -0.183 C  
HETATM    4 BR   UNL     1     -10.463  17.080  68.292  1.00  0.00    -0.380 Br 
HETATM    5  C   UNL     1      -8.813  15.068  67.198  1.00  0.00    -0.213 C  
HETATM    6  C   UNL     1      -7.672  17.278  67.632  1.00  0.00    -0.194 C  
HETATM    7  N   UNL     1      -8.944  14.109  66.390  1.00  0.00    -0.482 NA 
HETATM    8  H2  UNL     1      -8.838  14.885  67.044  1.00  0.00     0.000 HD 
HETATM    9  H1  UNL     1      -9.050  13.333  65.737  1.00  0.00     0.000 HD 
ENDROOT
BRANCH   6  10
HETATM   10  C   UNL     1      -7.387  18.448  68.585  1.00  0.00    -0.311 C  
HETATM   11  C   UNL     1      -7.442  19.729  67.869  1.00  0.00    -0.287 C  
HETATM   12  N   UNL     1      -7.488  20.740  67.303  1.00  0.00    -0.351 NA 
ENDBRANCH   6  10
TORSDOF 1
ENDMDL
MODEL      111
REMARK 921   NORMALIZED FREE ENERGY PREDICTED BY IDOCK:   -2.55 KCAL/MOL
REMARK 922        TOTAL FREE ENERGY PREDICTED BY IDOCK:   -2.81 KCAL/MOL
REMARK 923 INTER-LIGAND FREE ENERGY PREDICTED BY IDOCK:   -2.79 KCAL/MOL
REMARK 924 INTRA-LIGAND FREE ENERGY PREDICTED BY IDOCK:   -0.02 KCAL/MOL
REMARK 927      BINDING AFFINITY PREDICTED BY RF-SCORE:    0.00 PKD
ROOT
HETATM    1 BR   UNL     1      -8.743  10.572  68.945  1.00  0.00    -0.159 Br 
HETATM    2  C   UNL     1      -9.185  12.313  68.177  1.00  0.00    -0.197 C  
HETATM    3  C   UNL     1     -10.684  12.480  67.912  1.00  0.00    -0.217 C  
HETATM    4 BR   UNL     1     -10.893  14.280  67.058  1.00  0.00    -0.304 Br 
HETATM    5  C   UNL     1     -11.414  12.570  69.242  1.00  0.00    -0.293 C  
HETATM    6  C   UNL     1     -11.342  11.442  66.984  1.00  0.00    -0.309 C  
HETATM    7  N   UNL     1     -12.019  12.645  70.346  1.00  0.00    -0.522 NA 
HETATM    8  H2  UNL     1     -11.529  12.585  69.453  1.00  0.00     0.000 HD 
HETATM    9  H1  UNL     1     -12.508  12.706  71.239  1.00  0.00     0.000 HD 
ENDROOT
BRANCH   6  10
HETATM   10  C   UNL     1     -10.626  11.223  65.644  1.00  0.00    -0.303 C  
HETATM   11  C   UNL     1      -9.955   9.916  65.618  1.00  0.00    -0.283 C  
HETATM   12  N   UNL     1      -9.430   8.884  65.598  1.00  0.00    -0.206 NA 
ENDBRANCH   6  10
TORSDOF 1
ENDMDL
MODEL      112
REMARK 921   NORMALIZED FREE ENERGY PREDICTED BY IDOCK:   -2.54 KCAL/MOL
REMARK 922        TOTAL FREE ENERGY PREDICTED BY IDOCK:   -2.81 KCAL/MOL
REMARK 923 INTER-LIGAND FREE ENERGY PREDICTED BY IDOCK:   -2.75 KCAL/MOL
REMARK 924 INTRA-LIGAND FREE ENERGY PREDICTED BY IDOCK:   -0.06 KCAL/MOL
REMARK 927      BINDING AFFINITY PREDICTED BY RF-SCORE:    0.00 PKD
ROOT
HETATM    1 BR   UNL     1     -10.410  10.334  68.005  1.00  0.00    -0.234 Br 
HETATM    2  C   UNL     1     -11.539  11.779  67.330  1.00  0.00    -0.269 C  
HETATM    3  C   UNL     1     -10.855  12.599  66.231  1.00  0.00    -0.273 C  
HETATM    4 BR   UNL     1     -12.144  14.057  65.753  1.00  0.00    -0.474 Br 
HETATM    5  C   UNL     1     -10.727  11.741  64.983  1.00  0.00    -0.292 C  
HETATM    6  C   UNL     1      -9.513  13.260  66.594  1.00  0.00    -0.262 C  
HETATM    7  N   UNL     1     -10.620  11.029  63.947  1.00  0.00    -0.485 NA 
HETATM    8  H2  UNL     1     -10.706  11.605  64.785  1.00  0.00     0.000 HD 
HETATM    9  H1  UNL     1     -10.534  10.453  63.110  1.00  0.00     0.000 HD 
ENDROOT
BRANCH   6  10
HETATM   10  C   UNL     1      -9.526  14.085  67.889  1.00  0.00    -0.210 C  
HETATM   11  C   UNL     1      -8.198  14.090  68.517  1.00  0.00    -0.136 C  
HETATM   12  N   UNL     1      -7.149  14.095  69.011  1.00  0.00    -0.111 NA 
ENDBRANCH   6  10
TORSDOF 1
ENDMDL
MODEL      113
REMARK 921   NORMALIZED FREE ENERGY PREDICTED BY IDOCK:   -2.54 KCAL/MOL
REMARK 922        TOTAL FREE ENERGY PREDICTED BY IDOCK:   -2.81 KCAL/MOL
REMARK 923 INTER-LIGAND FREE ENERGY PREDICTED BY IDOCK:   -2.69 KCAL/MOL
REMARK 924 INTRA-LIGAND FREE ENERGY PREDICTED BY IDOCK:   -0.12 KCAL/MOL
REMARK 927      BINDING AFFINITY PREDICTED BY RF-SCORE:    0.00 PKD
ROOT
HETATM    1 BR   UNL     1      -9.415   9.571  69.339  1.00  0.00    -0.198 Br 
HETATM    2  C   UNL     1      -8.546   8.385  68.052  1.00  0.00    -0.135 C  
HETATM    3  C   UNL     1      -9.495   7.920  66.942  1.00  0.00    -0.191 C  
HETATM    4 BR   UNL     1      -8.429   6.664  65.802  1.00  0.00    -0.142 Br 
HETATM    5  C   UNL     1      -9.827   9.103  66.049  1.00  0.00    -0.272 C  
HETATM    6  C   UNL     1     -10.770   7.181  67.387  1.00  0.00    -0.368 C  
HETATM    7  N   UNL     1     -10.103  10.085  65.307  1.00  0.00    -0.297 NA 
HETATM    8  H2  UNL     1      -9.880   9.291  65.907  1.00  0.00     0.000 HD 
HETATM    9  H1  UNL     1     -10.326  10.880  64.708  1.00  0.00     0.000 HD 
ENDROOT
BRANCH   6  10
HETATM   10  C   UNL     1     -10.539   6.015  68.360  1.00  0.00    -0.322 C  
HETATM   11  C   UNL     1     -11.268   6.232  69.616  1.00  0.00    -0.437 C  
HETATM   12  N   UNL     1     -11.847   6.402  70.606  1.00  0.00    -0.327 NA 
ENDBRANCH   6  10
TORSDOF 1
ENDMDL
MODEL      114
REMARK 921   NORMALIZED FREE ENERGY PREDICTED BY IDOCK:   -2.54 KCAL/MOL
REMARK 922        TOTAL FREE ENERGY PREDICTED BY IDOCK:   -2.80 KCAL/MOL
REMARK 923 INTER-LIGAND FREE ENERGY PREDICTED BY IDOCK:   -2.75 KCAL/MOL
REMARK 924 INTRA-LIGAND FREE ENERGY PREDICTED BY IDOCK:   -0.05 KCAL/MOL
REMARK 927      BINDING AFFINITY PREDICTED BY RF-SCORE:    0.00 PKD
ROOT
HETATM    1 BR   UNL     1     -11.367   8.947  71.040  1.00  0.00    -0.375 Br 
HETATM    2  C   UNL     1     -11.807   7.271  71.945  1.00  0.00    -0.297 C  
HETATM    3  C   UNL     1     -10.568   6.429  72.266  1.00  0.00    -0.214 C  
HETATM    4 BR   UNL     1     -11.252   4.743  73.102  1.00  0.00    -0.376 Br 
HETATM    5  C   UNL     1      -9.764   7.128  73.350  1.00  0.00    -0.232 C  
HETATM    6  C   UNL     1      -9.673   6.034  71.077  1.00  0.00    -0.208 C  
HETATM    7  N   UNL     1      -9.098   7.708  74.251  1.00  0.00    -0.433 NA 
HETATM    8  H2  UNL     1      -9.637   7.239  73.522  1.00  0.00     0.000 HD 
HETATM    9  H1  UNL     1      -8.559   8.177  74.979  1.00  0.00     0.000 HD 
ENDROOT
BRANCH   6  10
HETATM   10  C   UNL     1     -10.413   5.391  69.894  1.00  0.00    -0.378 C  
HETATM   11  C   UNL     1      -9.461   4.860  68.910  1.00  0.00    -0.143 C  
HETATM   12  N   UNL     1      -8.709   4.437  68.136  1.00  0.00    -0.099 NA 
ENDBRANCH   6  10
TORSDOF 1
ENDMDL
MODEL      115
REMARK 921   NORMALIZED FREE ENERGY PREDICTED BY IDOCK:   -2.53 KCAL/MOL
REMARK 922        TOTAL FREE ENERGY PREDICTED BY IDOCK:   -2.80 KCAL/MOL
REMARK 923 INTER-LIGAND FREE ENERGY PREDICTED BY IDOCK:   -2.72 KCAL/MOL
REMARK 924 INTRA-LIGAND FREE ENERGY PREDICTED BY IDOCK:   -0.08 KCAL/MOL
REMARK 927      BINDING AFFINITY PREDICTED BY RF-SCORE:    0.00 PKD
ROOT
HETATM    1 BR   UNL     1      -9.574   4.493  69.930  1.00  0.00    -0.284 Br 
HETATM    2  C   UNL     1      -9.451   6.408  70.295  1.00  0.00    -0.161 C  
HETATM    3  C   UNL     1     -10.009   6.785  71.671  1.00  0.00    -0.172 C  
HETATM    4 BR   UNL     1      -9.860   8.779  71.795  1.00  0.00    -0.387 Br 
HETATM    5  C   UNL     1      -9.085   6.238  72.746  1.00  0.00    -0.131 C  
HETATM    6  C   UNL     1     -11.475   6.407  71.950  1.00  0.00    -0.352 C  
HETATM    7  N   UNL     1      -8.317   5.783  73.637  1.00  0.00    -0.111 NA 
HETATM    8  H2  UNL     1      -8.938   6.151  72.916  1.00  0.00     0.000 HD 
HETATM    9  H1  UNL     1      -7.697   5.416  74.359  1.00  0.00     0.000 HD 
ENDROOT
BRANCH   6  10
HETATM   10  C   UNL     1     -12.476   6.850  70.873  1.00  0.00    -0.314 C  
HETATM   11  C   UNL     1     -13.549   7.661  71.461  1.00  0.00    -0.353 C  
HETATM   12  N   UNL     1     -14.394   8.305  71.926  1.00  0.00    -0.454 NA 
ENDBRANCH   6  10
TORSDOF 1
ENDMDL
MODEL      116
REMARK 921   NORMALIZED FREE ENERGY PREDICTED BY IDOCK:   -2.53 KCAL/MOL
REMARK 922        TOTAL FREE ENERGY PREDICTED BY IDOCK:   -2.79 KCAL/MOL
REMARK 923 INTER-LIGAND FREE ENERGY PREDICTED BY IDOCK:   -2.75 KCAL/MOL
REMARK 924 INTRA-LIGAND FREE ENERGY PREDICTED BY IDOCK:   -0.05 KCAL/MOL
REMARK 927      BINDING AFFINITY PREDICTED BY RF-SCORE:    0.00 PKD
ROOT
HETATM    1 BR   UNL     1      -8.329   8.137  64.686  1.00  0.00    -0.035 Br 
HETATM    2  C   UNL     1      -8.304   7.699  66.590  1.00  0.00    -0.127 C  
HETATM    3  C   UNL     1      -9.709   7.559  67.184  1.00  0.00    -0.173 C  
HETATM    4 BR   UNL     1      -9.446   7.199  69.137  1.00  0.00    -0.147 Br 
HETATM    5  C   UNL     1     -10.360   6.307  66.620  1.00  0.00    -0.170 C  
HETATM    6  C   UNL     1     -10.640   8.779  67.054  1.00  0.00    -0.283 C  
HETATM    7  N   UNL     1     -10.900   5.268  66.152  1.00  0.00    -0.715 NA 
HETATM    8  H2  UNL     1     -10.463   6.108  66.531  1.00  0.00     0.000 HD 
HETATM    9  H1  UNL     1     -11.337   4.427  65.774  1.00  0.00     0.000 HD 
ENDROOT
BRANCH   6  10
HETATM   10  C   UNL     1     -10.036  10.109  67.526  1.00  0.00    -0.231 C  
HETATM   11  C   UNL     1     -11.056  11.166  67.550  1.00  0.00    -0.291 C  
HETATM   12  N   UNL     1     -11.862  11.998  67.572  1.00  0.00    -0.574 NA 
ENDBRANCH   6  10
TORSDOF 1
ENDMDL
MODEL      117
REMARK 921   NORMALIZED FREE ENERGY PREDICTED BY IDOCK:   -2.52 KCAL/MOL
REMARK 922        TOTAL FREE ENERGY PREDICTED BY IDOCK:   -2.78 KCAL/MOL
REMARK 923 INTER-LIGAND FREE ENERGY PREDICTED BY IDOCK:   -2.71 KCAL/MOL
REMARK 924 INTRA-LIGAND FREE ENERGY PREDICTED BY IDOCK:   -0.07 KCAL/MOL
REMARK 927      BINDING AFFINITY PREDICTED BY RF-SCORE:    0.00 PKD
ROOT
HETATM    1 BR   UNL     1      -8.879   8.241  69.954  1.00  0.00    -0.139 Br 
HETATM    2  C   UNL     1      -8.648   9.065  68.197  1.00  0.00    -0.130 C  
HETATM    3  C   UNL     1      -9.904   8.962  67.326  1.00  0.00    -0.199 C  
HETATM    4 BR   UNL     1      -9.419   9.785  65.565  1.00  0.00    -0.345 Br 
HETATM    5  C   UNL     1     -10.985   9.856  67.912  1.00  0.00    -0.223 C  
HETATM    6  C   UNL     1     -10.440   7.546  67.050  1.00  0.00    -0.409 C  
HETATM    7  N   UNL     1     -11.881  10.598  68.398  1.00  0.00    -0.769 NA 
HETATM    8  H2  UNL     1     -11.156   9.998  68.005  1.00  0.00     0.000 HD 
HETATM    9  H1  UNL     1     -12.606  11.198  68.792  1.00  0.00     0.000 HD 
ENDROOT
BRANCH   6  10
HETATM   10  C   UNL     1      -9.397   6.547  66.530  1.00  0.00    -0.188 C  
HETATM   11  C   UNL     1      -9.682   5.192  67.019  1.00  0.00    -0.159 C  
HETATM   12  N   UNL     1      -9.911   4.123  67.404  1.00  0.00    -0.150 NA 
ENDBRANCH   6  10
TORSDOF 1
ENDMDL
MODEL      118
REMARK 921   NORMALIZED FREE ENERGY PREDICTED BY IDOCK:   -2.50 KCAL/MOL
REMARK 922        TOTAL FREE ENERGY PREDICTED BY IDOCK:   -2.77 KCAL/MOL
REMARK 923 INTER-LIGAND FREE ENERGY PREDICTED BY IDOCK:   -2.70 KCAL/MOL
REMARK 924 INTRA-LIGAND FREE ENERGY PREDICTED BY IDOCK:   -0.06 KCAL/MOL
REMARK 927      BINDING AFFINITY PREDICTED BY RF-SCORE:    0.00 PKD
ROOT
HETATM    1 BR   UNL     1     -12.823   9.177  71.728  1.00  0.00    -0.489 Br 
HETATM    2  C   UNL     1     -12.209   7.437  71.088  1.00  0.00    -0.324 C  
HETATM    3  C   UNL     1     -10.719   7.199  71.358  1.00  0.00    -0.225 C  
HETATM    4 BR   UNL     1     -10.294   5.415  70.554  1.00  0.00    -0.338 Br 
HETATM    5  C   UNL     1     -10.510   7.035  72.855  1.00  0.00    -0.254 C  
HETATM    6  C   UNL     1      -9.737   8.226  70.767  1.00  0.00    -0.197 C  
HETATM    7  N   UNL     1     -10.337   6.898  74.096  1.00  0.00    -0.425 NA 
HETATM    8  H2  UNL     1     -10.477   7.008  73.092  1.00  0.00     0.000 HD 
HETATM    9  H1  UNL     1     -10.196   6.787  75.100  1.00  0.00     0.000 HD 
ENDROOT
BRANCH   6  10
HETATM   10  C   UNL     1      -9.925   8.519  69.272  1.00  0.00    -0.195 C  
HETATM   11  C   UNL     1      -8.736   8.122  68.508  1.00  0.00    -0.134 C  
HETATM   12  N   UNL     1      -7.797   7.805  67.906  1.00  0.00    -0.125 NA 
ENDBRANCH   6  10
TORSDOF 1
ENDMDL
MODEL      119
REMARK 921   NORMALIZED FREE ENERGY PREDICTED BY IDOCK:   -2.50 KCAL/MOL
REMARK 922        TOTAL FREE ENERGY PREDICTED BY IDOCK:   -2.76 KCAL/MOL
REMARK 923 INTER-LIGAND FREE ENERGY PREDICTED BY IDOCK:   -2.70 KCAL/MOL
REMARK 924 INTRA-LIGAND FREE ENERGY PREDICTED BY IDOCK:   -0.07 KCAL/MOL
REMARK 927      BINDING AFFINITY PREDICTED BY RF-SCORE:    0.00 PKD
ROOT
HETATM    1 BR   UNL     1     -11.690  14.130  68.755  1.00  0.00    -0.398 Br 
HETATM    2  C   UNL     1     -10.323  12.784  68.383  1.00  0.00    -0.243 C  
HETATM    3  C   UNL     1      -9.443  13.151  67.184  1.00  0.00    -0.239 C  
HETATM    4 BR   UNL     1      -8.185  11.612  66.937  1.00  0.00    -0.161 Br 
HETATM    5  C   UNL     1      -8.570  14.338  67.558  1.00  0.00    -0.196 C  
HETATM    6  C   UNL     1     -10.163  13.388  65.844  1.00  0.00    -0.302 C  
HETATM    7  N   UNL     1      -7.846  15.322  67.868  1.00  0.00    -0.131 NA 
HETATM    8  H2  UNL     1      -8.431  14.526  67.617  1.00  0.00     0.000 HD 
HETATM    9  H1  UNL     1      -7.260  16.119  68.119  1.00  0.00     0.000 HD 
ENDROOT
BRANCH   6  10
HETATM   10  C   UNL     1     -11.131  12.274  65.422  1.00  0.00    -0.353 C  
HETATM   11  C   UNL     1     -10.709  11.669  64.153  1.00  0.00    -0.362 C  
HETATM   12  N   UNL     1     -10.373  11.190  63.152  1.00  0.00    -0.311 NA 
ENDBRANCH   6  10
TORSDOF 1
ENDMDL
MODEL      120
REMARK 921   NORMALIZED FREE ENERGY PREDICTED BY IDOCK:   -2.48 KCAL/MOL
REMARK 922        TOTAL FREE ENERGY PREDICTED BY IDOCK:   -2.74 KCAL/MOL
REMARK 923 INTER-LIGAND FREE ENERGY PREDICTED BY IDOCK:   -2.64 KCAL/MOL
REMARK 924 INTRA-LIGAND FREE ENERGY PREDICTED BY IDOCK:   -0.10 KCAL/MOL
REMARK 927      BINDING AFFINITY PREDICTED BY RF-SCORE:    0.00 PKD
ROOT
HETATM    1 BR   UNL     1      -8.279   8.184  71.673  1.00  0.00    -0.175 Br 
HETATM    2  C   UNL     1      -8.650   8.067  69.758  1.00  0.00    -0.131 C  
HETATM    3  C   UNL     1     -10.122   8.326  69.424  1.00  0.00    -0.198 C  
HETATM    4 BR   UNL     1     -10.287   8.074  67.443  1.00  0.00    -0.366 Br 
HETATM    5  C   UNL     1     -10.435   9.792  69.678  1.00  0.00    -0.242 C  
HETATM    6  C   UNL     1     -11.158   7.410  70.100  1.00  0.00    -0.265 C  
HETATM    7  N   UNL     1     -10.694  11.008  69.889  1.00  0.00    -0.463 NA 
HETATM    8  H2  UNL     1     -10.484  10.024  69.718  1.00  0.00     0.000 HD 
HETATM    9  H1  UNL     1     -10.903  11.992  70.059  1.00  0.00     0.000 HD 
ENDROOT
BRANCH   6  10
HETATM   10  C   UNL     1     -10.879   5.906  69.965  1.00  0.00    -0.421 C  
HETATM   11  C   UNL     1     -10.620   5.303  71.279  1.00  0.00    -0.172 C  
HETATM   12  N   UNL     1     -10.418   4.828  72.317  1.00  0.00    -0.204 NA 
ENDBRANCH   6  10
TORSDOF 1
ENDMDL
MODEL      121
REMARK 921   NORMALIZED FREE ENERGY PREDICTED BY IDOCK:   -2.47 KCAL/MOL
REMARK 922        TOTAL FREE ENERGY PREDICTED BY IDOCK:   -2.73 KCAL/MOL
REMARK 923 INTER-LIGAND FREE ENERGY PREDICTED BY IDOCK:   -2.67 KCAL/MOL
REMARK 924 INTRA-LIGAND FREE ENERGY PREDICTED BY IDOCK:   -0.06 KCAL/MOL
REMARK 927      BINDING AFFINITY PREDICTED BY RF-SCORE:    0.00 PKD
ROOT
HETATM    1 BR   UNL     1      -8.189   7.148  70.809  1.00  0.00    -0.121 Br 
HETATM    2  C   UNL     1      -9.143   6.191  72.221  1.00  0.00    -0.137 C  
HETATM    3  C   UNL     1     -10.418   5.509  71.715  1.00  0.00    -0.228 C  
HETATM    4 BR   UNL     1     -11.267   4.672  73.325  1.00  0.00    -0.387 Br 
HETATM    5  C   UNL     1     -10.032   4.352  70.808  1.00  0.00    -0.177 C  
HETATM    6  C   UNL     1     -11.470   6.414  71.049  1.00  0.00    -0.394 C  
HETATM    7  N   UNL     1      -9.711   3.393  70.055  1.00  0.00    -0.125 NA 
HETATM    8  H2  UNL     1      -9.971   4.169  70.664  1.00  0.00     0.000 HD 
HETATM    9  H1  UNL     1      -9.452   2.616  69.446  1.00  0.00     0.000 HD 
ENDROOT
BRANCH   6  10
HETATM   10  C   UNL     1     -11.864   7.657  71.860  1.00  0.00    -0.332 C  
HETATM   11  C   UNL     1     -13.281   7.985  71.656  1.00  0.00    -0.330 C  
HETATM   12  N   UNL     1     -14.400   8.241  71.496  1.00  0.00    -0.440 NA 
ENDBRANCH   6  10
TORSDOF 1
ENDMDL
MODEL      122
REMARK 921   NORMALIZED FREE ENERGY PREDICTED BY IDOCK:   -2.46 KCAL/MOL
REMARK 922        TOTAL FREE ENERGY PREDICTED BY IDOCK:   -2.72 KCAL/MOL
REMARK 923 INTER-LIGAND FREE ENERGY PREDICTED BY IDOCK:   -2.61 KCAL/MOL
REMARK 924 INTRA-LIGAND FREE ENERGY PREDICTED BY IDOCK:   -0.11 KCAL/MOL
REMARK 927      BINDING AFFINITY PREDICTED BY RF-SCORE:    0.00 PKD
ROOT
HETATM    1 BR   UNL     1      -8.250   4.746  70.642  1.00  0.00    -0.095 Br 
HETATM    2  C   UNL     1      -8.930   6.351  71.524  1.00  0.00    -0.144 C  
HETATM    3  C   UNL     1     -10.442   6.296  71.767  1.00  0.00    -0.211 C  
HETATM    4 BR   UNL     1     -10.928   8.055  72.593  1.00  0.00    -0.444 Br 
HETATM    5  C   UNL     1     -10.733   5.250  72.831  1.00  0.00    -0.253 C  
HETATM    6  C   UNL     1     -11.336   6.096  70.530  1.00  0.00    -0.381 C  
HETATM    7  N   UNL     1     -10.973   4.382  73.714  1.00  0.00    -0.284 NA 
HETATM    8  H2  UNL     1     -10.779   5.084  73.000  1.00  0.00     0.000 HD 
HETATM    9  H1  UNL     1     -11.168   3.680  74.428  1.00  0.00     0.000 HD 
ENDROOT
BRANCH   6  10
HETATM   10  C   UNL     1     -11.058   7.060  69.367  1.00  0.00    -0.194 C  
HETATM   11  C   UNL     1     -10.889   6.323  68.108  1.00  0.00    -0.320 C  
HETATM   12  N   UNL     1     -10.759   5.740  67.114  1.00  0.00    -0.285 NA 
ENDBRANCH   6  10
TORSDOF 1
ENDMDL
MODEL      123
REMARK 921   NORMALIZED FREE ENERGY PREDICTED BY IDOCK:   -2.44 KCAL/MOL
REMARK 922        TOTAL FREE ENERGY PREDICTED BY IDOCK:   -2.70 KCAL/MOL
REMARK 923 INTER-LIGAND FREE ENERGY PREDICTED BY IDOCK:   -2.62 KCAL/MOL
REMARK 924 INTRA-LIGAND FREE ENERGY PREDICTED BY IDOCK:   -0.08 KCAL/MOL
REMARK 927      BINDING AFFINITY PREDICTED BY RF-SCORE:    0.00 PKD
ROOT
HETATM    1 BR   UNL     1     -10.578  14.108  64.713  1.00  0.00    -0.395 Br 
HETATM    2  C   UNL     1     -11.324  12.700  65.845  1.00  0.00    -0.334 C  
HETATM    3  C   UNL     1     -10.261  12.007  66.704  1.00  0.00    -0.204 C  
HETATM    4 BR   UNL     1     -11.222  10.564  67.706  1.00  0.00    -0.256 Br 
HETATM    5  C   UNL     1      -9.770  12.983  67.761  1.00  0.00    -0.218 C  
HETATM    6  C   UNL     1      -9.084  11.355  65.956  1.00  0.00    -0.218 C  
HETATM    7  N   UNL     1      -9.362  13.792  68.639  1.00  0.00    -0.362 NA 
HETATM    8  H2  UNL     1      -9.692  13.137  67.929  1.00  0.00     0.000 HD 
HETATM    9  H1  UNL     1      -9.033  14.446  69.348  1.00  0.00     0.000 HD 
ENDROOT
BRANCH   6  10
HETATM   10  C   UNL     1      -9.484  10.412  64.813  1.00  0.00    -0.329 C  
HETATM   11  C   UNL     1      -8.894   9.081  65.003  1.00  0.00    -0.170 C  
HETATM   12  N   UNL     1      -8.430   8.030  65.157  1.00  0.00    -0.135 NA 
ENDBRANCH   6  10
TORSDOF 1
ENDMDL
MODEL      124
REMARK 921   NORMALIZED FREE ENERGY PREDICTED BY IDOCK:   -2.43 KCAL/MOL
REMARK 922        TOTAL FREE ENERGY PREDICTED BY IDOCK:   -2.69 KCAL/MOL
REMARK 923 INTER-LIGAND FREE ENERGY PREDICTED BY IDOCK:   -2.80 KCAL/MOL
REMARK 924 INTRA-LIGAND FREE ENERGY PREDICTED BY IDOCK:    0.11 KCAL/MOL
REMARK 927      BINDING AFFINITY PREDICTED BY RF-SCORE:    0.00 PKD
ROOT
HETATM    1 BR   UNL     1     -10.745  17.883  65.727  1.00  0.00     0.109 Br 
HETATM    2  C   UNL     1     -10.479  15.950  65.625  1.00  0.00    -0.392 C  
HETATM    3  C   UNL     1     -10.048  15.341  66.963  1.00  0.00    -0.248 C  
HETATM    4 BR   UNL     1      -9.755  13.391  66.608  1.00  0.00    -0.282 Br 
HETATM    5  C   UNL     1     -11.215  15.409  67.935  1.00  0.00    -0.329 C  
HETATM    6  C   UNL     1      -8.761  15.901  67.595  1.00  0.00    -0.174 C  
HETATM    7  N   UNL     1     -12.183  15.466  68.741  1.00  0.00    -0.593 NA 
HETATM    8  H2  UNL     1     -11.400  15.420  68.089  1.00  0.00     0.000 HD 
HETATM    9  H1  UNL     1     -12.965  15.512  69.393  1.00  0.00     0.000 HD 
ENDROOT
BRANCH   6  10
HETATM   10  C   UNL     1      -7.545  15.946  66.660  1.00  0.00    -0.150 C  
HETATM   11  C   UNL     1      -7.319  17.310  66.163  1.00  0.00    -0.281 C  
HETATM   12  N   UNL     1      -7.141  18.387  65.774  1.00  0.00    -0.462 NA 
ENDBRANCH   6  10
TORSDOF 1
ENDMDL
MODEL      125
REMARK 921   NORMALIZED FREE ENERGY PREDICTED BY IDOCK:   -2.41 KCAL/MOL
REMARK 922        TOTAL FREE ENERGY PREDICTED BY IDOCK:   -2.66 KCAL/MOL
REMARK 923 INTER-LIGAND FREE ENERGY PREDICTED BY IDOCK:   -2.62 KCAL/MOL
REMARK 924 INTRA-LIGAND FREE ENERGY PREDICTED BY IDOCK:   -0.05 KCAL/MOL
REMARK 927      BINDING AFFINITY PREDICTED BY RF-SCORE:    0.00 PKD
ROOT
HETATM    1 BR   UNL     1     -11.797  13.839  68.274  1.00  0.00    -0.406 Br 
HETATM    2  C   UNL     1     -11.527  12.078  67.472  1.00  0.00    -0.333 C  
HETATM    3  C   UNL     1     -10.513  11.226  68.243  1.00  0.00    -0.196 C  
HETATM    4 BR   UNL     1     -10.332   9.520  67.210  1.00  0.00    -0.324 Br 
HETATM    5  C   UNL     1     -11.117  10.833  69.582  1.00  0.00    -0.279 C  
HETATM    6  C   UNL     1      -9.103  11.819  68.420  1.00  0.00    -0.176 C  
HETATM    7  N   UNL     1     -11.617  10.506  70.692  1.00  0.00    -0.339 NA 
HETATM    8  H2  UNL     1     -11.212  10.770  69.794  1.00  0.00     0.000 HD 
HETATM    9  H1  UNL     1     -12.022  10.242  71.590  1.00  0.00     0.000 HD 
ENDROOT
BRANCH   6  10
HETATM   10  C   UNL     1      -8.444  12.320  67.127  1.00  0.00    -0.184 C  
HETATM   11  C   UNL     1      -7.212  13.063  67.423  1.00  0.00    -0.116 C  
HETATM   12  N   UNL     1      -6.238  13.646  67.659  1.00  0.00    -0.264 NA 
ENDBRANCH   6  10
TORSDOF 1
ENDMDL
MODEL      126
REMARK 921   NORMALIZED FREE ENERGY PREDICTED BY IDOCK:   -2.40 KCAL/MOL
REMARK 922        TOTAL FREE ENERGY PREDICTED BY IDOCK:   -2.66 KCAL/MOL
REMARK 923 INTER-LIGAND FREE ENERGY PREDICTED BY IDOCK:   -2.65 KCAL/MOL
REMARK 924 INTRA-LIGAND FREE ENERGY PREDICTED BY IDOCK:   -0.01 KCAL/MOL
REMARK 927      BINDING AFFINITY PREDICTED BY RF-SCORE:    0.00 PKD
ROOT
HETATM    1 BR   UNL     1      -7.119  15.940  67.700  1.00  0.00    -0.206 Br 
HETATM    2  C   UNL     1      -8.363  16.241  66.224  1.00  0.00    -0.308 C  
HETATM    3  C   UNL     1      -9.797  16.496  66.702  1.00  0.00    -0.268 C  
HETATM    4 BR   UNL     1     -10.901  16.691  65.042  1.00  0.00    -0.041 Br 
HETATM    5  C   UNL     1      -9.853  17.849  67.393  1.00  0.00    -0.305 C  
HETATM    6  C   UNL     1     -10.442  15.400  67.569  1.00  0.00    -0.275 C  
HETATM    7  N   UNL     1      -9.899  18.971  67.966  1.00  0.00    -0.332 NA 
HETATM    8  H2  UNL     1      -9.862  18.063  67.502  1.00  0.00     0.000 HD 
HETATM    9  H1  UNL     1      -9.937  19.879  68.429  1.00  0.00     0.000 HD 
ENDROOT
BRANCH   6  10
HETATM   10  C   UNL     1     -10.362  13.981  66.987  1.00  0.00    -0.267 C  
HETATM   11  C   UNL     1     -11.681  13.530  66.527  1.00  0.00    -0.371 C  
HETATM   12  N   UNL     1     -12.723  13.177  66.161  1.00  0.00    -0.279 NA 
ENDBRANCH   6  10
TORSDOF 1
ENDMDL
MODEL      127
REMARK 921   NORMALIZED FREE ENERGY PREDICTED BY IDOCK:   -2.39 KCAL/MOL
REMARK 922        TOTAL FREE ENERGY PREDICTED BY IDOCK:   -2.64 KCAL/MOL
REMARK 923 INTER-LIGAND FREE ENERGY PREDICTED BY IDOCK:   -2.55 KCAL/MOL
REMARK 924 INTRA-LIGAND FREE ENERGY PREDICTED BY IDOCK:   -0.09 KCAL/MOL
REMARK 927      BINDING AFFINITY PREDICTED BY RF-SCORE:    0.00 PKD
ROOT
HETATM    1 BR   UNL     1     -11.198   8.937  70.958  1.00  0.00    -0.369 Br 
HETATM    2  C   UNL     1      -9.757   9.933  70.092  1.00  0.00    -0.202 C  
HETATM    3  C   UNL     1     -10.211  10.634  68.808  1.00  0.00    -0.190 C  
HETATM    4 BR   UNL     1      -8.574  11.510  68.054  1.00  0.00    -0.156 Br 
HETATM    5  C   UNL     1     -11.152  11.770  69.173  1.00  0.00    -0.238 C  
HETATM    6  C   UNL     1     -10.813   9.741  67.708  1.00  0.00    -0.306 C  
HETATM    7  N   UNL     1     -11.933  12.713  69.476  1.00  0.00    -0.297 NA 
HETATM    8  H2  UNL     1     -11.301  11.950  69.231  1.00  0.00     0.000 HD 
HETATM    9  H1  UNL     1     -12.565  13.475  69.721  1.00  0.00     0.000 HD 
ENDROOT
BRANCH   6  10
HETATM   10  C   UNL     1      -9.966   8.518  67.329  1.00  0.00    -0.289 C  
HETATM   11  C   UNL     1     -10.659   7.273  67.686  1.00  0.00    -0.246 C  
HETATM   12  N   UNL     1     -11.208   6.291  67.965  1.00  0.00    -0.261 NA 
ENDBRANCH   6  10
TORSDOF 1
ENDMDL
MODEL      128
REMARK 921   NORMALIZED FREE ENERGY PREDICTED BY IDOCK:   -2.38 KCAL/MOL
REMARK 922        TOTAL FREE ENERGY PREDICTED BY IDOCK:   -2.64 KCAL/MOL
REMARK 923 INTER-LIGAND FREE ENERGY PREDICTED BY IDOCK:   -2.56 KCAL/MOL
REMARK 924 INTRA-LIGAND FREE ENERGY PREDICTED BY IDOCK:   -0.07 KCAL/MOL
REMARK 927      BINDING AFFINITY PREDICTED BY RF-SCORE:    0.00 PKD
ROOT
HETATM    1 BR   UNL     1      -7.402  15.506  67.363  1.00  0.00    -0.251 Br 
HETATM    2  C   UNL     1      -9.044  15.172  66.359  1.00  0.00    -0.296 C  
HETATM    3  C   UNL     1     -10.234  14.840  67.265  1.00  0.00    -0.241 C  
HETATM    4 BR   UNL     1     -11.769  14.456  66.036  1.00  0.00    -0.368 Br 
HETATM    5  C   UNL     1     -10.630  16.088  68.036  1.00  0.00    -0.295 C  
HETATM    6  C   UNL     1     -10.073  13.631  68.205  1.00  0.00    -0.245 C  
HETATM    7  N   UNL     1     -10.958  17.124  68.676  1.00  0.00    -0.246 NA 
HETATM    8  H2  UNL     1     -10.692  16.286  68.159  1.00  0.00     0.000 HD 
HETATM    9  H1  UNL     1     -11.223  17.962  69.194  1.00  0.00     0.000 HD 
ENDROOT
BRANCH   6  10
HETATM   10  C   UNL     1      -9.596  12.340  67.524  1.00  0.00    -0.184 C  
HETATM   11  C   UNL     1     -10.343  11.179  68.027  1.00  0.00    -0.185 C  
HETATM   12  N   UNL     1     -10.935  10.265  68.422  1.00  0.00    -0.254 NA 
ENDBRANCH   6  10
TORSDOF 1
ENDMDL
MODEL      129
REMARK 921   NORMALIZED FREE ENERGY PREDICTED BY IDOCK:   -2.36 KCAL/MOL
REMARK 922        TOTAL FREE ENERGY PREDICTED BY IDOCK:   -2.62 KCAL/MOL
REMARK 923 INTER-LIGAND FREE ENERGY PREDICTED BY IDOCK:   -2.51 KCAL/MOL
REMARK 924 INTRA-LIGAND FREE ENERGY PREDICTED BY IDOCK:   -0.11 KCAL/MOL
REMARK 927      BINDING AFFINITY PREDICTED BY RF-SCORE:    0.00 PKD
ROOT
HETATM    1 BR   UNL     1      -8.865   5.177  70.343  1.00  0.00    -0.158 Br 
HETATM    2  C   UNL     1     -10.728   5.762  70.408  1.00  0.00    -0.302 C  
HETATM    3  C   UNL     1     -11.008   6.716  71.573  1.00  0.00    -0.247 C  
HETATM    4 BR   UNL     1     -12.970   7.115  71.496  1.00  0.00    -0.395 Br 
HETATM    5  C   UNL     1     -10.311   8.040  71.305  1.00  0.00    -0.193 C  
HETATM    6  C   UNL     1     -10.691   6.194  72.986  1.00  0.00    -0.276 C  
HETATM    7  N   UNL     1      -9.732   9.138  71.083  1.00  0.00    -0.290 NA 
HETATM    8  H2  UNL     1     -10.200   8.250  71.263  1.00  0.00     0.000 HD 
HETATM    9  H1  UNL     1      -9.264  10.026  70.903  1.00  0.00     0.000 HD 
ENDROOT
BRANCH   6  10
HETATM   10  C   UNL     1     -11.289   4.820  73.320  1.00  0.00    -0.408 C  
HETATM   11  C   UNL     1     -10.251   3.905  73.813  1.00  0.00    -0.154 C  
HETATM   12  N   UNL     1      -9.432   3.185  74.205  1.00  0.00    -0.088 NA 
ENDBRANCH   6  10
TORSDOF 1
ENDMDL
MODEL      130
REMARK 921   NORMALIZED FREE ENERGY PREDICTED BY IDOCK:   -2.33 KCAL/MOL
REMARK 922        TOTAL FREE ENERGY PREDICTED BY IDOCK:   -2.58 KCAL/MOL
REMARK 923 INTER-LIGAND FREE ENERGY PREDICTED BY IDOCK:   -2.51 KCAL/MOL
REMARK 924 INTRA-LIGAND FREE ENERGY PREDICTED BY IDOCK:   -0.07 KCAL/MOL
REMARK 927      BINDING AFFINITY PREDICTED BY RF-SCORE:    0.00 PKD
ROOT
HETATM    1 BR   UNL     1     -11.248  10.212  69.041  1.00  0.00    -0.189 Br 
HETATM    2  C   UNL     1     -10.769   9.590  70.830  1.00  0.00    -0.333 C  
HETATM    3  C   UNL     1      -9.509   8.718  70.836  1.00  0.00    -0.216 C  
HETATM    4 BR   UNL     1      -9.258   8.131  72.735  1.00  0.00    -0.347 Br 
HETATM    5  C   UNL     1      -8.306   9.589  70.513  1.00  0.00    -0.163 C  
HETATM    6  C   UNL     1      -9.537   7.456  69.955  1.00  0.00    -0.163 C  
HETATM    7  N   UNL     1      -7.308  10.311  70.245  1.00  0.00    -0.369 NA 
HETATM    8  H2  UNL     1      -8.115   9.727  70.462  1.00  0.00     0.000 HD 
HETATM    9  H1  UNL     1      -6.500  10.896  70.029  1.00  0.00     0.000 HD 
ENDROOT
BRANCH   6  10
HETATM   10  C   UNL     1     -10.762   6.553  70.154  1.00  0.00    -0.305 C  
HETATM   11  C   UNL     1     -10.355   5.205  70.570  1.00  0.00    -0.243 C  
HETATM   12  N   UNL     1     -10.031   4.142  70.901  1.00  0.00    -0.178 NA 
ENDBRANCH   6  10
TORSDOF 1
ENDMDL
MODEL      131
REMARK 921   NORMALIZED FREE ENERGY PREDICTED BY IDOCK:   -2.33 KCAL/MOL
REMARK 922        TOTAL FREE ENERGY PREDICTED BY IDOCK:   -2.58 KCAL/MOL
REMARK 923 INTER-LIGAND FREE ENERGY PREDICTED BY IDOCK:   -2.47 KCAL/MOL
REMARK 924 INTRA-LIGAND FREE ENERGY PREDICTED BY IDOCK:   -0.11 KCAL/MOL
REMARK 927      BINDING AFFINITY PREDICTED BY RF-SCORE:    0.00 PKD
ROOT
HETATM    1 BR   UNL     1     -10.248   5.365  70.109  1.00  0.00    -0.359 Br 
HETATM    2  C   UNL     1     -10.694   7.025  69.179  1.00  0.00    -0.218 C  
HETATM    3  C   UNL     1      -9.987   7.153  67.826  1.00  0.00    -0.155 C  
HETATM    4 BR   UNL     1     -10.516   8.943  67.099  1.00  0.00    -0.304 Br 
HETATM    5  C   UNL     1     -10.572   6.131  66.865  1.00  0.00    -0.312 C  
HETATM    6  C   UNL     1      -8.449   7.089  67.840  1.00  0.00    -0.124 C  
HETATM    7  N   UNL     1     -11.058   5.283  66.068  1.00  0.00    -0.793 NA 
HETATM    8  H2  UNL     1     -10.665   5.969  66.713  1.00  0.00     0.000 HD 
HETATM    9  H1  UNL     1     -11.451   4.597  65.423  1.00  0.00     0.000 HD 
ENDROOT
BRANCH   6  10
HETATM   10  C   UNL     1      -7.769   8.032  68.843  1.00  0.00    -0.104 C  
HETATM   11  C   UNL     1      -6.981   7.273  69.822  1.00  0.00    -0.057 C  
HETATM   12  N   UNL     1      -6.357   6.673  70.592  1.00  0.00    -0.039 NA 
ENDBRANCH   6  10
TORSDOF 1
ENDMDL
MODEL      132
REMARK 921   NORMALIZED FREE ENERGY PREDICTED BY IDOCK:   -2.32 KCAL/MOL
REMARK 922        TOTAL FREE ENERGY PREDICTED BY IDOCK:   -2.57 KCAL/MOL
REMARK 923 INTER-LIGAND FREE ENERGY PREDICTED BY IDOCK:   -2.52 KCAL/MOL
REMARK 924 INTRA-LIGAND FREE ENERGY PREDICTED BY IDOCK:   -0.05 KCAL/MOL
REMARK 927      BINDING AFFINITY PREDICTED BY RF-SCORE:    0.00 PKD
ROOT
HETATM    1 BR   UNL     1      -6.797  10.000  67.312  1.00  0.00    -0.083 Br 
HETATM    2  C   UNL     1      -8.133   8.679  67.850  1.00  0.00    -0.108 C  
HETATM    3  C   UNL     1      -9.188   8.429  66.767  1.00  0.00    -0.171 C  
HETATM    4 BR   UNL     1     -10.484   7.122  67.557  1.00  0.00    -0.355 Br 
HETATM    5  C   UNL     1      -8.535   7.705  65.601  1.00  0.00    -0.142 C  
HETATM    6  C   UNL     1      -9.989   9.653  66.287  1.00  0.00    -0.335 C  
HETATM    7  N   UNL     1      -7.994   7.105  64.633  1.00  0.00    -0.146 NA 
HETATM    8  H2  UNL     1      -8.432   7.591  65.416  1.00  0.00     0.000 HD 
HETATM    9  H1  UNL     1      -7.556   6.619  63.850  1.00  0.00     0.000 HD 
ENDROOT
BRANCH   6  10
HETATM   10  C   UNL     1     -10.620  10.495  67.405  1.00  0.00    -0.313 C  
HETATM   11  C   UNL     1     -11.364  11.631  66.846  1.00  0.00    -0.295 C  
HETATM   12  N   UNL     1     -11.953  12.526  66.404  1.00  0.00    -0.577 NA 
ENDBRANCH   6  10
TORSDOF 1
ENDMDL
MODEL      133
REMARK 921   NORMALIZED FREE ENERGY PREDICTED BY IDOCK:   -2.31 KCAL/MOL
REMARK 922        TOTAL FREE ENERGY PREDICTED BY IDOCK:   -2.56 KCAL/MOL
REMARK 923 INTER-LIGAND FREE ENERGY PREDICTED BY IDOCK:   -2.49 KCAL/MOL
REMARK 924 INTRA-LIGAND FREE ENERGY PREDICTED BY IDOCK:   -0.06 KCAL/MOL
REMARK 927      BINDING AFFINITY PREDICTED BY RF-SCORE:    0.00 PKD
ROOT
HETATM    1 BR   UNL     1      -9.780   5.426  68.040  1.00  0.00    -0.183 Br 
HETATM    2  C   UNL     1      -8.999   6.991  68.912  1.00  0.00    -0.129 C  
HETATM    3  C   UNL     1      -9.945   8.196  68.920  1.00  0.00    -0.192 C  
HETATM    4 BR   UNL     1      -8.920   9.690  69.776  1.00  0.00    -0.245 Br 
HETATM    5  C   UNL     1     -11.106   7.906  69.857  1.00  0.00    -0.120 C  
HETATM    6  C   UNL     1     -10.443   8.694  67.551  1.00  0.00    -0.335 C  
HETATM    7  N   UNL     1     -12.069   7.666  70.634  1.00  0.00    -0.501 NA 
HETATM    8  H2  UNL     1     -11.290   7.860  70.006  1.00  0.00     0.000 HD 
HETATM    9  H1  UNL     1     -12.848   7.471  71.263  1.00  0.00     0.000 HD 
ENDROOT
BRANCH   6  10
HETATM   10  C   UNL     1      -9.342   8.938  66.509  1.00  0.00    -0.252 C  
HETATM   11  C   UNL     1      -9.673  10.089  65.660  1.00  0.00    -0.272 C  
HETATM   12  N   UNL     1      -9.934  11.001  64.993  1.00  0.00    -0.263 NA 
ENDBRANCH   6  10
TORSDOF 1
ENDMDL
MODEL      134
REMARK 921   NORMALIZED FREE ENERGY PREDICTED BY IDOCK:   -2.30 KCAL/MOL
REMARK 922        TOTAL FREE ENERGY PREDICTED BY IDOCK:   -2.56 KCAL/MOL
REMARK 923 INTER-LIGAND FREE ENERGY PREDICTED BY IDOCK:   -2.49 KCAL/MOL
REMARK 924 INTRA-LIGAND FREE ENERGY PREDICTED BY IDOCK:   -0.06 KCAL/MOL
REMARK 927      BINDING AFFINITY PREDICTED BY RF-SCORE:    0.00 PKD
ROOT
HETATM    1 BR   UNL     1      -7.566   3.572  66.473  1.00  0.00    -0.077 Br 
HETATM    2  C   UNL     1      -8.902   4.430  67.611  1.00  0.00    -0.109 C  
HETATM    3  C   UNL     1      -9.684   5.527  66.880  1.00  0.00    -0.150 C  
HETATM    4 BR   UNL     1     -10.922   6.317  68.242  1.00  0.00    -0.364 Br 
HETATM    5  C   UNL     1     -10.581   4.881  65.837  1.00  0.00    -0.230 C  
HETATM    6  C   UNL     1      -8.860   6.677  66.272  1.00  0.00    -0.156 C  
HETATM    7  N   UNL     1     -11.326   4.345  64.972  1.00  0.00    -1.102 NA 
HETATM    8  H2  UNL     1     -10.724   4.778  65.672  1.00  0.00     0.000 HD 
HETATM    9  H1  UNL     1     -11.928   3.911  64.272  1.00  0.00     0.000 HD 
ENDROOT
BRANCH   6  10
HETATM   10  C   UNL     1      -7.864   7.340  67.234  1.00  0.00    -0.111 C  
HETATM   11  C   UNL     1      -7.711   8.767  66.925  1.00  0.00    -0.094 C  
HETATM   12  N   UNL     1      -7.594   9.894  66.681  1.00  0.00    -0.102 NA 
ENDBRANCH   6  10
TORSDOF 1
ENDMDL
MODEL      135
REMARK 921   NORMALIZED FREE ENERGY PREDICTED BY IDOCK:   -2.29 KCAL/MOL
REMARK 922        TOTAL FREE ENERGY PREDICTED BY IDOCK:   -2.54 KCAL/MOL
REMARK 923 INTER-LIGAND FREE ENERGY PREDICTED BY IDOCK:   -2.51 KCAL/MOL
REMARK 924 INTRA-LIGAND FREE ENERGY PREDICTED BY IDOCK:   -0.03 KCAL/MOL
REMARK 927      BINDING AFFINITY PREDICTED BY RF-SCORE:    0.00 PKD
ROOT
HETATM    1 BR   UNL     1      -9.392   7.618  68.497  1.00  0.00    -0.147 Br 
HETATM    2  C   UNL     1      -8.784   9.449  68.194  1.00  0.00    -0.124 C  
HETATM    3  C   UNL     1      -9.665  10.208  67.197  1.00  0.00    -0.173 C  
HETATM    4 BR   UNL     1      -8.818  12.010  66.977  1.00  0.00    -0.201 Br 
HETATM    5  C   UNL     1     -11.020  10.467  67.834  1.00  0.00    -0.295 C  
HETATM    6  C   UNL     1      -9.817   9.587  65.796  1.00  0.00    -0.363 C  
HETATM    7  N   UNL     1     -12.145  10.683  68.364  1.00  0.00    -0.813 NA 
HETATM    8  H2  UNL     1     -11.235  10.508  67.936  1.00  0.00     0.000 HD 
HETATM    9  H1  UNL     1     -13.054  10.857  68.792  1.00  0.00     0.000 HD 
ENDROOT
BRANCH   6  10
HETATM   10  C   UNL     1      -8.498   9.216  65.104  1.00  0.00    -0.182 C  
HETATM   11  C   UNL     1      -8.331   7.758  65.048  1.00  0.00    -0.086 C  
HETATM   12  N   UNL     1      -8.202   6.607  65.001  1.00  0.00    -0.129 NA 
ENDBRANCH   6  10
TORSDOF 1
ENDMDL
MODEL      136
REMARK 921   NORMALIZED FREE ENERGY PREDICTED BY IDOCK:   -2.29 KCAL/MOL
REMARK 922        TOTAL FREE ENERGY PREDICTED BY IDOCK:   -2.54 KCAL/MOL
REMARK 923 INTER-LIGAND FREE ENERGY PREDICTED BY IDOCK:   -2.48 KCAL/MOL
REMARK 924 INTRA-LIGAND FREE ENERGY PREDICTED BY IDOCK:   -0.05 KCAL/MOL
REMARK 927      BINDING AFFINITY PREDICTED BY RF-SCORE:    0.00 PKD
ROOT
HETATM    1 BR   UNL     1      -9.128   5.040  73.366  1.00  0.00    -0.121 Br 
HETATM    2  C   UNL     1      -8.402   6.271  72.033  1.00  0.00    -0.110 C  
HETATM    3  C   UNL     1      -8.845   7.719  72.262  1.00  0.00    -0.134 C  
HETATM    4 BR   UNL     1      -8.063   8.777  70.751  1.00  0.00    -0.179 Br 
HETATM    5  C   UNL     1      -8.175   8.247  73.521  1.00  0.00    -0.185 C  
HETATM    6  C   UNL     1     -10.361   7.984  72.284  1.00  0.00    -0.336 C  
HETATM    7  N   UNL     1      -7.619   8.684  74.565  1.00  0.00    -0.403 NA 
HETATM    8  H2  UNL     1      -8.069   8.330  73.720  1.00  0.00     0.000 HD 
HETATM    9  H1  UNL     1      -7.170   9.038  75.409  1.00  0.00     0.000 HD 
ENDROOT
BRANCH   6  10
HETATM   10  C   UNL     1     -11.137   7.415  71.088  1.00  0.00    -0.271 C  
HETATM   11  C   UNL     1     -12.557   7.246  71.420  1.00  0.00    -0.388 C  
HETATM   12  N   UNL     1     -13.679   7.115  71.682  1.00  0.00    -0.357 NA 
ENDBRANCH   6  10
TORSDOF 1
ENDMDL
MODEL      137
REMARK 921   NORMALIZED FREE ENERGY PREDICTED BY IDOCK:   -2.28 KCAL/MOL
REMARK 922        TOTAL FREE ENERGY PREDICTED BY IDOCK:   -2.53 KCAL/MOL
REMARK 923 INTER-LIGAND FREE ENERGY PREDICTED BY IDOCK:   -2.61 KCAL/MOL
REMARK 924 INTRA-LIGAND FREE ENERGY PREDICTED BY IDOCK:    0.07 KCAL/MOL
REMARK 927      BINDING AFFINITY PREDICTED BY RF-SCORE:    0.00 PKD
ROOT
HETATM    1 BR   UNL     1     -11.529  14.373  66.872  1.00  0.00    -0.395 Br 
HETATM    2  C   UNL     1     -11.786  15.489  68.455  1.00  0.00    -0.309 C  
HETATM    3  C   UNL     1     -11.077  14.930  69.693  1.00  0.00    -0.276 C  
HETATM    4 BR   UNL     1     -11.541  16.171  71.196  1.00  0.00    -0.381 Br 
HETATM    5  C   UNL     1      -9.575  15.060  69.503  1.00  0.00    -0.085 C  
HETATM    6  C   UNL     1     -11.464  13.504  70.127  1.00  0.00    -0.083 C  
HETATM    7  N   UNL     1      -8.329  15.168  69.344  1.00  0.00    -0.334 NA 
HETATM    8  H2  UNL     1      -9.337  15.081  69.472  1.00  0.00     0.000 HD 
HETATM    9  H1  UNL     1      -7.321  15.255  69.216  1.00  0.00     0.000 HD 
ENDROOT
BRANCH   6  10
HETATM   10  C   UNL     1     -12.972  13.255  70.267  1.00  0.00     0.242 C  
HETATM   11  C   UNL     1     -13.380  13.306  71.677  1.00  0.00    -0.322 C  
HETATM   12  N   UNL     1     -13.701  13.350  72.790  1.00  0.00    -0.664 NA 
ENDBRANCH   6  10
TORSDOF 1
ENDMDL
MODEL      138
REMARK 921   NORMALIZED FREE ENERGY PREDICTED BY IDOCK:   -2.28 KCAL/MOL
REMARK 922        TOTAL FREE ENERGY PREDICTED BY IDOCK:   -2.53 KCAL/MOL
REMARK 923 INTER-LIGAND FREE ENERGY PREDICTED BY IDOCK:   -2.46 KCAL/MOL
REMARK 924 INTRA-LIGAND FREE ENERGY PREDICTED BY IDOCK:   -0.07 KCAL/MOL
REMARK 927      BINDING AFFINITY PREDICTED BY RF-SCORE:    0.00 PKD
ROOT
HETATM    1 BR   UNL     1      -8.890   8.306  67.605  1.00  0.00    -0.140 Br 
HETATM    2  C   UNL     1     -10.465   8.632  68.715  1.00  0.00    -0.185 C  
HETATM    3  C   UNL     1     -10.205   9.658  69.824  1.00  0.00    -0.237 C  
HETATM    4 BR   UNL     1     -11.906   9.771  70.875  1.00  0.00    -0.449 Br 
HETATM    5  C   UNL     1     -10.021  11.029  69.193  1.00  0.00    -0.121 C  
HETATM    6  C   UNL     1      -9.066   9.339  70.808  1.00  0.00    -0.306 C  
HETATM    7  N   UNL     1      -9.868  12.166  68.671  1.00  0.00    -0.369 NA 
HETATM    8  H2  UNL     1      -9.991  11.246  69.094  1.00  0.00     0.000 HD 
HETATM    9  H1  UNL     1      -9.744  13.086  68.248  1.00  0.00     0.000 HD 
ENDROOT
BRANCH   6  10
HETATM   10  C   UNL     1      -9.124   7.939  71.436  1.00  0.00    -0.163 C  
HETATM   11  C   UNL     1      -8.817   7.997  72.871  1.00  0.00    -0.224 C  
HETATM   12  N   UNL     1      -8.579   8.046  74.005  1.00  0.00    -0.264 NA 
ENDBRANCH   6  10
TORSDOF 1
ENDMDL
MODEL      139
REMARK 921   NORMALIZED FREE ENERGY PREDICTED BY IDOCK:   -2.27 KCAL/MOL
REMARK 922        TOTAL FREE ENERGY PREDICTED BY IDOCK:   -2.52 KCAL/MOL
REMARK 923 INTER-LIGAND FREE ENERGY PREDICTED BY IDOCK:   -2.45 KCAL/MOL
REMARK 924 INTRA-LIGAND FREE ENERGY PREDICTED BY IDOCK:   -0.07 KCAL/MOL
REMARK 927      BINDING AFFINITY PREDICTED BY RF-SCORE:    0.00 PKD
ROOT
HETATM    1 BR   UNL     1     -11.677  11.857  68.481  1.00  0.00    -0.379 Br 
HETATM    2  C   UNL     1      -9.849  11.177  68.373  1.00  0.00    -0.185 C  
HETATM    3  C   UNL     1      -9.602  10.343  67.112  1.00  0.00    -0.164 C  
HETATM    4 BR   UNL     1      -7.714   9.687  67.250  1.00  0.00    -0.091 Br 
HETATM    5  C   UNL     1      -9.629  11.261  65.900  1.00  0.00    -0.221 C  
HETATM    6  C   UNL     1     -10.510   9.118  66.904  1.00  0.00    -0.287 C  
HETATM    7  N   UNL     1      -9.651  12.022  64.896  1.00  0.00    -0.438 NA 
HETATM    8  H2  UNL     1      -9.633  11.407  65.708  1.00  0.00     0.000 HD 
HETATM    9  H1  UNL     1      -9.670  12.638  64.083  1.00  0.00     0.000 HD 
ENDROOT
BRANCH   6  10
HETATM   10  C   UNL     1     -10.609   8.171  68.109  1.00  0.00    -0.168 C  
HETATM   11  C   UNL     1     -10.590   6.769  67.674  1.00  0.00    -0.259 C  
HETATM   12  N   UNL     1     -10.571   5.662  67.329  1.00  0.00    -0.257 NA 
ENDBRANCH   6  10
TORSDOF 1
ENDMDL
MODEL      140
REMARK 921   NORMALIZED FREE ENERGY PREDICTED BY IDOCK:   -2.26 KCAL/MOL
REMARK 922        TOTAL FREE ENERGY PREDICTED BY IDOCK:   -2.51 KCAL/MOL
REMARK 923 INTER-LIGAND FREE ENERGY PREDICTED BY IDOCK:   -2.46 KCAL/MOL
REMARK 924 INTRA-LIGAND FREE ENERGY PREDICTED BY IDOCK:   -0.06 KCAL/MOL
REMARK 927      BINDING AFFINITY PREDICTED BY RF-SCORE:    0.00 PKD
ROOT
HETATM    1 BR   UNL     1     -11.234   7.894  72.617  1.00  0.00    -0.462 Br 
HETATM    2  C   UNL     1     -11.550   7.119  70.851  1.00  0.00    -0.311 C  
HETATM    3  C   UNL     1     -10.295   7.118  69.973  1.00  0.00    -0.208 C  
HETATM    4 BR   UNL     1     -10.864   6.368  68.204  1.00  0.00    -0.398 Br 
HETATM    5  C   UNL     1      -9.298   6.120  70.539  1.00  0.00    -0.161 C  
HETATM    6  C   UNL     1      -9.631   8.482  69.711  1.00  0.00    -0.170 C  
HETATM    7  N   UNL     1      -8.471   5.292  71.009  1.00  0.00    -0.120 NA 
HETATM    8  H2  UNL     1      -9.140   5.961  70.629  1.00  0.00     0.000 HD 
HETATM    9  H1  UNL     1      -7.802   4.622  71.389  1.00  0.00     0.000 HD 
ENDROOT
BRANCH   6  10
HETATM   10  C   UNL     1     -10.581   9.581  69.212  1.00  0.00    -0.236 C  
HETATM   11  C   UNL     1     -10.220  10.003  67.852  1.00  0.00    -0.188 C  
HETATM   12  N   UNL     1      -9.937  10.333  66.778  1.00  0.00    -0.200 NA 
ENDBRANCH   6  10
TORSDOF 1
ENDMDL
MODEL      141
REMARK 921   NORMALIZED FREE ENERGY PREDICTED BY IDOCK:   -2.24 KCAL/MOL
REMARK 922        TOTAL FREE ENERGY PREDICTED BY IDOCK:   -2.49 KCAL/MOL
REMARK 923 INTER-LIGAND FREE ENERGY PREDICTED BY IDOCK:   -2.37 KCAL/MOL
REMARK 924 INTRA-LIGAND FREE ENERGY PREDICTED BY IDOCK:   -0.12 KCAL/MOL
REMARK 927      BINDING AFFINITY PREDICTED BY RF-SCORE:    0.00 PKD
ROOT
HETATM    1 BR   UNL     1      -8.271   7.943  71.386  1.00  0.00    -0.128 Br 
HETATM    2  C   UNL     1      -9.842   9.062  71.696  1.00  0.00    -0.296 C  
HETATM    3  C   UNL     1     -10.869   8.966  70.564  1.00  0.00    -0.236 C  
HETATM    4 BR   UNL     1     -12.337  10.242  71.045  1.00  0.00    -0.522 Br 
HETATM    5  C   UNL     1     -11.503   7.585  70.588  1.00  0.00    -0.269 C  
HETATM    6  C   UNL     1     -10.377   9.330  69.151  1.00  0.00    -0.222 C  
HETATM    7  N   UNL     1     -12.028   6.439  70.608  1.00  0.00    -0.274 NA 
HETATM    8  H2  UNL     1     -11.603   7.366  70.592  1.00  0.00     0.000 HD 
HETATM    9  H1  UNL     1     -12.454   5.512  70.625  1.00  0.00     0.000 HD 
ENDROOT
BRANCH   6  10
HETATM   10  C   UNL     1      -9.650  10.678  69.044  1.00  0.00    -0.207 C  
HETATM   11  C   UNL     1      -8.294  10.497  68.510  1.00  0.00    -0.129 C  
HETATM   12  N   UNL     1      -7.224  10.354  68.087  1.00  0.00    -0.086 NA 
ENDBRANCH   6  10
TORSDOF 1
ENDMDL
MODEL      142
REMARK 921   NORMALIZED FREE ENERGY PREDICTED BY IDOCK:   -2.24 KCAL/MOL
REMARK 922        TOTAL FREE ENERGY PREDICTED BY IDOCK:   -2.48 KCAL/MOL
REMARK 923 INTER-LIGAND FREE ENERGY PREDICTED BY IDOCK:   -2.42 KCAL/MOL
REMARK 924 INTRA-LIGAND FREE ENERGY PREDICTED BY IDOCK:   -0.07 KCAL/MOL
REMARK 927      BINDING AFFINITY PREDICTED BY RF-SCORE:    0.00 PKD
ROOT
HETATM    1 BR   UNL     1      -7.439   5.958  67.954  1.00  0.00    -0.082 Br 
HETATM    2  C   UNL     1      -7.876   4.879  69.524  1.00  0.00    -0.067 C  
HETATM    3  C   UNL     1      -9.303   4.322  69.480  1.00  0.00    -0.162 C  
HETATM    4 BR   UNL     1      -9.558   3.333  71.203  1.00  0.00    -0.213 Br 
HETATM    5  C   UNL     1      -9.388   3.270  68.386  1.00  0.00    -0.180 C  
HETATM    6  C   UNL     1     -10.443   5.349  69.355  1.00  0.00    -0.331 C  
HETATM    7  N   UNL     1      -9.458   2.396  67.480  1.00  0.00    -0.391 NA 
HETATM    8  H2  UNL     1      -9.401   3.103  68.213  1.00  0.00     0.000 HD 
HETATM    9  H1  UNL     1      -9.515   1.690  66.746  1.00  0.00     0.000 HD 
ENDROOT
BRANCH   6  10
HETATM   10  C   UNL     1     -10.394   6.499  70.371  1.00  0.00    -0.237 C  
HETATM   11  C   UNL     1     -11.743   6.836  70.844  1.00  0.00    -0.372 C  
HETATM   12  N   UNL     1     -12.808   7.099  71.218  1.00  0.00    -0.382 NA 
ENDBRANCH   6  10
TORSDOF 1
ENDMDL
MODEL      143
REMARK 921   NORMALIZED FREE ENERGY PREDICTED BY IDOCK:   -2.23 KCAL/MOL
REMARK 922        TOTAL FREE ENERGY PREDICTED BY IDOCK:   -2.48 KCAL/MOL
REMARK 923 INTER-LIGAND FREE ENERGY PREDICTED BY IDOCK:   -2.37 KCAL/MOL
REMARK 924 INTRA-LIGAND FREE ENERGY PREDICTED BY IDOCK:   -0.11 KCAL/MOL
REMARK 927      BINDING AFFINITY PREDICTED BY RF-SCORE:    0.00 PKD
ROOT
HETATM    1 BR   UNL     1      -7.922   7.037  70.263  1.00  0.00    -0.119 Br 
HETATM    2  C   UNL     1      -9.825   7.050  70.705  1.00  0.00    -0.185 C  
HETATM    3  C   UNL     1     -10.220   8.243  71.582  1.00  0.00    -0.221 C  
HETATM    4 BR   UNL     1     -12.170   8.011  71.977  1.00  0.00    -0.391 Br 
HETATM    5  C   UNL     1     -10.117   9.516  70.758  1.00  0.00    -0.282 C  
HETATM    6  C   UNL     1      -9.484   8.388  72.926  1.00  0.00    -0.275 C  
HETATM    7  N   UNL     1     -10.032  10.572  70.074  1.00  0.00    -0.400 NA 
HETATM    8  H2  UNL     1     -10.101   9.718  70.627  1.00  0.00     0.000 HD 
HETATM    9  H1  UNL     1      -9.963  11.427  69.521  1.00  0.00     0.000 HD 
ENDROOT
BRANCH   6  10
HETATM   10  C   UNL     1      -9.466   7.122  73.795  1.00  0.00    -0.286 C  
HETATM   11  C   UNL     1      -8.097   6.803  74.223  1.00  0.00    -0.121 C  
HETATM   12  N   UNL     1      -7.017   6.554  74.562  1.00  0.00    -0.092 NA 
ENDBRANCH   6  10
TORSDOF 1
ENDMDL
MODEL      144
REMARK 921   NORMALIZED FREE ENERGY PREDICTED BY IDOCK:   -2.23 KCAL/MOL
REMARK 922        TOTAL FREE ENERGY PREDICTED BY IDOCK:   -2.48 KCAL/MOL
REMARK 923 INTER-LIGAND FREE ENERGY PREDICTED BY IDOCK:   -2.43 KCAL/MOL
REMARK 924 INTRA-LIGAND FREE ENERGY PREDICTED BY IDOCK:   -0.05 KCAL/MOL
REMARK 927      BINDING AFFINITY PREDICTED BY RF-SCORE:    0.00 PKD
ROOT
HETATM    1 BR   UNL     1      -7.917  11.456  67.245  1.00  0.00    -0.156 Br 
HETATM    2  C   UNL     1      -8.839   9.761  66.934  1.00  0.00    -0.138 C  
HETATM    3  C   UNL     1      -9.898   9.460  68.000  1.00  0.00    -0.164 C  
HETATM    4 BR   UNL     1     -10.646   7.660  67.536  1.00  0.00    -0.296 Br 
HETATM    5  C   UNL     1     -11.051  10.437  67.840  1.00  0.00    -0.299 C  
HETATM    6  C   UNL     1      -9.413   9.404  69.460  1.00  0.00    -0.187 C  
HETATM    7  N   UNL     1     -12.008  11.247  67.706  1.00  0.00    -0.635 NA 
HETATM    8  H2  UNL     1     -11.234  10.592  67.814  1.00  0.00     0.000 HD 
HETATM    9  H1  UNL     1     -12.782  11.903  67.599  1.00  0.00     0.000 HD 
ENDROOT
BRANCH   6  10
HETATM   10  C   UNL     1      -8.196   8.501  69.706  1.00  0.00    -0.121 C  
HETATM   11  C   UNL     1      -7.644   8.723  71.048  1.00  0.00    -0.111 C  
HETATM   12  N   UNL     1      -7.211   8.897  72.109  1.00  0.00    -0.324 NA 
ENDBRANCH   6  10
TORSDOF 1
ENDMDL
MODEL      145
REMARK 921   NORMALIZED FREE ENERGY PREDICTED BY IDOCK:   -2.23 KCAL/MOL
REMARK 922        TOTAL FREE ENERGY PREDICTED BY IDOCK:   -2.47 KCAL/MOL
REMARK 923 INTER-LIGAND FREE ENERGY PREDICTED BY IDOCK:   -2.42 KCAL/MOL
REMARK 924 INTRA-LIGAND FREE ENERGY PREDICTED BY IDOCK:   -0.05 KCAL/MOL
REMARK 927      BINDING AFFINITY PREDICTED BY RF-SCORE:    0.00 PKD
ROOT
HETATM    1 BR   UNL     1     -10.550   7.115  68.317  1.00  0.00    -0.213 Br 
HETATM    2  C   UNL     1      -9.042   8.309  67.974  1.00  0.00    -0.137 C  
HETATM    3  C   UNL     1      -9.151   9.633  68.736  1.00  0.00    -0.134 C  
HETATM    4 BR   UNL     1      -7.564  10.720  68.176  1.00  0.00    -0.096 Br 
HETATM    5  C   UNL     1      -8.960   9.365  70.220  1.00  0.00    -0.240 C  
HETATM    6  C   UNL     1     -10.412  10.478  68.480  1.00  0.00    -0.210 C  
HETATM    7  N   UNL     1      -8.802   9.142  71.451  1.00  0.00    -0.326 NA 
HETATM    8  H2  UNL     1      -8.930   9.322  70.456  1.00  0.00     0.000 HD 
HETATM    9  H1  UNL     1      -8.674   8.962  72.447  1.00  0.00     0.000 HD 
ENDROOT
BRANCH   6  10
HETATM   10  C   UNL     1     -10.731  10.734  67.000  1.00  0.00    -0.320 C  
HETATM   11  C   UNL     1     -11.596  11.911  66.849  1.00  0.00    -0.285 C  
HETATM   12  N   UNL     1     -12.277  12.842  66.731  1.00  0.00    -0.459 NA 
ENDBRANCH   6  10
TORSDOF 1
ENDMDL
MODEL      146
REMARK 921   NORMALIZED FREE ENERGY PREDICTED BY IDOCK:   -2.19 KCAL/MOL
REMARK 922        TOTAL FREE ENERGY PREDICTED BY IDOCK:   -2.43 KCAL/MOL
REMARK 923 INTER-LIGAND FREE ENERGY PREDICTED BY IDOCK:   -2.35 KCAL/MOL
REMARK 924 INTRA-LIGAND FREE ENERGY PREDICTED BY IDOCK:   -0.08 KCAL/MOL
REMARK 927      BINDING AFFINITY PREDICTED BY RF-SCORE:    0.00 PKD
ROOT
HETATM    1 BR   UNL     1     -10.189   5.688  70.147  1.00  0.00    -0.344 Br 
HETATM    2  C   UNL     1     -11.000   7.458  69.977  1.00  0.00    -0.248 C  
HETATM    3  C   UNL     1     -10.172   8.406  69.103  1.00  0.00    -0.211 C  
HETATM    4 BR   UNL     1     -11.134  10.162  69.136  1.00  0.00    -0.242 Br 
HETATM    5  C   UNL     1     -10.237   7.930  67.660  1.00  0.00    -0.226 C  
HETATM    6  C   UNL     1      -8.718   8.659  69.541  1.00  0.00    -0.139 C  
HETATM    7  N   UNL     1     -10.292   7.535  66.464  1.00  0.00    -0.501 NA 
HETATM    8  H2  UNL     1     -10.248   7.854  67.432  1.00  0.00     0.000 HD 
HETATM    9  H1  UNL     1     -10.335   7.216  65.496  1.00  0.00     0.000 HD 
ENDROOT
BRANCH   6  10
HETATM   10  C   UNL     1      -8.546   9.067  71.011  1.00  0.00    -0.264 C  
HETATM   11  C   UNL     1      -7.829   8.028  71.761  1.00  0.00    -0.110 C  
HETATM   12  N   UNL     1      -7.260   7.208  72.350  1.00  0.00    -0.068 NA 
ENDBRANCH   6  10
TORSDOF 1
ENDMDL
MODEL      147
REMARK 921   NORMALIZED FREE ENERGY PREDICTED BY IDOCK:   -2.19 KCAL/MOL
REMARK 922        TOTAL FREE ENERGY PREDICTED BY IDOCK:   -2.43 KCAL/MOL
REMARK 923 INTER-LIGAND FREE ENERGY PREDICTED BY IDOCK:   -2.53 KCAL/MOL
REMARK 924 INTRA-LIGAND FREE ENERGY PREDICTED BY IDOCK:    0.09 KCAL/MOL
REMARK 927      BINDING AFFINITY PREDICTED BY RF-SCORE:    0.00 PKD
ROOT
HETATM    1 BR   UNL     1     -11.262  15.570  66.381  1.00  0.00    -0.005 Br 
HETATM    2  C   UNL     1      -9.609  16.168  67.233  1.00  0.00    -0.229 C  
HETATM    3  C   UNL     1      -9.844  17.271  68.271  1.00  0.00    -0.304 C  
HETATM    4 BR   UNL     1      -8.028  17.784  68.946  1.00  0.00    -0.108 Br 
HETATM    5  C   UNL     1     -10.572  16.677  69.465  1.00  0.00    -0.308 C  
HETATM    6  C   UNL     1     -10.538  18.552  67.774  1.00  0.00    -0.422 C  
HETATM    7  N   UNL     1     -11.177  16.185  70.456  1.00  0.00    -0.377 NA 
HETATM    8  H2  UNL     1     -10.688  16.583  69.655  1.00  0.00     0.000 HD 
HETATM    9  H1  UNL     1     -11.666  15.786  71.258  1.00  0.00     0.000 HD 
ENDROOT
BRANCH   6  10
HETATM   10  C   UNL     1      -9.917  19.181  66.518  1.00  0.00    -0.448 C  
HETATM   11  C   UNL     1      -9.040  20.303  66.876  1.00  0.00    -0.328 C  
HETATM   12  N   UNL     1      -8.345  21.186  67.159  1.00  0.00     0.001 NA 
ENDBRANCH   6  10
TORSDOF 1
ENDMDL
MODEL      148
REMARK 921   NORMALIZED FREE ENERGY PREDICTED BY IDOCK:   -2.19 KCAL/MOL
REMARK 922        TOTAL FREE ENERGY PREDICTED BY IDOCK:   -2.43 KCAL/MOL
REMARK 923 INTER-LIGAND FREE ENERGY PREDICTED BY IDOCK:   -2.39 KCAL/MOL
REMARK 924 INTRA-LIGAND FREE ENERGY PREDICTED BY IDOCK:   -0.05 KCAL/MOL
REMARK 927      BINDING AFFINITY PREDICTED BY RF-SCORE:    0.00 PKD
ROOT
HETATM    1 BR   UNL     1     -12.701   7.914  71.271  1.00  0.00    -0.204 Br 
HETATM    2  C   UNL     1     -11.667   6.473  70.452  1.00  0.00    -0.375 C  
HETATM    3  C   UNL     1     -10.538   5.967  71.355  1.00  0.00    -0.246 C  
HETATM    4 BR   UNL     1      -9.571   4.570  70.294  1.00  0.00    -0.280 Br 
HETATM    5  C   UNL     1     -11.145   5.235  72.540  1.00  0.00    -0.229 C  
HETATM    6  C   UNL     1      -9.501   7.008  71.814  1.00  0.00    -0.157 C  
HETATM    7  N   UNL     1     -11.649   4.627  73.524  1.00  0.00    -0.351 NA 
HETATM    8  H2  UNL     1     -11.241   5.118  72.728  1.00  0.00     0.000 HD 
HETATM    9  H1  UNL     1     -12.056   4.135  74.319  1.00  0.00     0.000 HD 
ENDROOT
BRANCH   6  10
HETATM   10  C   UNL     1      -8.890   7.856  70.689  1.00  0.00    -0.140 C  
HETATM   11  C   UNL     1      -7.884   8.784  71.222  1.00  0.00    -0.134 C  
HETATM   12  N   UNL     1      -7.088   9.513  71.644  1.00  0.00    -0.270 NA 
ENDBRANCH   6  10
TORSDOF 1
ENDMDL
MODEL      149
REMARK 921   NORMALIZED FREE ENERGY PREDICTED BY IDOCK:   -2.18 KCAL/MOL
REMARK 922        TOTAL FREE ENERGY PREDICTED BY IDOCK:   -2.43 KCAL/MOL
REMARK 923 INTER-LIGAND FREE ENERGY PREDICTED BY IDOCK:   -2.32 KCAL/MOL
REMARK 924 INTRA-LIGAND FREE ENERGY PREDICTED BY IDOCK:   -0.10 KCAL/MOL
REMARK 927      BINDING AFFINITY PREDICTED BY RF-SCORE:    0.00 PKD
ROOT
HETATM    1 BR   UNL     1     -11.849   7.268  71.069  1.00  0.00    -0.356 Br 
HETATM    2  C   UNL     1     -10.280   7.997  70.160  1.00  0.00    -0.203 C  
HETATM    3  C   UNL     1      -9.688   7.027  69.132  1.00  0.00    -0.156 C  
HETATM    4 BR   UNL     1      -8.062   7.936  68.394  1.00  0.00    -0.124 Br 
HETATM    5  C   UNL     1     -10.652   6.899  67.964  1.00  0.00    -0.222 C  
HETATM    6  C   UNL     1      -9.256   5.645  69.654  1.00  0.00    -0.163 C  
HETATM    7  N   UNL     1     -11.451   6.793  66.994  1.00  0.00    -0.716 NA 
HETATM    8  H2  UNL     1     -10.804   6.879  67.778  1.00  0.00     0.000 HD 
HETATM    9  H1  UNL     1     -12.097   6.707  66.210  1.00  0.00     0.000 HD 
ENDROOT
BRANCH   6  10
HETATM   10  C   UNL     1      -8.343   5.673  70.888  1.00  0.00    -0.124 C  
HETATM   11  C   UNL     1      -9.000   5.040  72.038  1.00  0.00    -0.132 C  
HETATM   12  N   UNL     1      -9.519   4.537  72.944  1.00  0.00    -0.129 NA 
ENDBRANCH   6  10
TORSDOF 1
ENDMDL
MODEL      150
REMARK 921   NORMALIZED FREE ENERGY PREDICTED BY IDOCK:   -2.18 KCAL/MOL
REMARK 922        TOTAL FREE ENERGY PREDICTED BY IDOCK:   -2.43 KCAL/MOL
REMARK 923 INTER-LIGAND FREE ENERGY PREDICTED BY IDOCK:   -2.32 KCAL/MOL
REMARK 924 INTRA-LIGAND FREE ENERGY PREDICTED BY IDOCK:   -0.10 KCAL/MOL
REMARK 927      BINDING AFFINITY PREDICTED BY RF-SCORE:    0.00 PKD
ROOT
HETATM    1 BR   UNL     1     -11.274   4.366  73.312  1.00  0.00    -0.324 Br 
HETATM    2  C   UNL     1     -10.641   6.211  73.419  1.00  0.00    -0.269 C  
HETATM    3  C   UNL     1     -10.094   6.727  72.083  1.00  0.00    -0.181 C  
HETATM    4 BR   UNL     1      -9.433   8.583  72.443  1.00  0.00    -0.304 Br 
HETATM    5  C   UNL     1     -11.248   6.885  71.106  1.00  0.00    -0.274 C  
HETATM    6  C   UNL     1      -8.937   5.930  71.455  1.00  0.00    -0.147 C  
HETATM    7  N   UNL     1     -12.205   7.017  70.296  1.00  0.00    -0.622 NA 
HETATM    8  H2  UNL     1     -11.431   6.910  70.952  1.00  0.00     0.000 HD 
HETATM    9  H1  UNL     1     -12.979   7.123  69.641  1.00  0.00     0.000 HD 
ENDROOT
BRANCH   6  10
HETATM   10  C   UNL     1      -7.756   5.650  72.396  1.00  0.00    -0.102 C  
HETATM   11  C   UNL     1      -7.373   4.234  72.345  1.00  0.00    -0.068 C  
HETATM   12  N   UNL     1      -7.069   3.116  72.302  1.00  0.00    -0.034 NA 
ENDBRANCH   6  10
TORSDOF 1
ENDMDL
MODEL      151
REMARK 921   NORMALIZED FREE ENERGY PREDICTED BY IDOCK:   -2.17 KCAL/MOL
REMARK 922        TOTAL FREE ENERGY PREDICTED BY IDOCK:   -2.42 KCAL/MOL
REMARK 923 INTER-LIGAND FREE ENERGY PREDICTED BY IDOCK:   -2.37 KCAL/MOL
REMARK 924 INTRA-LIGAND FREE ENERGY PREDICTED BY IDOCK:   -0.05 KCAL/MOL
REMARK 927      BINDING AFFINITY PREDICTED BY RF-SCORE:    0.00 PKD
ROOT
HETATM    1 BR   UNL     1     -10.114   4.983  73.959  1.00  0.00    -0.267 Br 
HETATM    2  C   UNL     1      -9.893   4.870  72.021  1.00  0.00    -0.177 C  
HETATM    3  C   UNL     1      -9.794   6.247  71.356  1.00  0.00    -0.173 C  
HETATM    4 BR   UNL     1      -9.660   5.896  69.388  1.00  0.00    -0.183 Br 
HETATM    5  C   UNL     1      -8.475   6.891  71.748  1.00  0.00    -0.115 C  
HETATM    6  C   UNL     1     -10.974   7.210  71.580  1.00  0.00    -0.255 C  
HETATM    7  N   UNL     1      -7.380   7.425  72.074  1.00  0.00    -0.071 NA 
HETATM    8  H2  UNL     1      -8.266   6.993  71.811  1.00  0.00     0.000 HD 
HETATM    9  H1  UNL     1      -6.494   7.857  72.338  1.00  0.00     0.000 HD 
ENDROOT
BRANCH   6  10
HETATM   10  C   UNL     1     -12.360   6.618  71.286  1.00  0.00    -0.329 C  
HETATM   11  C   UNL     1     -13.420   7.567  71.650  1.00  0.00    -0.365 C  
HETATM   12  N   UNL     1     -14.256   8.318  71.935  1.00  0.00    -0.435 NA 
ENDBRANCH   6  10
TORSDOF 1
ENDMDL
MODEL      152
REMARK 921   NORMALIZED FREE ENERGY PREDICTED BY IDOCK:   -2.17 KCAL/MOL
REMARK 922        TOTAL FREE ENERGY PREDICTED BY IDOCK:   -2.41 KCAL/MOL
REMARK 923 INTER-LIGAND FREE ENERGY PREDICTED BY IDOCK:   -2.36 KCAL/MOL
REMARK 924 INTRA-LIGAND FREE ENERGY PREDICTED BY IDOCK:   -0.06 KCAL/MOL
REMARK 927      BINDING AFFINITY PREDICTED BY RF-SCORE:    0.00 PKD
ROOT
HETATM    1 BR   UNL     1     -11.051  14.111  65.168  1.00  0.00    -0.374 Br 
HETATM    2  C   UNL     1      -9.549  13.625  66.319  1.00  0.00    -0.239 C  
HETATM    3  C   UNL     1      -9.507  14.443  67.614  1.00  0.00    -0.214 C  
HETATM    4 BR   UNL     1      -7.861  13.845  68.587  1.00  0.00    -0.085 Br 
HETATM    5  C   UNL     1     -10.676  14.032  68.494  1.00  0.00    -0.256 C  
HETATM    6  C   UNL     1      -9.433  15.973  67.464  1.00  0.00    -0.223 C  
HETATM    7  N   UNL     1     -11.646  13.691  69.225  1.00  0.00    -0.291 NA 
HETATM    8  H2  UNL     1     -10.861  13.966  68.634  1.00  0.00     0.000 HD 
HETATM    9  H1  UNL     1     -12.430  13.415  69.816  1.00  0.00     0.000 HD 
ENDROOT
BRANCH   6  10
HETATM   10  C   UNL     1      -8.329  16.480  66.525  1.00  0.00    -0.327 C  
HETATM   11  C   UNL     1      -7.337  17.271  67.265  1.00  0.00    -0.164 C  
HETATM   12  N   UNL     1      -6.554  17.892  67.851  1.00  0.00    -0.185 NA 
ENDBRANCH   6  10
TORSDOF 1
ENDMDL
MODEL      153
REMARK 921   NORMALIZED FREE ENERGY PREDICTED BY IDOCK:   -2.16 KCAL/MOL
REMARK 922        TOTAL FREE ENERGY PREDICTED BY IDOCK:   -2.40 KCAL/MOL
REMARK 923 INTER-LIGAND FREE ENERGY PREDICTED BY IDOCK:   -2.35 KCAL/MOL
REMARK 924 INTRA-LIGAND FREE ENERGY PREDICTED BY IDOCK:   -0.05 KCAL/MOL
REMARK 927      BINDING AFFINITY PREDICTED BY RF-SCORE:    0.00 PKD
ROOT
HETATM    1 BR   UNL     1      -9.014  16.334  67.463  1.00  0.00    -0.197 Br 
HETATM    2  C   UNL     1      -9.298  14.852  66.221  1.00  0.00    -0.296 C  
HETATM    3  C   UNL     1      -9.951  13.638  66.890  1.00  0.00    -0.260 C  
HETATM    4 BR   UNL     1     -10.067  12.228  65.471  1.00  0.00    -0.276 Br 
HETATM    5  C   UNL     1     -11.388  13.983  67.243  1.00  0.00    -0.330 C  
HETATM    6  C   UNL     1      -9.211  13.030  68.095  1.00  0.00    -0.212 C  
HETATM    7  N   UNL     1     -12.581  14.270  67.536  1.00  0.00    -0.409 NA 
HETATM    8  H2  UNL     1     -11.616  14.038  67.299  1.00  0.00     0.000 HD 
HETATM    9  H1  UNL     1     -13.546  14.502  67.773  1.00  0.00     0.000 HD 
ENDROOT
BRANCH   6  10
HETATM   10  C   UNL     1      -7.726  12.721  67.856  1.00  0.00    -0.143 C  
HETATM   11  C   UNL     1      -7.254  11.682  68.780  1.00  0.00    -0.116 C  
HETATM   12  N   UNL     1      -6.883  10.860  69.508  1.00  0.00    -0.111 NA 
ENDBRANCH   6  10
TORSDOF 1
ENDMDL
MODEL      154
REMARK 921   NORMALIZED FREE ENERGY PREDICTED BY IDOCK:   -2.16 KCAL/MOL
REMARK 922        TOTAL FREE ENERGY PREDICTED BY IDOCK:   -2.40 KCAL/MOL
REMARK 923 INTER-LIGAND FREE ENERGY PREDICTED BY IDOCK:   -2.32 KCAL/MOL
REMARK 924 INTRA-LIGAND FREE ENERGY PREDICTED BY IDOCK:   -0.08 KCAL/MOL
REMARK 927      BINDING AFFINITY PREDICTED BY RF-SCORE:    0.00 PKD
ROOT
HETATM    1 BR   UNL     1      -6.768  18.087  65.740  1.00  0.00    -0.229 Br 
HETATM    2  C   UNL     1      -8.596  17.634  66.261  1.00  0.00    -0.189 C  
HETATM    3  C   UNL     1      -8.738  17.387  67.767  1.00  0.00    -0.232 C  
HETATM    4 BR   UNL     1     -10.649  16.862  68.059  1.00  0.00    -0.369 Br 
HETATM    5  C   UNL     1      -8.558  18.705  68.502  1.00  0.00    -0.340 C  
HETATM    6  C   UNL     1      -7.851  16.284  68.374  1.00  0.00    -0.168 C  
HETATM    7  N   UNL     1      -8.409  19.799  69.112  1.00  0.00    -0.101 NA 
HETATM    8  H2  UNL     1      -8.529  18.914  68.619  1.00  0.00     0.000 HD 
HETATM    9  H1  UNL     1      -8.288  20.683  69.605  1.00  0.00     0.000 HD 
ENDROOT
BRANCH   6  10
HETATM   10  C   UNL     1      -7.906  14.934  67.645  1.00  0.00    -0.189 C  
HETATM   11  C   UNL     1      -6.577  14.309  67.605  1.00  0.00    -0.153 C  
HETATM   12  N   UNL     1      -5.529  13.815  67.576  1.00  0.00    -0.351 NA 
ENDBRANCH   6  10
TORSDOF 1
ENDMDL
MODEL      155
REMARK 921   NORMALIZED FREE ENERGY PREDICTED BY IDOCK:   -2.15 KCAL/MOL
REMARK 922        TOTAL FREE ENERGY PREDICTED BY IDOCK:   -2.39 KCAL/MOL
REMARK 923 INTER-LIGAND FREE ENERGY PREDICTED BY IDOCK:   -2.27 KCAL/MOL
REMARK 924 INTRA-LIGAND FREE ENERGY PREDICTED BY IDOCK:   -0.12 KCAL/MOL
REMARK 927      BINDING AFFINITY PREDICTED BY RF-SCORE:    0.00 PKD
ROOT
HETATM    1 BR   UNL     1      -8.297   8.096  72.236  1.00  0.00    -0.230 Br 
HETATM    2  C   UNL     1     -10.249   8.187  72.283  1.00  0.00    -0.278 C  
HETATM    3  C   UNL     1     -10.912   7.118  71.409  1.00  0.00    -0.234 C  
HETATM    4 BR   UNL     1     -12.883   7.449  71.540  1.00  0.00    -0.412 Br 
HETATM    5  C   UNL     1     -10.682   5.754  72.039  1.00  0.00    -0.233 C  
HETATM    6  C   UNL     1     -10.535   7.113  69.916  1.00  0.00    -0.237 C  
HETATM    7  N   UNL     1     -10.492   4.622  72.562  1.00  0.00    -0.198 NA 
HETATM    8  H2  UNL     1     -10.646   5.537  72.139  1.00  0.00     0.000 HD 
HETATM    9  H1  UNL     1     -10.338   3.707  72.985  1.00  0.00     0.000 HD 
ENDROOT
BRANCH   6  10
HETATM   10  C   UNL     1     -10.659   8.472  69.212  1.00  0.00    -0.193 C  
HETATM   11  C   UNL     1      -9.381   8.860  68.600  1.00  0.00    -0.140 C  
HETATM   12  N   UNL     1      -8.373   9.164  68.115  1.00  0.00    -0.120 NA 
ENDBRANCH   6  10
TORSDOF 1
ENDMDL
MODEL      156
REMARK 921   NORMALIZED FREE ENERGY PREDICTED BY IDOCK:   -2.13 KCAL/MOL
REMARK 922        TOTAL FREE ENERGY PREDICTED BY IDOCK:   -2.37 KCAL/MOL
REMARK 923 INTER-LIGAND FREE ENERGY PREDICTED BY IDOCK:   -2.32 KCAL/MOL
REMARK 924 INTRA-LIGAND FREE ENERGY PREDICTED BY IDOCK:   -0.05 KCAL/MOL
REMARK 927      BINDING AFFINITY PREDICTED BY RF-SCORE:    0.00 PKD
ROOT
HETATM    1 BR   UNL     1     -10.328   4.844  66.445  1.00  0.00    -0.317 Br 
HETATM    2  C   UNL     1     -10.754   6.704  66.864  1.00  0.00    -0.331 C  
HETATM    3  C   UNL     1      -9.762   7.330  67.850  1.00  0.00    -0.140 C  
HETATM    4 BR   UNL     1     -10.432   9.186  68.196  1.00  0.00    -0.241 Br 
HETATM    5  C   UNL     1      -8.420   7.502  67.158  1.00  0.00    -0.121 C  
HETATM    6  C   UNL     1      -9.603   6.628  69.211  1.00  0.00    -0.145 C  
HETATM    7  N   UNL     1      -7.306   7.644  66.584  1.00  0.00    -0.086 NA 
HETATM    8  H2  UNL     1      -8.207   7.529  67.048  1.00  0.00     0.000 HD 
HETATM    9  H1  UNL     1      -6.406   7.758  66.119  1.00  0.00     0.000 HD 
ENDROOT
BRANCH   6  10
HETATM   10  C   UNL     1     -10.918   6.339  69.950  1.00  0.00    -0.435 C  
HETATM   11  C   UNL     1     -11.006   7.128  71.185  1.00  0.00    -0.248 C  
HETATM   12  N   UNL     1     -11.075   7.754  72.159  1.00  0.00    -0.260 NA 
ENDBRANCH   6  10
TORSDOF 1
ENDMDL
MODEL      157
REMARK 921   NORMALIZED FREE ENERGY PREDICTED BY IDOCK:   -2.12 KCAL/MOL
REMARK 922        TOTAL FREE ENERGY PREDICTED BY IDOCK:   -2.36 KCAL/MOL
REMARK 923 INTER-LIGAND FREE ENERGY PREDICTED BY IDOCK:   -2.26 KCAL/MOL
REMARK 924 INTRA-LIGAND FREE ENERGY PREDICTED BY IDOCK:   -0.10 KCAL/MOL
REMARK 927      BINDING AFFINITY PREDICTED BY RF-SCORE:    0.00 PKD
ROOT
HETATM    1 BR   UNL     1     -12.075  14.682  66.096  1.00  0.00    -0.134 Br 
HETATM    2  C   UNL     1     -12.007  15.450  67.891  1.00  0.00     0.071 C  
HETATM    3  C   UNL     1     -10.689  15.150  68.613  1.00  0.00    -0.239 C  
HETATM    4 BR   UNL     1     -10.870  15.950  70.441  1.00  0.00    -0.279 Br 
HETATM    5  C   UNL     1      -9.569  15.924  67.937  1.00  0.00    -0.215 C  
HETATM    6  C   UNL     1     -10.316  13.666  68.785  1.00  0.00    -0.182 C  
HETATM    7  N   UNL     1      -8.640  16.566  67.376  1.00  0.00    -0.176 NA 
HETATM    8  H2  UNL     1      -9.391  16.047  67.829  1.00  0.00     0.000 HD 
HETATM    9  H1  UNL     1      -7.889  17.086  66.922  1.00  0.00     0.000 HD 
ENDROOT
BRANCH   6  10
HETATM   10  C   UNL     1     -11.420  12.786  69.389  1.00  0.00    -0.321 C  
HETATM   11  C   UNL     1     -11.613  11.569  68.590  1.00  0.00    -0.313 C  
HETATM   12  N   UNL     1     -11.761  10.608  67.960  1.00  0.00    -0.471 NA 
ENDBRANCH   6  10
TORSDOF 1
ENDMDL
MODEL      158
REMARK 921   NORMALIZED FREE ENERGY PREDICTED BY IDOCK:   -2.12 KCAL/MOL
REMARK 922        TOTAL FREE ENERGY PREDICTED BY IDOCK:   -2.36 KCAL/MOL
REMARK 923 INTER-LIGAND FREE ENERGY PREDICTED BY IDOCK:   -2.26 KCAL/MOL
REMARK 924 INTRA-LIGAND FREE ENERGY PREDICTED BY IDOCK:   -0.10 KCAL/MOL
REMARK 927      BINDING AFFINITY PREDICTED BY RF-SCORE:    0.00 PKD
ROOT
HETATM    1 BR   UNL     1     -10.968  11.280  66.883  1.00  0.00    -0.336 Br 
HETATM    2  C   UNL     1      -9.975  10.136  65.649  1.00  0.00    -0.279 C  
HETATM    3  C   UNL     1      -9.279   8.968  66.356  1.00  0.00    -0.188 C  
HETATM    4 BR   UNL     1      -8.265   7.991  64.931  1.00  0.00    -0.109 Br 
HETATM    5  C   UNL     1     -10.334   7.992  66.851  1.00  0.00    -0.338 C  
HETATM    6  C   UNL     1      -8.284   9.329  67.474  1.00  0.00    -0.114 C  
HETATM    7  N   UNL     1     -11.209   7.182  67.261  1.00  0.00    -0.586 NA 
HETATM    8  H2  UNL     1     -10.501   7.837  66.929  1.00  0.00     0.000 HD 
HETATM    9  H1  UNL     1     -11.917   6.527  67.594  1.00  0.00     0.000 HD 
ENDROOT
BRANCH   6  10
HETATM   10  C   UNL     1      -7.226  10.374  67.089  1.00  0.00    -0.091 C  
HETATM   11  C   UNL     1      -7.389  11.598  67.883  1.00  0.00    -0.096 C  
HETATM   12  N   UNL     1      -7.517  12.563  68.513  1.00  0.00    -0.121 NA 
ENDBRANCH   6  10
TORSDOF 1
ENDMDL
MODEL      159
REMARK 921   NORMALIZED FREE ENERGY PREDICTED BY IDOCK:   -2.11 KCAL/MOL
REMARK 922        TOTAL FREE ENERGY PREDICTED BY IDOCK:   -2.35 KCAL/MOL
REMARK 923 INTER-LIGAND FREE ENERGY PREDICTED BY IDOCK:   -2.24 KCAL/MOL
REMARK 924 INTRA-LIGAND FREE ENERGY PREDICTED BY IDOCK:   -0.12 KCAL/MOL
REMARK 927      BINDING AFFINITY PREDICTED BY RF-SCORE:    0.00 PKD
ROOT
HETATM    1 BR   UNL     1      -7.686   3.477  67.438  1.00  0.00    -0.078 Br 
HETATM    2  C   UNL     1      -9.110   4.407  68.400  1.00  0.00    -0.124 C  
HETATM    3  C   UNL     1      -9.682   5.590  67.611  1.00  0.00    -0.129 C  
HETATM    4 BR   UNL     1     -11.049   6.435  68.806  1.00  0.00    -0.359 Br 
HETATM    5  C   UNL     1     -10.455   5.058  66.416  1.00  0.00    -0.300 C  
HETATM    6  C   UNL     1      -8.686   6.686  67.189  1.00  0.00    -0.111 C  
HETATM    7  N   UNL     1     -11.097   4.616  65.424  1.00  0.00    -0.958 NA 
HETATM    8  H2  UNL     1     -10.578   4.973  66.226  1.00  0.00     0.000 HD 
HETATM    9  H1  UNL     1     -11.616   4.259  64.622  1.00  0.00     0.000 HD 
ENDROOT
BRANCH   6  10
HETATM   10  C   UNL     1      -7.801   7.229  68.320  1.00  0.00    -0.122 C  
HETATM   11  C   UNL     1      -6.381   7.000  68.027  1.00  0.00    -0.043 C  
HETATM   12  N   UNL     1      -5.260   6.821  67.793  1.00  0.00    -0.011 NA 
ENDBRANCH   6  10
TORSDOF 1
ENDMDL
MODEL      160
REMARK 921   NORMALIZED FREE ENERGY PREDICTED BY IDOCK:   -2.10 KCAL/MOL
REMARK 922        TOTAL FREE ENERGY PREDICTED BY IDOCK:   -2.34 KCAL/MOL
REMARK 923 INTER-LIGAND FREE ENERGY PREDICTED BY IDOCK:   -2.28 KCAL/MOL
REMARK 924 INTRA-LIGAND FREE ENERGY PREDICTED BY IDOCK:   -0.07 KCAL/MOL
REMARK 927      BINDING AFFINITY PREDICTED BY RF-SCORE:    0.00 PKD
ROOT
HETATM    1 BR   UNL     1      -6.110  11.022  66.719  1.00  0.00    -0.118 Br 
HETATM    2  C   UNL     1      -7.596   9.771  66.507  1.00  0.00    -0.098 C  
HETATM    3  C   UNL     1      -8.936  10.363  66.955  1.00  0.00    -0.139 C  
HETATM    4 BR   UNL     1     -10.284   8.898  66.733  1.00  0.00    -0.327 Br 
HETATM    5  C   UNL     1      -9.346  11.450  65.975  1.00  0.00    -0.217 C  
HETATM    6  C   UNL     1      -9.021  10.862  68.409  1.00  0.00    -0.154 C  
HETATM    7  N   UNL     1      -9.687  12.351  65.161  1.00  0.00    -0.451 NA 
HETATM    8  H2  UNL     1      -9.411  11.622  65.819  1.00  0.00     0.000 HD 
HETATM    9  H1  UNL     1      -9.963  13.080  64.503  1.00  0.00     0.000 HD 
ENDROOT
BRANCH   6  10
HETATM   10  C   UNL     1      -8.548   9.857  69.469  1.00  0.00    -0.194 C  
HETATM   11  C   UNL     1      -9.646   9.502  70.377  1.00  0.00    -0.269 C  
HETATM   12  N   UNL     1     -10.514   9.221  71.092  1.00  0.00    -0.309 NA 
ENDBRANCH   6  10
TORSDOF 1
ENDMDL
MODEL      161
REMARK 921   NORMALIZED FREE ENERGY PREDICTED BY IDOCK:   -2.08 KCAL/MOL
REMARK 922        TOTAL FREE ENERGY PREDICTED BY IDOCK:   -2.32 KCAL/MOL
REMARK 923 INTER-LIGAND FREE ENERGY PREDICTED BY IDOCK:   -2.22 KCAL/MOL
REMARK 924 INTRA-LIGAND FREE ENERGY PREDICTED BY IDOCK:   -0.10 KCAL/MOL
REMARK 927      BINDING AFFINITY PREDICTED BY RF-SCORE:    0.00 PKD
ROOT
HETATM    1 BR   UNL     1     -10.371   6.362  72.129  1.00  0.00    -0.219 Br 
HETATM    2  C   UNL     1     -10.980   8.215  72.250  1.00  0.00    -0.332 C  
HETATM    3  C   UNL     1     -11.777   8.656  71.018  1.00  0.00    -0.278 C  
HETATM    4 BR   UNL     1     -12.222  10.587  71.316  1.00  0.00    -0.452 Br 
HETATM    5  C   UNL     1     -13.110   7.926  71.005  1.00  0.00     0.034 C  
HETATM    6  C   UNL     1     -11.066   8.544  69.657  1.00  0.00    -0.018 C  
HETATM    7  N   UNL     1     -14.216   7.320  70.994  1.00  0.00    -0.504 NA 
HETATM    8  H2  UNL     1     -13.321   7.810  71.003  1.00  0.00     0.000 HD 
HETATM    9  H1  UNL     1     -15.110   6.830  70.986  1.00  0.00     0.000 HD 
ENDROOT
BRANCH   6  10
HETATM   10  C   UNL     1      -9.672   9.185  69.598  1.00  0.00    -0.183 C  
HETATM   11  C   UNL     1      -8.691   8.250  69.033  1.00  0.00    -0.143 C  
HETATM   12  N   UNL     1      -7.918   7.512  68.585  1.00  0.00    -0.121 NA 
ENDBRANCH   6  10
TORSDOF 1
ENDMDL
MODEL      162
REMARK 921   NORMALIZED FREE ENERGY PREDICTED BY IDOCK:   -2.07 KCAL/MOL
REMARK 922        TOTAL FREE ENERGY PREDICTED BY IDOCK:   -2.31 KCAL/MOL
REMARK 923 INTER-LIGAND FREE ENERGY PREDICTED BY IDOCK:   -2.20 KCAL/MOL
REMARK 924 INTRA-LIGAND FREE ENERGY PREDICTED BY IDOCK:   -0.10 KCAL/MOL
REMARK 927      BINDING AFFINITY PREDICTED BY RF-SCORE:    0.00 PKD
ROOT
HETATM    1 BR   UNL     1     -10.715   7.212  67.187  1.00  0.00    -0.395 Br 
HETATM    2  C   UNL     1      -9.198   7.975  66.221  1.00  0.00    -0.184 C  
HETATM    3  C   UNL     1      -8.284   8.812  67.121  1.00  0.00    -0.104 C  
HETATM    4 BR   UNL     1      -6.863   9.555  65.920  1.00  0.00    -0.089 Br 
HETATM    5  C   UNL     1      -7.561   7.887  68.087  1.00  0.00    -0.116 C  
HETATM    6  C   UNL     1      -8.936   9.994  67.862  1.00  0.00    -0.131 C  
HETATM    7  N   UNL     1      -6.962   7.120  68.888  1.00  0.00    -0.075 NA 
HETATM    8  H2  UNL     1      -7.447   7.741  68.240  1.00  0.00     0.000 HD 
HETATM    9  H1  UNL     1      -6.477   6.499  69.537  1.00  0.00     0.000 HD 
ENDROOT
BRANCH   6  10
HETATM   10  C   UNL     1      -9.757  10.941  66.976  1.00  0.00    -0.203 C  
HETATM   11  C   UNL     1     -11.084  11.181  67.558  1.00  0.00    -0.291 C  
HETATM   12  N   UNL     1     -12.130  11.371  68.021  1.00  0.00    -0.615 NA 
ENDBRANCH   6  10
TORSDOF 1
ENDMDL
MODEL      163
REMARK 921   NORMALIZED FREE ENERGY PREDICTED BY IDOCK:   -2.06 KCAL/MOL
REMARK 922        TOTAL FREE ENERGY PREDICTED BY IDOCK:   -2.30 KCAL/MOL
REMARK 923 INTER-LIGAND FREE ENERGY PREDICTED BY IDOCK:   -2.25 KCAL/MOL
REMARK 924 INTRA-LIGAND FREE ENERGY PREDICTED BY IDOCK:   -0.05 KCAL/MOL
REMARK 927      BINDING AFFINITY PREDICTED BY RF-SCORE:    0.00 PKD
ROOT
HETATM    1 BR   UNL     1      -7.236   6.450  69.413  1.00  0.00    -0.088 Br 
HETATM    2  C   UNL     1      -8.330   5.451  68.139  1.00  0.00    -0.098 C  
HETATM    3  C   UNL     1      -9.470   6.290  67.553  1.00  0.00    -0.112 C  
HETATM    4 BR   UNL     1     -10.497   5.057  66.354  1.00  0.00    -0.309 Br 
HETATM    5  C   UNL     1      -8.880   7.352  66.639  1.00  0.00    -0.143 C  
HETATM    6  C   UNL     1     -10.463   6.906  68.555  1.00  0.00    -0.229 C  
HETATM    7  N   UNL     1      -8.390   8.233  65.881  1.00  0.00    -0.121 NA 
HETATM    8  H2  UNL     1      -8.786   7.521  66.494  1.00  0.00     0.000 HD 
HETATM    9  H1  UNL     1      -7.995   8.946  65.268  1.00  0.00     0.000 HD 
ENDROOT
BRANCH   6  10
HETATM   10  C   UNL     1     -11.051   5.919  69.574  1.00  0.00    -0.403 C  
HETATM   11  C   UNL     1     -11.888   6.621  70.556  1.00  0.00    -0.370 C  
HETATM   12  N   UNL     1     -12.550   7.176  71.329  1.00  0.00    -0.381 NA 
ENDBRANCH   6  10
TORSDOF 1
ENDMDL
MODEL      164
REMARK 921   NORMALIZED FREE ENERGY PREDICTED BY IDOCK:   -2.06 KCAL/MOL
REMARK 922        TOTAL FREE ENERGY PREDICTED BY IDOCK:   -2.30 KCAL/MOL
REMARK 923 INTER-LIGAND FREE ENERGY PREDICTED BY IDOCK:   -2.18 KCAL/MOL
REMARK 924 INTRA-LIGAND FREE ENERGY PREDICTED BY IDOCK:   -0.12 KCAL/MOL
REMARK 927      BINDING AFFINITY PREDICTED BY RF-SCORE:    0.00 PKD
ROOT
HETATM    1 BR   UNL     1      -8.211   7.548  70.495  1.00  0.00    -0.120 Br 
HETATM    2  C   UNL     1      -9.023   7.171  68.758  1.00  0.00    -0.128 C  
HETATM    3  C   UNL     1     -10.017   6.006  68.810  1.00  0.00    -0.150 C  
HETATM    4 BR   UNL     1     -10.654   5.746  66.929  1.00  0.00    -0.381 Br 
HETATM    5  C   UNL     1     -11.241   6.437  69.602  1.00  0.00    -0.418 C  
HETATM    6  C   UNL     1      -9.474   4.656  69.312  1.00  0.00    -0.231 C  
HETATM    7  N   UNL     1     -12.256   6.794  70.258  1.00  0.00    -0.599 NA 
HETATM    8  H2  UNL     1     -11.435   6.505  69.727  1.00  0.00     0.000 HD 
HETATM    9  H1  UNL     1     -13.078   7.083  70.789  1.00  0.00     0.000 HD 
ENDROOT
BRANCH   6  10
HETATM   10  C   UNL     1      -8.188   4.177  68.624  1.00  0.00    -0.088 C  
HETATM   11  C   UNL     1      -7.108   3.997  69.603  1.00  0.00    -0.046 C  
HETATM   12  N   UNL     1      -6.258   3.852  70.377  1.00  0.00    -0.022 NA 
ENDBRANCH   6  10
TORSDOF 1
ENDMDL
MODEL      165
REMARK 921   NORMALIZED FREE ENERGY PREDICTED BY IDOCK:   -2.05 KCAL/MOL
REMARK 922        TOTAL FREE ENERGY PREDICTED BY IDOCK:   -2.29 KCAL/MOL
REMARK 923 INTER-LIGAND FREE ENERGY PREDICTED BY IDOCK:   -2.21 KCAL/MOL
REMARK 924 INTRA-LIGAND FREE ENERGY PREDICTED BY IDOCK:   -0.08 KCAL/MOL
REMARK 927      BINDING AFFINITY PREDICTED BY RF-SCORE:    0.00 PKD
ROOT
HETATM    1 BR   UNL     1     -11.692  12.388  67.182  1.00  0.00    -0.362 Br 
HETATM    2  C   UNL     1     -10.420  11.478  66.012  1.00  0.00    -0.252 C  
HETATM    3  C   UNL     1      -9.391  10.649  66.788  1.00  0.00    -0.157 C  
HETATM    4 BR   UNL     1      -8.153   9.883  65.411  1.00  0.00    -0.143 Br 
HETATM    5  C   UNL     1     -10.092   9.456  67.417  1.00  0.00    -0.215 C  
HETATM    6  C   UNL     1      -8.534  11.401  67.822  1.00  0.00    -0.128 C  
HETATM    7  N   UNL     1     -10.674   8.466  67.938  1.00  0.00    -0.461 NA 
HETATM    8  H2  UNL     1     -10.204   9.267  67.516  1.00  0.00     0.000 HD 
HETATM    9  H1  UNL     1     -11.145   7.666  68.360  1.00  0.00     0.000 HD 
ENDROOT
BRANCH   6  10
HETATM   10  C   UNL     1      -7.848  12.670  67.296  1.00  0.00    -0.155 C  
HETATM   11  C   UNL     1      -8.399  13.867  67.944  1.00  0.00    -0.167 C  
HETATM   12  N   UNL     1      -8.833  14.811  68.458  1.00  0.00    -0.171 NA 
ENDBRANCH   6  10
TORSDOF 1
ENDMDL
MODEL      166
REMARK 921   NORMALIZED FREE ENERGY PREDICTED BY IDOCK:   -2.05 KCAL/MOL
REMARK 922        TOTAL FREE ENERGY PREDICTED BY IDOCK:   -2.29 KCAL/MOL
REMARK 923 INTER-LIGAND FREE ENERGY PREDICTED BY IDOCK:   -2.24 KCAL/MOL
REMARK 924 INTRA-LIGAND FREE ENERGY PREDICTED BY IDOCK:   -0.05 KCAL/MOL
REMARK 927      BINDING AFFINITY PREDICTED BY RF-SCORE:    0.00 PKD
ROOT
HETATM    1 BR   UNL     1      -7.473   7.632  69.402  1.00  0.00    -0.091 Br 
HETATM    2  C   UNL     1      -7.222   9.040  68.071  1.00  0.00    -0.080 C  
HETATM    3  C   UNL     1      -7.744  10.401  68.544  1.00  0.00    -0.101 C  
HETATM    4 BR   UNL     1      -7.465  11.658  67.010  1.00  0.00    -0.134 Br 
HETATM    5  C   UNL     1      -6.848  10.911  69.661  1.00  0.00    -0.137 C  
HETATM    6  C   UNL     1      -9.229  10.471  68.944  1.00  0.00    -0.188 C  
HETATM    7  N   UNL     1      -6.105  11.334  70.587  1.00  0.00    -0.382 NA 
HETATM    8  H2  UNL     1      -6.706  10.992  69.838  1.00  0.00     0.000 HD 
HETATM    9  H1  UNL     1      -5.503  11.677  71.337  1.00  0.00     0.000 HD 
ENDROOT
BRANCH   6  10
HETATM   10  C   UNL     1     -10.208   9.901  67.907  1.00  0.00    -0.234 C  
HETATM   11  C   UNL     1     -11.064  10.962  67.360  1.00  0.00    -0.307 C  
HETATM   12  N   UNL     1     -11.738  11.800  66.927  1.00  0.00    -0.584 NA 
ENDBRANCH   6  10
TORSDOF 1
ENDMDL
MODEL      167
REMARK 921   NORMALIZED FREE ENERGY PREDICTED BY IDOCK:   -2.03 KCAL/MOL
REMARK 922        TOTAL FREE ENERGY PREDICTED BY IDOCK:   -2.27 KCAL/MOL
REMARK 923 INTER-LIGAND FREE ENERGY PREDICTED BY IDOCK:   -2.20 KCAL/MOL
REMARK 924 INTRA-LIGAND FREE ENERGY PREDICTED BY IDOCK:   -0.07 KCAL/MOL
REMARK 927      BINDING AFFINITY PREDICTED BY RF-SCORE:    0.00 PKD
ROOT
HETATM    1 BR   UNL     1      -9.246  11.265  66.326  1.00  0.00    -0.222 Br 
HETATM    2  C   UNL     1      -8.097   9.826  66.979  1.00  0.00    -0.113 C  
HETATM    3  C   UNL     1      -8.618   8.435  66.601  1.00  0.00    -0.120 C  
HETATM    4 BR   UNL     1      -7.349   7.129  67.434  1.00  0.00    -0.094 Br 
HETATM    5  C   UNL     1      -8.474   8.247  65.100  1.00  0.00    -0.146 C  
HETATM    6  C   UNL     1     -10.038   8.076  67.074  1.00  0.00    -0.350 C  
HETATM    7  N   UNL     1      -8.354   8.090  63.854  1.00  0.00    -0.379 NA 
HETATM    8  H2  UNL     1      -8.451   8.217  64.862  1.00  0.00     0.000 HD 
HETATM    9  H1  UNL     1      -8.257   7.963  62.847  1.00  0.00     0.000 HD 
ENDROOT
BRANCH   6  10
HETATM   10  C   UNL     1     -10.304   8.312  68.568  1.00  0.00    -0.230 C  
HETATM   11  C   UNL     1     -10.983   7.156  69.166  1.00  0.00    -0.113 C  
HETATM   12  N   UNL     1     -11.517   6.241  69.638  1.00  0.00    -0.429 NA 
ENDBRANCH   6  10
TORSDOF 1
ENDMDL
MODEL      168
REMARK 921   NORMALIZED FREE ENERGY PREDICTED BY IDOCK:   -2.01 KCAL/MOL
REMARK 922        TOTAL FREE ENERGY PREDICTED BY IDOCK:   -2.24 KCAL/MOL
REMARK 923 INTER-LIGAND FREE ENERGY PREDICTED BY IDOCK:   -2.16 KCAL/MOL
REMARK 924 INTRA-LIGAND FREE ENERGY PREDICTED BY IDOCK:   -0.08 KCAL/MOL
REMARK 927      BINDING AFFINITY PREDICTED BY RF-SCORE:    0.00 PKD
ROOT
HETATM    1 BR   UNL     1      -9.531   7.404  68.451  1.00  0.00    -0.145 Br 
HETATM    2  C   UNL     1     -10.365   8.928  67.558  1.00  0.00    -0.263 C  
HETATM    3  C   UNL     1      -9.384   9.706  66.676  1.00  0.00    -0.156 C  
HETATM    4 BR   UNL     1     -10.420  11.252  65.935  1.00  0.00    -0.308 Br 
HETATM    5  C   UNL     1      -9.013   8.850  65.476  1.00  0.00    -0.197 C  
HETATM    6  C   UNL     1      -8.130  10.271  67.367  1.00  0.00    -0.110 C  
HETATM    7  N   UNL     1      -8.705   8.139  64.481  1.00  0.00    -0.395 NA 
HETATM    8  H2  UNL     1      -8.954   8.714  65.286  1.00  0.00     0.000 HD 
HETATM    9  H1  UNL     1      -8.456   7.564  63.676  1.00  0.00     0.000 HD 
ENDROOT
BRANCH   6  10
HETATM   10  C   UNL     1      -8.402  11.086  68.640  1.00  0.00    -0.153 C  
HETATM   11  C   UNL     1      -7.383  10.814  69.661  1.00  0.00    -0.103 C  
HETATM   12  N   UNL     1      -6.575  10.601  70.466  1.00  0.00    -0.328 NA 
ENDBRANCH   6  10
TORSDOF 1
ENDMDL
MODEL      169
REMARK 921   NORMALIZED FREE ENERGY PREDICTED BY IDOCK:   -2.01 KCAL/MOL
REMARK 922        TOTAL FREE ENERGY PREDICTED BY IDOCK:   -2.24 KCAL/MOL
REMARK 923 INTER-LIGAND FREE ENERGY PREDICTED BY IDOCK:   -2.19 KCAL/MOL
REMARK 924 INTRA-LIGAND FREE ENERGY PREDICTED BY IDOCK:   -0.05 KCAL/MOL
REMARK 927      BINDING AFFINITY PREDICTED BY RF-SCORE:    0.00 PKD
ROOT
HETATM    1 BR   UNL     1      -9.514   9.618  70.176  1.00  0.00    -0.284 Br 
HETATM    2  C   UNL     1     -10.463   8.180  69.254  1.00  0.00    -0.214 C  
HETATM    3  C   UNL     1      -9.666   7.603  68.079  1.00  0.00    -0.152 C  
HETATM    4 BR   UNL     1     -10.849   6.222  67.240  1.00  0.00    -0.470 Br 
HETATM    5  C   UNL     1      -8.469   6.841  68.623  1.00  0.00    -0.123 C  
HETATM    6  C   UNL     1      -9.244   8.592  66.977  1.00  0.00    -0.187 C  
HETATM    7  N   UNL     1      -7.475   6.209  69.075  1.00  0.00    -0.085 NA 
HETATM    8  H2  UNL     1      -8.279   6.720  68.710  1.00  0.00     0.000 HD 
HETATM    9  H1  UNL     1      -6.672   5.697  69.440  1.00  0.00     0.000 HD 
ENDROOT
BRANCH   6  10
HETATM   10  C   UNL     1     -10.377   9.466  66.421  1.00  0.00    -0.237 C  
HETATM   11  C   UNL     1      -9.839  10.671  65.777  1.00  0.00    -0.241 C  
HETATM   12  N   UNL     1      -9.412  11.620  65.266  1.00  0.00    -0.194 NA 
ENDBRANCH   6  10
TORSDOF 1
ENDMDL
MODEL      170
REMARK 921   NORMALIZED FREE ENERGY PREDICTED BY IDOCK:   -2.00 KCAL/MOL
REMARK 922        TOTAL FREE ENERGY PREDICTED BY IDOCK:   -2.23 KCAL/MOL
REMARK 923 INTER-LIGAND FREE ENERGY PREDICTED BY IDOCK:   -2.13 KCAL/MOL
REMARK 924 INTRA-LIGAND FREE ENERGY PREDICTED BY IDOCK:   -0.10 KCAL/MOL
REMARK 927      BINDING AFFINITY PREDICTED BY RF-SCORE:    0.00 PKD
ROOT
HETATM    1 BR   UNL     1     -10.468   5.607  66.927  1.00  0.00    -0.377 Br 
HETATM    2  C   UNL     1     -10.895   7.499  67.164  1.00  0.00    -0.228 C  
HETATM    3  C   UNL     1      -9.652   8.395  67.128  1.00  0.00    -0.179 C  
HETATM    4 BR   UNL     1     -10.308  10.256  67.472  1.00  0.00    -0.297 Br 
HETATM    5  C   UNL     1      -9.097   8.411  65.713  1.00  0.00    -0.139 C  
HETATM    6  C   UNL     1      -8.548   8.089  68.156  1.00  0.00    -0.126 C  
HETATM    7  N   UNL     1      -8.637   8.424  64.539  1.00  0.00    -0.390 NA 
HETATM    8  H2  UNL     1      -9.009   8.413  65.488  1.00  0.00     0.000 HD 
HETATM    9  H1  UNL     1      -8.265   8.435  63.589  1.00  0.00     0.000 HD 
ENDROOT
BRANCH   6  10
HETATM   10  C   UNL     1      -9.030   7.974  69.610  1.00  0.00    -0.145 C  
HETATM   11  C   UNL     1      -8.490   6.764  70.243  1.00  0.00    -0.135 C  
HETATM   12  N   UNL     1      -8.061   5.810  70.743  1.00  0.00    -0.116 NA 
ENDBRANCH   6  10
TORSDOF 1
ENDMDL
MODEL      171
REMARK 921   NORMALIZED FREE ENERGY PREDICTED BY IDOCK:   -1.99 KCAL/MOL
REMARK 922        TOTAL FREE ENERGY PREDICTED BY IDOCK:   -2.22 KCAL/MOL
REMARK 923 INTER-LIGAND FREE ENERGY PREDICTED BY IDOCK:   -2.15 KCAL/MOL
REMARK 924 INTRA-LIGAND FREE ENERGY PREDICTED BY IDOCK:   -0.07 KCAL/MOL
REMARK 927      BINDING AFFINITY PREDICTED BY RF-SCORE:    0.00 PKD
ROOT
HETATM    1 BR   UNL     1     -10.442   9.544  70.236  1.00  0.00    -0.347 Br 
HETATM    2  C   UNL     1      -9.034   8.721  71.313  1.00  0.00    -0.231 C  
HETATM    3  C   UNL     1      -8.942   7.206  71.108  1.00  0.00    -0.145 C  
HETATM    4 BR   UNL     1      -7.510   6.570  72.355  1.00  0.00    -0.095 Br 
HETATM    5  C   UNL     1      -8.419   6.928  69.708  1.00  0.00    -0.133 C  
HETATM    6  C   UNL     1     -10.215   6.389  71.400  1.00  0.00    -0.228 C  
HETATM    7  N   UNL     1      -7.985   6.698  68.546  1.00  0.00    -0.117 NA 
HETATM    8  H2  UNL     1      -8.336   6.884  69.486  1.00  0.00     0.000 HD 
HETATM    9  H1  UNL     1      -7.634   6.512  67.607  1.00  0.00     0.000 HD 
ENDROOT
BRANCH   6  10
HETATM   10  C   UNL     1     -10.862   6.664  72.765  1.00  0.00    -0.283 C  
HETATM   11  C   UNL     1     -10.890   5.445  73.584  1.00  0.00    -0.272 C  
HETATM   12  N   UNL     1     -10.908   4.483  74.230  1.00  0.00    -0.304 NA 
ENDBRANCH   6  10
TORSDOF 1
ENDMDL
MODEL      172
REMARK 921   NORMALIZED FREE ENERGY PREDICTED BY IDOCK:   -1.98 KCAL/MOL
REMARK 922        TOTAL FREE ENERGY PREDICTED BY IDOCK:   -2.21 KCAL/MOL
REMARK 923 INTER-LIGAND FREE ENERGY PREDICTED BY IDOCK:   -2.15 KCAL/MOL
REMARK 924 INTRA-LIGAND FREE ENERGY PREDICTED BY IDOCK:   -0.06 KCAL/MOL
REMARK 927      BINDING AFFINITY PREDICTED BY RF-SCORE:    0.00 PKD
ROOT
HETATM    1 BR   UNL     1      -7.681   7.002  69.847  1.00  0.00    -0.110 Br 
HETATM    2  C   UNL     1      -8.675   6.714  68.189  1.00  0.00    -0.117 C  
HETATM    3  C   UNL     1      -9.781   5.664  68.338  1.00  0.00    -0.128 C  
HETATM    4 BR   UNL     1     -10.602   5.473  66.520  1.00  0.00    -0.288 Br 
HETATM    5  C   UNL     1     -10.879   6.227  69.226  1.00  0.00    -0.342 C  
HETATM    6  C   UNL     1      -9.347   4.264  68.806  1.00  0.00    -0.216 C  
HETATM    7  N   UNL     1     -11.790   6.693  69.963  1.00  0.00    -0.638 NA 
HETATM    8  H2  UNL     1     -11.053   6.316  69.367  1.00  0.00     0.000 HD 
HETATM    9  H1  UNL     1     -12.526   7.071  70.558  1.00  0.00     0.000 HD 
ENDROOT
BRANCH   6  10
HETATM   10  C   UNL     1      -8.184   3.646  68.016  1.00  0.00    -0.090 C  
HETATM   11  C   UNL     1      -8.617   2.431  67.315  1.00  0.00    -0.108 C  
HETATM   12  N   UNL     1      -8.960   1.473  66.761  1.00  0.00    -0.114 NA 
ENDBRANCH   6  10
TORSDOF 1
ENDMDL
MODEL      173
REMARK 921   NORMALIZED FREE ENERGY PREDICTED BY IDOCK:   -1.97 KCAL/MOL
REMARK 922        TOTAL FREE ENERGY PREDICTED BY IDOCK:   -2.20 KCAL/MOL
REMARK 923 INTER-LIGAND FREE ENERGY PREDICTED BY IDOCK:   -2.12 KCAL/MOL
REMARK 924 INTRA-LIGAND FREE ENERGY PREDICTED BY IDOCK:   -0.09 KCAL/MOL
REMARK 927      BINDING AFFINITY PREDICTED BY RF-SCORE:    0.00 PKD
ROOT
HETATM    1 BR   UNL     1      -7.665   9.612  70.011  1.00  0.00    -0.180 Br 
HETATM    2  C   UNL     1      -9.378   8.874  70.591  1.00  0.00    -0.212 C  
HETATM    3  C   UNL     1      -9.591   7.432  70.120  1.00  0.00    -0.165 C  
HETATM    4 BR   UNL     1     -11.421   6.914  70.748  1.00  0.00    -0.404 Br 
HETATM    5  C   UNL     1      -8.629   6.522  70.867  1.00  0.00    -0.135 C  
HETATM    6  C   UNL     1      -9.528   7.184  68.602  1.00  0.00    -0.140 C  
HETATM    7  N   UNL     1      -7.831   5.767  71.487  1.00  0.00    -0.110 NA 
HETATM    8  H2  UNL     1      -8.477   6.378  70.985  1.00  0.00     0.000 HD 
HETATM    9  H1  UNL     1      -7.186   5.157  71.988  1.00  0.00     0.000 HD 
ENDROOT
BRANCH   6  10
HETATM   10  C   UNL     1     -10.409   8.114  67.756  1.00  0.00    -0.295 C  
HETATM   11  C   UNL     1      -9.698   8.548  66.546  1.00  0.00    -0.260 C  
HETATM   12  N   UNL     1      -9.137   8.887  65.591  1.00  0.00    -0.216 NA 
ENDBRANCH   6  10
TORSDOF 1
ENDMDL
MODEL      174
REMARK 921   NORMALIZED FREE ENERGY PREDICTED BY IDOCK:   -1.95 KCAL/MOL
REMARK 922        TOTAL FREE ENERGY PREDICTED BY IDOCK:   -2.18 KCAL/MOL
REMARK 923 INTER-LIGAND FREE ENERGY PREDICTED BY IDOCK:   -2.06 KCAL/MOL
REMARK 924 INTRA-LIGAND FREE ENERGY PREDICTED BY IDOCK:   -0.12 KCAL/MOL
REMARK 927      BINDING AFFINITY PREDICTED BY RF-SCORE:    0.00 PKD
ROOT
HETATM    1 BR   UNL     1      -7.796   7.255  72.934  1.00  0.00    -0.114 Br 
HETATM    2  C   UNL     1      -8.557   5.486  73.268  1.00  0.00    -0.116 C  
HETATM    3  C   UNL     1      -9.178   4.863  72.014  1.00  0.00    -0.136 C  
HETATM    4 BR   UNL     1      -9.960   3.115  72.601  1.00  0.00    -0.232 Br 
HETATM    5  C   UNL     1      -8.068   4.508  71.038  1.00  0.00    -0.081 C  
HETATM    6  C   UNL     1     -10.293   5.667  71.321  1.00  0.00    -0.289 C  
HETATM    7  N   UNL     1      -7.146   4.214  70.229  1.00  0.00    -0.041 NA 
HETATM    8  H2  UNL     1      -7.892   4.452  70.884  1.00  0.00     0.000 HD 
HETATM    9  H1  UNL     1      -6.401   3.975  69.575  1.00  0.00     0.000 HD 
ENDROOT
BRANCH   6  10
HETATM   10  C   UNL     1     -11.423   6.140  72.248  1.00  0.00    -0.360 C  
HETATM   11  C   UNL     1     -11.544   7.603  72.217  1.00  0.00    -0.322 C  
HETATM   12  N   UNL     1     -11.641   8.758  72.189  1.00  0.00    -0.372 NA 
ENDBRANCH   6  10
TORSDOF 1
ENDMDL
MODEL      175
REMARK 921   NORMALIZED FREE ENERGY PREDICTED BY IDOCK:   -1.93 KCAL/MOL
REMARK 922        TOTAL FREE ENERGY PREDICTED BY IDOCK:   -2.16 KCAL/MOL
REMARK 923 INTER-LIGAND FREE ENERGY PREDICTED BY IDOCK:   -2.11 KCAL/MOL
REMARK 924 INTRA-LIGAND FREE ENERGY PREDICTED BY IDOCK:   -0.05 KCAL/MOL
REMARK 927      BINDING AFFINITY PREDICTED BY RF-SCORE:    0.00 PKD
ROOT
HETATM    1 BR   UNL     1     -11.074   6.629  69.521  1.00  0.00    -0.376 Br 
HETATM    2  C   UNL     1     -11.275   6.326  71.440  1.00  0.00    -0.293 C  
HETATM    3  C   UNL     1      -9.931   6.250  72.171  1.00  0.00    -0.166 C  
HETATM    4 BR   UNL     1     -10.369   5.854  74.085  1.00  0.00    -0.276 Br 
HETATM    5  C   UNL     1      -9.292   7.629  72.174  1.00  0.00    -0.145 C  
HETATM    6  C   UNL     1      -8.939   5.177  71.686  1.00  0.00    -0.149 C  
HETATM    7  N   UNL     1      -8.763   8.773  72.176  1.00  0.00    -0.391 NA 
HETATM    8  H2  UNL     1      -9.191   7.848  72.174  1.00  0.00     0.000 HD 
HETATM    9  H1  UNL     1      -8.334   9.699  72.177  1.00  0.00     0.000 HD 
ENDROOT
BRANCH   6  10
HETATM   10  C   UNL     1      -9.520   3.760  71.574  1.00  0.00    -0.221 C  
HETATM   11  C   UNL     1      -8.464   2.786  71.268  1.00  0.00    -0.063 C  
HETATM   12  N   UNL     1      -7.629   2.018  71.030  1.00  0.00    -0.033 NA 
ENDBRANCH   6  10
TORSDOF 1
ENDMDL
MODEL      176
REMARK 921   NORMALIZED FREE ENERGY PREDICTED BY IDOCK:   -1.92 KCAL/MOL
REMARK 922        TOTAL FREE ENERGY PREDICTED BY IDOCK:   -2.15 KCAL/MOL
REMARK 923 INTER-LIGAND FREE ENERGY PREDICTED BY IDOCK:   -2.07 KCAL/MOL
REMARK 924 INTRA-LIGAND FREE ENERGY PREDICTED BY IDOCK:   -0.08 KCAL/MOL
REMARK 927      BINDING AFFINITY PREDICTED BY RF-SCORE:    0.00 PKD
ROOT
HETATM    1 BR   UNL     1     -10.775   5.989  67.000  1.00  0.00    -0.421 Br 
HETATM    2  C   UNL     1      -9.058   6.171  67.916  1.00  0.00    -0.117 C  
HETATM    3  C   UNL     1      -9.214   6.529  69.398  1.00  0.00    -0.144 C  
HETATM    4 BR   UNL     1      -7.353   6.745  70.107  1.00  0.00    -0.087 Br 
HETATM    5  C   UNL     1      -9.797   5.334  70.135  1.00  0.00    -0.220 C  
HETATM    6  C   UNL     1      -9.991   7.818  69.720  1.00  0.00    -0.189 C  
HETATM    7  N   UNL     1     -10.281   4.343  70.747  1.00  0.00    -0.121 NA 
HETATM    8  H2  UNL     1      -9.890   5.145  70.252  1.00  0.00     0.000 HD 
HETATM    9  H1  UNL     1     -10.673   3.542  71.241  1.00  0.00     0.000 HD 
ENDROOT
BRANCH   6  10
HETATM   10  C   UNL     1      -9.523   9.066  68.958  1.00  0.00    -0.155 C  
HETATM   11  C   UNL     1     -10.669   9.889  68.551  1.00  0.00    -0.226 C  
HETATM   12  N   UNL     1     -11.574  10.539  68.233  1.00  0.00    -0.386 NA 
ENDBRANCH   6  10
TORSDOF 1
ENDMDL
MODEL      177
REMARK 921   NORMALIZED FREE ENERGY PREDICTED BY IDOCK:   -1.90 KCAL/MOL
REMARK 922        TOTAL FREE ENERGY PREDICTED BY IDOCK:   -2.13 KCAL/MOL
REMARK 923 INTER-LIGAND FREE ENERGY PREDICTED BY IDOCK:   -2.06 KCAL/MOL
REMARK 924 INTRA-LIGAND FREE ENERGY PREDICTED BY IDOCK:   -0.07 KCAL/MOL
REMARK 927      BINDING AFFINITY PREDICTED BY RF-SCORE:    0.00 PKD
ROOT
HETATM    1 BR   UNL     1     -11.432  10.309  69.168  1.00  0.00    -0.166 Br 
HETATM    2  C   UNL     1     -10.335  11.846  68.665  1.00  0.00    -0.203 C  
HETATM    3  C   UNL     1     -10.178  11.989  67.147  1.00  0.00    -0.202 C  
HETATM    4 BR   UNL     1      -8.963  13.557  66.868  1.00  0.00    -0.184 Br 
HETATM    5  C   UNL     1     -11.515  12.395  66.549  1.00  0.00    -0.371 C  
HETATM    6  C   UNL     1      -9.573  10.788  66.398  1.00  0.00    -0.226 C  
HETATM    7  N   UNL     1     -12.624  12.731  66.053  1.00  0.00    -0.382 NA 
HETATM    8  H2  UNL     1     -11.727  12.459  66.455  1.00  0.00     0.000 HD 
HETATM    9  H1  UNL     1     -13.521  13.004  65.652  1.00  0.00     0.000 HD 
ENDROOT
BRANCH   6  10
HETATM   10  C   UNL     1      -8.256  10.255  66.982  1.00  0.00    -0.122 C  
HETATM   11  C   UNL     1      -7.275  10.009  65.917  1.00  0.00    -0.115 C  
HETATM   12  N   UNL     1      -6.501   9.818  65.076  1.00  0.00    -0.091 NA 
ENDBRANCH   6  10
TORSDOF 1
ENDMDL
MODEL      178
REMARK 921   NORMALIZED FREE ENERGY PREDICTED BY IDOCK:   -1.89 KCAL/MOL
REMARK 922        TOTAL FREE ENERGY PREDICTED BY IDOCK:   -2.12 KCAL/MOL
REMARK 923 INTER-LIGAND FREE ENERGY PREDICTED BY IDOCK:   -2.07 KCAL/MOL
REMARK 924 INTRA-LIGAND FREE ENERGY PREDICTED BY IDOCK:   -0.05 KCAL/MOL
REMARK 927      BINDING AFFINITY PREDICTED BY RF-SCORE:    0.00 PKD
ROOT
HETATM    1 BR   UNL     1      -9.614   2.620  71.706  1.00  0.00    -0.224 Br 
HETATM    2  C   UNL     1      -8.882   4.414  71.957  1.00  0.00    -0.117 C  
HETATM    3  C   UNL     1      -9.813   5.512  71.433  1.00  0.00    -0.166 C  
HETATM    4 BR   UNL     1      -8.837   7.239  71.712  1.00  0.00    -0.127 Br 
HETATM    5  C   UNL     1     -11.041   5.585  72.326  1.00  0.00    -0.237 C  
HETATM    6  C   UNL     1     -10.209   5.432  69.947  1.00  0.00    -0.351 C  
HETATM    7  N   UNL     1     -12.059   5.647  73.067  1.00  0.00    -0.479 NA 
HETATM    8  H2  UNL     1     -11.235   5.597  72.468  1.00  0.00     0.000 HD 
HETATM    9  H1  UNL     1     -12.883   5.696  73.667  1.00  0.00     0.000 HD 
ENDROOT
BRANCH   6  10
HETATM   10  C   UNL     1      -9.034   5.274  68.970  1.00  0.00    -0.126 C  
HETATM   11  C   UNL     1      -8.923   6.447  68.094  1.00  0.00    -0.116 C  
HETATM   12  N   UNL     1      -8.834   7.375  67.406  1.00  0.00    -0.123 NA 
ENDBRANCH   6  10
TORSDOF 1
ENDMDL
MODEL      179
REMARK 921   NORMALIZED FREE ENERGY PREDICTED BY IDOCK:   -1.89 KCAL/MOL
REMARK 922        TOTAL FREE ENERGY PREDICTED BY IDOCK:   -2.11 KCAL/MOL
REMARK 923 INTER-LIGAND FREE ENERGY PREDICTED BY IDOCK:   -2.06 KCAL/MOL
REMARK 924 INTRA-LIGAND FREE ENERGY PREDICTED BY IDOCK:   -0.06 KCAL/MOL
REMARK 927      BINDING AFFINITY PREDICTED BY RF-SCORE:    0.00 PKD
ROOT
HETATM    1 BR   UNL     1     -10.789   6.409  68.626  1.00  0.00    -0.402 Br 
HETATM    2  C   UNL     1     -10.729   8.355  68.793  1.00  0.00    -0.051 C  
HETATM    3  C   UNL     1      -9.436   8.956  68.234  1.00  0.00    -0.140 C  
HETATM    4 BR   UNL     1      -9.552  10.926  68.582  1.00  0.00    -0.198 Br 
HETATM    5  C   UNL     1      -9.436   8.807  66.721  1.00  0.00    -0.191 C  
HETATM    6  C   UNL     1      -8.117   8.450  68.844  1.00  0.00    -0.114 C  
HETATM    7  N   UNL     1      -9.436   8.683  65.466  1.00  0.00    -0.443 NA 
HETATM    8  H2  UNL     1      -9.436   8.783  66.481  1.00  0.00     0.000 HD 
HETATM    9  H1  UNL     1      -9.436   8.582  64.451  1.00  0.00     0.000 HD 
ENDROOT
BRANCH   6  10
HETATM   10  C   UNL     1      -8.055   8.487  70.378  1.00  0.00    -0.108 C  
HETATM   11  C   UNL     1      -7.021   9.423  70.836  1.00  0.00    -0.093 C  
HETATM   12  N   UNL     1      -6.206  10.165  71.196  1.00  0.00    -0.318 NA 
ENDBRANCH   6  10
TORSDOF 1
ENDMDL
MODEL      180
REMARK 921   NORMALIZED FREE ENERGY PREDICTED BY IDOCK:   -1.89 KCAL/MOL
REMARK 922        TOTAL FREE ENERGY PREDICTED BY IDOCK:   -2.11 KCAL/MOL
REMARK 923 INTER-LIGAND FREE ENERGY PREDICTED BY IDOCK:   -2.05 KCAL/MOL
REMARK 924 INTRA-LIGAND FREE ENERGY PREDICTED BY IDOCK:   -0.07 KCAL/MOL
REMARK 927      BINDING AFFINITY PREDICTED BY RF-SCORE:    0.00 PKD
ROOT
HETATM    1 BR   UNL     1     -11.833   7.941  71.292  1.00  0.00    -0.332 Br 
HETATM    2  C   UNL     1     -11.132   6.118  71.346  1.00  0.00    -0.288 C  
HETATM    3  C   UNL     1      -9.769   5.988  70.658  1.00  0.00    -0.174 C  
HETATM    4 BR   UNL     1      -9.289   4.046  70.757  1.00  0.00    -0.232 Br 
HETATM    5  C   UNL     1      -8.725   6.711  71.493  1.00  0.00    -0.131 C  
HETATM    6  C   UNL     1      -9.696   6.415  69.181  1.00  0.00    -0.148 C  
HETATM    7  N   UNL     1      -7.859   7.311  72.186  1.00  0.00    -0.089 NA 
HETATM    8  H2  UNL     1      -8.560   6.826  71.625  1.00  0.00     0.000 HD 
HETATM    9  H1  UNL     1      -7.158   7.797  72.746  1.00  0.00     0.000 HD 
ENDROOT
BRANCH   6  10
HETATM   10  C   UNL     1     -10.767   5.795  68.272  1.00  0.00    -0.285 C  
HETATM   11  C   UNL     1     -10.149   4.984  67.216  1.00  0.00    -0.184 C  
HETATM   12  N   UNL     1      -9.660   4.341  66.384  1.00  0.00    -0.183 NA 
ENDBRANCH   6  10
TORSDOF 1
ENDMDL
MODEL      181
REMARK 921   NORMALIZED FREE ENERGY PREDICTED BY IDOCK:   -1.88 KCAL/MOL
REMARK 922        TOTAL FREE ENERGY PREDICTED BY IDOCK:   -2.11 KCAL/MOL
REMARK 923 INTER-LIGAND FREE ENERGY PREDICTED BY IDOCK:   -2.00 KCAL/MOL
REMARK 924 INTRA-LIGAND FREE ENERGY PREDICTED BY IDOCK:   -0.11 KCAL/MOL
REMARK 927      BINDING AFFINITY PREDICTED BY RF-SCORE:    0.00 PKD
ROOT
HETATM    1 BR   UNL     1      -7.413   7.491  69.294  1.00  0.00    -0.092 Br 
HETATM    2  C   UNL     1      -7.418   8.320  67.525  1.00  0.00    -0.094 C  
HETATM    3  C   UNL     1      -8.401   9.491  67.423  1.00  0.00    -0.125 C  
HETATM    4 BR   UNL     1      -8.302  10.126  65.526  1.00  0.00    -0.170 Br 
HETATM    5  C   UNL     1      -7.884  10.643  68.269  1.00  0.00    -0.113 C  
HETATM    6  C   UNL     1      -9.876   9.185  67.739  1.00  0.00    -0.214 C  
HETATM    7  N   UNL     1      -7.456  11.600  68.971  1.00  0.00    -0.255 NA 
HETATM    8  H2  UNL     1      -7.802  10.826  68.403  1.00  0.00     0.000 HD 
HETATM    9  H1  UNL     1      -7.109  12.373  69.538  1.00  0.00     0.000 HD 
ENDROOT
BRANCH   6  10
HETATM   10  C   UNL     1     -10.464   7.981  66.989  1.00  0.00    -0.410 C  
HETATM   11  C   UNL     1     -10.900   6.942  67.930  1.00  0.00    -0.218 C  
HETATM   12  N   UNL     1     -11.246   6.123  68.674  1.00  0.00    -0.307 NA 
ENDBRANCH   6  10
TORSDOF 1
ENDMDL
MODEL      182
REMARK 921   NORMALIZED FREE ENERGY PREDICTED BY IDOCK:   -1.88 KCAL/MOL
REMARK 922        TOTAL FREE ENERGY PREDICTED BY IDOCK:   -2.10 KCAL/MOL
REMARK 923 INTER-LIGAND FREE ENERGY PREDICTED BY IDOCK:   -2.05 KCAL/MOL
REMARK 924 INTRA-LIGAND FREE ENERGY PREDICTED BY IDOCK:   -0.05 KCAL/MOL
REMARK 927      BINDING AFFINITY PREDICTED BY RF-SCORE:    0.00 PKD
ROOT
HETATM    1 BR   UNL     1      -6.048  10.786  65.896  1.00  0.00    -0.103 Br 
HETATM    2  C   UNL     1      -6.297   9.330  64.617  1.00  0.00    -0.076 C  
HETATM    3  C   UNL     1      -7.724   9.268  64.062  1.00  0.00    -0.117 C  
HETATM    4 BR   UNL     1      -7.774   7.672  62.853  1.00  0.00    -0.127 Br 
HETATM    5  C   UNL     1      -7.956  10.471  63.162  1.00  0.00    -0.083 C  
HETATM    6  C   UNL     1      -8.860   9.113  65.090  1.00  0.00    -0.241 C  
HETATM    7  N   UNL     1      -8.148  11.469  62.416  1.00  0.00    -0.639 NA 
HETATM    8  H2  UNL     1      -7.993  10.662  63.020  1.00  0.00     0.000 HD 
HETATM    9  H1  UNL     1      -8.304  12.276  61.812  1.00  0.00     0.000 HD 
ENDROOT
BRANCH   6  10
HETATM   10  C   UNL     1      -8.673   7.969  66.096  1.00  0.00    -0.177 C  
HETATM   11  C   UNL     1      -9.942   7.643  66.759  1.00  0.00    -0.247 C  
HETATM   12  N   UNL     1     -10.946   7.385  67.278  1.00  0.00    -0.245 NA 
ENDBRANCH   6  10
TORSDOF 1
ENDMDL
MODEL      183
REMARK 921   NORMALIZED FREE ENERGY PREDICTED BY IDOCK:   -1.85 KCAL/MOL
REMARK 922        TOTAL FREE ENERGY PREDICTED BY IDOCK:   -2.08 KCAL/MOL
REMARK 923 INTER-LIGAND FREE ENERGY PREDICTED BY IDOCK:   -2.03 KCAL/MOL
REMARK 924 INTRA-LIGAND FREE ENERGY PREDICTED BY IDOCK:   -0.05 KCAL/MOL
REMARK 927      BINDING AFFINITY PREDICTED BY RF-SCORE:    0.00 PKD
ROOT
HETATM    1 BR   UNL     1      -8.122  10.317  66.019  1.00  0.00    -0.145 Br 
HETATM    2  C   UNL     1      -9.338   8.791  65.907  1.00  0.00    -0.218 C  
HETATM    3  C   UNL     1      -9.858   8.348  67.279  1.00  0.00    -0.203 C  
HETATM    4 BR   UNL     1     -11.003   6.740  66.937  1.00  0.00    -0.213 Br 
HETATM    5  C   UNL     1     -10.798   9.413  67.818  1.00  0.00    -0.159 C  
HETATM    6  C   UNL     1      -8.800   7.956  68.326  1.00  0.00    -0.129 C  
HETATM    7  N   UNL     1     -11.578  10.298  68.266  1.00  0.00    -0.680 NA 
HETATM    8  H2  UNL     1     -10.947   9.582  67.904  1.00  0.00     0.000 HD 
HETATM    9  H1  UNL     1     -12.209  11.013  68.628  1.00  0.00     0.000 HD 
ENDROOT
BRANCH   6  10
HETATM   10  C   UNL     1      -7.754   6.940  67.843  1.00  0.00    -0.112 C  
HETATM   11  C   UNL     1      -7.868   5.680  68.588  1.00  0.00    -0.096 C  
HETATM   12  N   UNL     1      -7.961   4.684  69.174  1.00  0.00    -0.070 NA 
ENDBRANCH   6  10
TORSDOF 1
ENDMDL
MODEL      184
REMARK 921   NORMALIZED FREE ENERGY PREDICTED BY IDOCK:   -1.85 KCAL/MOL
REMARK 922        TOTAL FREE ENERGY PREDICTED BY IDOCK:   -2.07 KCAL/MOL
REMARK 923 INTER-LIGAND FREE ENERGY PREDICTED BY IDOCK:   -2.02 KCAL/MOL
REMARK 924 INTRA-LIGAND FREE ENERGY PREDICTED BY IDOCK:   -0.06 KCAL/MOL
REMARK 927      BINDING AFFINITY PREDICTED BY RF-SCORE:    0.00 PKD
ROOT
HETATM    1 BR   UNL     1     -10.495   4.845  66.361  1.00  0.00    -0.270 Br 
HETATM    2  C   UNL     1     -10.891   6.458  67.390  1.00  0.00    -0.375 C  
HETATM    3  C   UNL     1      -9.706   6.920  68.244  1.00  0.00    -0.132 C  
HETATM    4 BR   UNL     1     -10.357   8.517  69.264  1.00  0.00    -0.227 Br 
HETATM    5  C   UNL     1      -8.610   7.438  67.328  1.00  0.00    -0.118 C  
HETATM    6  C   UNL     1      -9.151   5.908  69.262  1.00  0.00    -0.128 C  
HETATM    7  N   UNL     1      -7.700   7.868  66.567  1.00  0.00    -0.095 NA 
HETATM    8  H2  UNL     1      -8.436   7.520  67.182  1.00  0.00     0.000 HD 
HETATM    9  H1  UNL     1      -6.964   8.215  65.952  1.00  0.00     0.000 HD 
ENDROOT
BRANCH   6  10
HETATM   10  C   UNL     1     -10.202   5.269  70.182  1.00  0.00    -0.350 C  
HETATM   11  C   UNL     1      -9.719   3.990  70.716  1.00  0.00    -0.193 C  
HETATM   12  N   UNL     1      -9.335   2.981  71.139  1.00  0.00    -0.129 NA 
ENDBRANCH   6  10
TORSDOF 1
ENDMDL
MODEL      185
REMARK 921   NORMALIZED FREE ENERGY PREDICTED BY IDOCK:   -1.85 KCAL/MOL
REMARK 922        TOTAL FREE ENERGY PREDICTED BY IDOCK:   -2.07 KCAL/MOL
REMARK 923 INTER-LIGAND FREE ENERGY PREDICTED BY IDOCK:   -2.02 KCAL/MOL
REMARK 924 INTRA-LIGAND FREE ENERGY PREDICTED BY IDOCK:   -0.05 KCAL/MOL
REMARK 927      BINDING AFFINITY PREDICTED BY RF-SCORE:    0.00 PKD
ROOT
HETATM    1 BR   UNL     1      -8.885   8.093  71.765  1.00  0.00    -0.230 Br 
HETATM    2  C   UNL     1      -8.476   6.593  70.581  1.00  0.00    -0.138 C  
HETATM    3  C   UNL     1      -9.652   5.624  70.426  1.00  0.00    -0.170 C  
HETATM    4 BR   UNL     1      -8.989   4.140  69.255  1.00  0.00    -0.183 Br 
HETATM    5  C   UNL     1     -10.754   6.309  69.635  1.00  0.00    -0.306 C  
HETATM    6  C   UNL     1     -10.203   4.992  71.718  1.00  0.00    -0.272 C  
HETATM    7  N   UNL     1     -11.669   6.878  68.978  1.00  0.00    -0.359 NA 
HETATM    8  H2  UNL     1     -10.929   6.418  69.509  1.00  0.00     0.000 HD 
HETATM    9  H1  UNL     1     -12.408   7.338  68.447  1.00  0.00     0.000 HD 
ENDROOT
BRANCH   6  10
HETATM   10  C   UNL     1      -9.147   4.344  72.624  1.00  0.00    -0.134 C  
HETATM   11  C   UNL     1      -9.765   3.362  73.525  1.00  0.00    -0.107 C  
HETATM   12  N   UNL     1     -10.253   2.585  74.233  1.00  0.00    -0.122 NA 
ENDBRANCH   6  10
TORSDOF 1
ENDMDL
MODEL      186
REMARK 921   NORMALIZED FREE ENERGY PREDICTED BY IDOCK:   -1.84 KCAL/MOL
REMARK 922        TOTAL FREE ENERGY PREDICTED BY IDOCK:   -2.06 KCAL/MOL
REMARK 923 INTER-LIGAND FREE ENERGY PREDICTED BY IDOCK:   -1.95 KCAL/MOL
REMARK 924 INTRA-LIGAND FREE ENERGY PREDICTED BY IDOCK:   -0.12 KCAL/MOL
REMARK 927      BINDING AFFINITY PREDICTED BY RF-SCORE:    0.00 PKD
ROOT
HETATM    1 BR   UNL     1      -7.852   4.332  63.226  1.00  0.00    -0.077 Br 
HETATM    2  C   UNL     1      -8.207   3.351  64.878  1.00  0.00    -0.090 C  
HETATM    3  C   UNL     1      -9.061   4.150  65.868  1.00  0.00    -0.136 C  
HETATM    4 BR   UNL     1      -9.227   3.000  67.500  1.00  0.00    -0.226 Br 
HETATM    5  C   UNL     1     -10.470   4.278  65.313  1.00  0.00    -0.174 C  
HETATM    6  C   UNL     1      -8.509   5.517  66.312  1.00  0.00    -0.122 C  
HETATM    7  N   UNL     1     -11.639   4.385  64.852  1.00  0.00    -0.984 NA 
HETATM    8  H2  UNL     1     -10.693   4.299  65.224  1.00  0.00     0.000 HD 
HETATM    9  H1  UNL     1     -12.585   4.471  64.479  1.00  0.00     0.000 HD 
ENDROOT
BRANCH   6  10
HETATM   10  C   UNL     1      -7.058   5.499  66.814  1.00  0.00    -0.070 C  
HETATM   11  C   UNL     1      -6.228   6.432  66.043  1.00  0.00    -0.038 C  
HETATM   12  N   UNL     1      -5.573   7.171  65.435  1.00  0.00    -0.031 NA 
ENDBRANCH   6  10
TORSDOF 1
ENDMDL
MODEL      187
REMARK 921   NORMALIZED FREE ENERGY PREDICTED BY IDOCK:   -1.82 KCAL/MOL
REMARK 922        TOTAL FREE ENERGY PREDICTED BY IDOCK:   -2.04 KCAL/MOL
REMARK 923 INTER-LIGAND FREE ENERGY PREDICTED BY IDOCK:   -1.92 KCAL/MOL
REMARK 924 INTRA-LIGAND FREE ENERGY PREDICTED BY IDOCK:   -0.12 KCAL/MOL
REMARK 927      BINDING AFFINITY PREDICTED BY RF-SCORE:    0.00 PKD
ROOT
HETATM    1 BR   UNL     1      -8.146   8.069  67.817  1.00  0.00    -0.129 Br 
HETATM    2  C   UNL     1      -9.662   7.206  68.698  1.00  0.00    -0.141 C  
HETATM    3  C   UNL     1     -10.225   8.037  69.855  1.00  0.00    -0.204 C  
HETATM    4 BR   UNL     1     -11.695   6.937  70.655  1.00  0.00    -0.411 Br 
HETATM    5  C   UNL     1     -10.901   9.275  69.289  1.00  0.00    -0.152 C  
HETATM    6  C   UNL     1      -9.245   8.404  70.985  1.00  0.00    -0.206 C  
HETATM    7  N   UNL     1     -11.462  10.302  68.819  1.00  0.00    -0.478 NA 
HETATM    8  H2  UNL     1     -11.008   9.472  69.199  1.00  0.00     0.000 HD 
HETATM    9  H1  UNL     1     -11.916  11.133  68.440  1.00  0.00     0.000 HD 
ENDROOT
BRANCH   6  10
HETATM   10  C   UNL     1      -8.454   7.223  71.566  1.00  0.00    -0.113 C  
HETATM   11  C   UNL     1      -7.009   7.451  71.437  1.00  0.00    -0.055 C  
HETATM   12  N   UNL     1      -5.868   7.633  71.338  1.00  0.00    -0.035 NA 
ENDBRANCH   6  10
TORSDOF 1
ENDMDL
MODEL      188
REMARK 921   NORMALIZED FREE ENERGY PREDICTED BY IDOCK:   -1.81 KCAL/MOL
REMARK 922        TOTAL FREE ENERGY PREDICTED BY IDOCK:   -2.03 KCAL/MOL
REMARK 923 INTER-LIGAND FREE ENERGY PREDICTED BY IDOCK:   -1.95 KCAL/MOL
REMARK 924 INTRA-LIGAND FREE ENERGY PREDICTED BY IDOCK:   -0.08 KCAL/MOL
REMARK 927      BINDING AFFINITY PREDICTED BY RF-SCORE:    0.00 PKD
ROOT
HETATM    1 BR   UNL     1      -8.810   6.048  71.717  1.00  0.00    -0.138 Br 
HETATM    2  C   UNL     1      -9.194   7.893  71.200  1.00  0.00    -0.147 C  
HETATM    3  C   UNL     1     -10.065   7.986  69.943  1.00  0.00    -0.198 C  
HETATM    4 BR   UNL     1     -10.258   9.941  69.554  1.00  0.00    -0.264 Br 
HETATM    5  C   UNL     1     -11.464   7.493  70.275  1.00  0.00    -0.152 C  
HETATM    6  C   UNL     1      -9.521   7.306  68.673  1.00  0.00    -0.137 C  
HETATM    7  N   UNL     1     -12.625   7.085  70.551  1.00  0.00    -0.593 NA 
HETATM    8  H2  UNL     1     -11.686   7.415  70.328  1.00  0.00     0.000 HD 
HETATM    9  H1  UNL     1     -13.564   6.755  70.773  1.00  0.00     0.000 HD 
ENDROOT
BRANCH   6  10
HETATM   10  C   UNL     1      -8.079   7.682  68.302  1.00  0.00    -0.124 C  
HETATM   11  C   UNL     1      -8.020   8.252  66.950  1.00  0.00    -0.099 C  
HETATM   12  N   UNL     1      -7.975   8.705  65.884  1.00  0.00    -0.101 NA 
ENDBRANCH   6  10
TORSDOF 1
ENDMDL
MODEL      189
REMARK 921   NORMALIZED FREE ENERGY PREDICTED BY IDOCK:   -1.80 KCAL/MOL
REMARK 922        TOTAL FREE ENERGY PREDICTED BY IDOCK:   -2.03 KCAL/MOL
REMARK 923 INTER-LIGAND FREE ENERGY PREDICTED BY IDOCK:   -1.92 KCAL/MOL
REMARK 924 INTRA-LIGAND FREE ENERGY PREDICTED BY IDOCK:   -0.11 KCAL/MOL
REMARK 927      BINDING AFFINITY PREDICTED BY RF-SCORE:    0.00 PKD
ROOT
HETATM    1 BR   UNL     1      -9.995   6.440  70.740  1.00  0.00    -0.221 Br 
HETATM    2  C   UNL     1      -8.656   6.358  69.319  1.00  0.00    -0.125 C  
HETATM    3  C   UNL     1      -9.148   5.592  68.087  1.00  0.00    -0.108 C  
HETATM    4 BR   UNL     1      -7.606   5.561  66.809  1.00  0.00    -0.089 Br 
HETATM    5  C   UNL     1     -10.233   6.406  67.400  1.00  0.00    -0.178 C  
HETATM    6  C   UNL     1      -9.600   4.138  68.311  1.00  0.00    -0.191 C  
HETATM    7  N   UNL     1     -11.132   7.082  66.831  1.00  0.00    -0.627 NA 
HETATM    8  H2  UNL     1     -10.405   6.536  67.292  1.00  0.00     0.000 HD 
HETATM    9  H1  UNL     1     -11.860   7.629  66.370  1.00  0.00     0.000 HD 
ENDROOT
BRANCH   6  10
HETATM   10  C   UNL     1      -8.599   3.257  69.072  1.00  0.00    -0.115 C  
HETATM   11  C   UNL     1      -9.250   2.584  70.203  1.00  0.00    -0.129 C  
HETATM   12  N   UNL     1      -9.766   2.052  71.094  1.00  0.00    -0.136 NA 
ENDBRANCH   6  10
TORSDOF 1
ENDMDL
MODEL      190
REMARK 921   NORMALIZED FREE ENERGY PREDICTED BY IDOCK:   -1.79 KCAL/MOL
REMARK 922        TOTAL FREE ENERGY PREDICTED BY IDOCK:   -2.01 KCAL/MOL
REMARK 923 INTER-LIGAND FREE ENERGY PREDICTED BY IDOCK:   -1.90 KCAL/MOL
REMARK 924 INTRA-LIGAND FREE ENERGY PREDICTED BY IDOCK:   -0.11 KCAL/MOL
REMARK 927      BINDING AFFINITY PREDICTED BY RF-SCORE:    0.00 PKD
ROOT
HETATM    1 BR   UNL     1     -11.121   8.615  71.070  1.00  0.00    -0.337 Br 
HETATM    2  C   UNL     1     -10.254   6.968  71.666  1.00  0.00    -0.194 C  
HETATM    3  C   UNL     1      -8.734   7.000  71.481  1.00  0.00    -0.121 C  
HETATM    4 BR   UNL     1      -8.073   5.203  72.071  1.00  0.00    -0.114 Br 
HETATM    5  C   UNL     1      -8.139   7.997  72.462  1.00  0.00    -0.135 C  
HETATM    6  C   UNL     1      -8.215   7.244  70.053  1.00  0.00    -0.132 C  
HETATM    7  N   UNL     1      -7.645   8.825  73.275  1.00  0.00    -0.376 NA 
HETATM    8  H2  UNL     1      -8.044   8.156  72.617  1.00  0.00     0.000 HD 
HETATM    9  H1  UNL     1      -7.246   9.494  73.933  1.00  0.00     0.000 HD 
ENDROOT
BRANCH   6  10
HETATM   10  C   UNL     1      -8.823   6.333  68.977  1.00  0.00    -0.124 C  
HETATM   11  C   UNL     1      -9.549   7.123  67.974  1.00  0.00    -0.134 C  
HETATM   12  N   UNL     1     -10.119   7.748  67.181  1.00  0.00    -0.229 NA 
ENDBRANCH   6  10
TORSDOF 1
ENDMDL
MODEL      191
REMARK 921   NORMALIZED FREE ENERGY PREDICTED BY IDOCK:   -1.77 KCAL/MOL
REMARK 922        TOTAL FREE ENERGY PREDICTED BY IDOCK:   -1.99 KCAL/MOL
REMARK 923 INTER-LIGAND FREE ENERGY PREDICTED BY IDOCK:   -1.92 KCAL/MOL
REMARK 924 INTRA-LIGAND FREE ENERGY PREDICTED BY IDOCK:   -0.07 KCAL/MOL
REMARK 927      BINDING AFFINITY PREDICTED BY RF-SCORE:    0.00 PKD
ROOT
HETATM    1 BR   UNL     1      -8.395  12.933  68.175  1.00  0.00    -0.168 Br 
HETATM    2  C   UNL     1      -8.557  11.636  66.723  1.00  0.00    -0.180 C  
HETATM    3  C   UNL     1      -8.995  10.252  67.213  1.00  0.00    -0.132 C  
HETATM    4 BR   UNL     1      -9.014   9.077  65.590  1.00  0.00    -0.260 Br 
HETATM    5  C   UNL     1     -10.440  10.328  67.680  1.00  0.00    -0.239 C  
HETATM    6  C   UNL     1      -8.102   9.577  68.270  1.00  0.00    -0.102 C  
HETATM    7  N   UNL     1     -11.638  10.392  68.067  1.00  0.00    -0.712 NA 
HETATM    8  H2  UNL     1     -10.669  10.341  67.754  1.00  0.00     0.000 HD 
HETATM    9  H1  UNL     1     -12.607  10.443  68.380  1.00  0.00     0.000 HD 
ENDROOT
BRANCH   6  10
HETATM   10  C   UNL     1      -6.608   9.526  67.920  1.00  0.00    -0.062 C  
HETATM   11  C   UNL     1      -5.785   9.639  69.130  1.00  0.00    -0.035 C  
HETATM   12  N   UNL     1      -5.136   9.726  70.087  1.00  0.00    -0.032 NA 
ENDBRANCH   6  10
TORSDOF 1
ENDMDL
MODEL      192
REMARK 921   NORMALIZED FREE ENERGY PREDICTED BY IDOCK:   -1.77 KCAL/MOL
REMARK 922        TOTAL FREE ENERGY PREDICTED BY IDOCK:   -1.99 KCAL/MOL
REMARK 923 INTER-LIGAND FREE ENERGY PREDICTED BY IDOCK:   -1.89 KCAL/MOL
REMARK 924 INTRA-LIGAND FREE ENERGY PREDICTED BY IDOCK:   -0.10 KCAL/MOL
REMARK 927      BINDING AFFINITY PREDICTED BY RF-SCORE:    0.00 PKD
ROOT
HETATM    1 BR   UNL     1      -8.392   2.023  63.820  1.00  0.00    -0.081 Br 
HETATM    2  C   UNL     1      -8.267   2.796  65.611  1.00  0.00    -0.089 C  
HETATM    3  C   UNL     1      -8.663   4.275  65.645  1.00  0.00    -0.120 C  
HETATM    4 BR   UNL     1      -8.383   4.873  67.536  1.00  0.00    -0.104 Br 
HETATM    5  C   UNL     1     -10.158   4.391  65.397  1.00  0.00    -0.223 C  
HETATM    6  C   UNL     1      -7.870   5.226  64.730  1.00  0.00    -0.097 C  
HETATM    7  N   UNL     1     -11.399   4.487  65.190  1.00  0.00    -1.113 NA 
HETATM    8  H2  UNL     1     -10.395   4.409  65.357  1.00  0.00     0.000 HD 
HETATM    9  H1  UNL     1     -12.402   4.564  65.023  1.00  0.00     0.000 HD 
ENDROOT
BRANCH   6  10
HETATM   10  C   UNL     1      -6.343   5.122  64.854  1.00  0.00    -0.034 C  
HETATM   11  C   UNL     1      -5.747   4.667  63.591  1.00  0.00    -0.017 C  
HETATM   12  N   UNL     1      -5.278   4.311  62.593  1.00  0.00    -0.008 NA 
ENDBRANCH   6  10
TORSDOF 1
ENDMDL
MODEL      193
REMARK 921   NORMALIZED FREE ENERGY PREDICTED BY IDOCK:   -1.76 KCAL/MOL
REMARK 922        TOTAL FREE ENERGY PREDICTED BY IDOCK:   -1.98 KCAL/MOL
REMARK 923 INTER-LIGAND FREE ENERGY PREDICTED BY IDOCK:   -1.94 KCAL/MOL
REMARK 924 INTRA-LIGAND FREE ENERGY PREDICTED BY IDOCK:   -0.05 KCAL/MOL
REMARK 927      BINDING AFFINITY PREDICTED BY RF-SCORE:    0.00 PKD
ROOT
HETATM    1 BR   UNL     1      -7.618   6.642  73.247  1.00  0.00    -0.090 Br 
HETATM    2  C   UNL     1      -8.937   5.395  73.971  1.00  0.00    -0.119 C  
HETATM    3  C   UNL     1      -9.267   4.255  73.001  1.00  0.00    -0.111 C  
HETATM    4 BR   UNL     1     -10.682   3.161  73.903  1.00  0.00    -0.296 Br 
HETATM    5  C   UNL     1      -8.057   3.342  72.883  1.00  0.00    -0.080 C  
HETATM    6  C   UNL     1      -9.799   4.659  71.614  1.00  0.00    -0.253 C  
HETATM    7  N   UNL     1      -7.053   2.585  72.785  1.00  0.00    -0.031 NA 
HETATM    8  H2  UNL     1      -7.865   3.198  72.864  1.00  0.00     0.000 HD 
HETATM    9  H1  UNL     1      -6.241   1.973  72.706  1.00  0.00     0.000 HD 
ENDROOT
BRANCH   6  10
HETATM   10  C   UNL     1     -10.974   5.646  71.632  1.00  0.00    -0.277 C  
HETATM   11  C   UNL     1     -11.267   6.133  70.278  1.00  0.00    -0.369 C  
HETATM   12  N   UNL     1     -11.500   6.514  69.208  1.00  0.00    -0.312 NA 
ENDBRANCH   6  10
TORSDOF 1
ENDMDL
MODEL      194
REMARK 921   NORMALIZED FREE ENERGY PREDICTED BY IDOCK:   -1.76 KCAL/MOL
REMARK 922        TOTAL FREE ENERGY PREDICTED BY IDOCK:   -1.98 KCAL/MOL
REMARK 923 INTER-LIGAND FREE ENERGY PREDICTED BY IDOCK:   -1.90 KCAL/MOL
REMARK 924 INTRA-LIGAND FREE ENERGY PREDICTED BY IDOCK:   -0.07 KCAL/MOL
REMARK 927      BINDING AFFINITY PREDICTED BY RF-SCORE:    0.00 PKD
ROOT
HETATM    1 BR   UNL     1     -11.872   7.538  71.092  1.00  0.00    -0.329 Br 
HETATM    2  C   UNL     1     -11.325   6.247  69.731  1.00  0.00    -0.436 C  
HETATM    3  C   UNL     1      -9.850   5.850  69.852  1.00  0.00    -0.174 C  
HETATM    4 BR   UNL     1      -9.491   4.603  68.326  1.00  0.00    -0.210 Br 
HETATM    5  C   UNL     1      -9.664   5.021  71.112  1.00  0.00    -0.178 C  
HETATM    6  C   UNL     1      -8.818   6.990  69.778  1.00  0.00    -0.142 C  
HETATM    7  N   UNL     1      -9.511   4.332  72.157  1.00  0.00    -0.127 NA 
HETATM    8  H2  UNL     1      -9.635   4.889  71.311  1.00  0.00     0.000 HD 
HETATM    9  H1  UNL     1      -9.386   3.775  73.002  1.00  0.00     0.000 HD 
ENDROOT
BRANCH   6  10
HETATM   10  C   UNL     1      -8.978   7.933  68.576  1.00  0.00    -0.133 C  
HETATM   11  C   UNL     1      -7.684   8.168  67.922  1.00  0.00    -0.114 C  
HETATM   12  N   UNL     1      -6.663   8.351  67.405  1.00  0.00    -0.062 NA 
ENDBRANCH   6  10
TORSDOF 1
ENDMDL
MODEL      195
REMARK 921   NORMALIZED FREE ENERGY PREDICTED BY IDOCK:   -1.74 KCAL/MOL
REMARK 922        TOTAL FREE ENERGY PREDICTED BY IDOCK:   -1.96 KCAL/MOL
REMARK 923 INTER-LIGAND FREE ENERGY PREDICTED BY IDOCK:   -1.94 KCAL/MOL
REMARK 924 INTRA-LIGAND FREE ENERGY PREDICTED BY IDOCK:   -0.01 KCAL/MOL
REMARK 927      BINDING AFFINITY PREDICTED BY RF-SCORE:    0.00 PKD
ROOT
HETATM    1 BR   UNL     1      -8.794   3.166  64.764  1.00  0.00    -0.123 Br 
HETATM    2  C   UNL     1     -10.062   4.360  65.650  1.00  0.00    -0.241 C  
HETATM    3  C   UNL     1      -9.379   5.342  66.608  1.00  0.00    -0.139 C  
HETATM    4 BR   UNL     1     -10.856   6.396  67.456  1.00  0.00    -0.462 Br 
HETATM    5  C   UNL     1      -8.575   6.344  65.796  1.00  0.00    -0.148 C  
HETATM    6  C   UNL     1      -8.531   4.730  67.737  1.00  0.00    -0.103 C  
HETATM    7  N   UNL     1      -7.907   7.175  65.122  1.00  0.00    -0.117 NA 
HETATM    8  H2  UNL     1      -8.447   6.503  65.667  1.00  0.00     0.000 HD 
HETATM    9  H1  UNL     1      -7.368   7.848  64.577  1.00  0.00     0.000 HD 
ENDROOT
BRANCH   6  10
HETATM   10  C   UNL     1      -9.237   3.646  68.564  1.00  0.00    -0.220 C  
HETATM   11  C   UNL     1      -9.538   4.134  69.916  1.00  0.00    -0.211 C  
HETATM   12  N   UNL     1      -9.778   4.521  70.982  1.00  0.00    -0.177 NA 
ENDBRANCH   6  10
TORSDOF 1
ENDMDL
MODEL      196
REMARK 921   NORMALIZED FREE ENERGY PREDICTED BY IDOCK:   -1.74 KCAL/MOL
REMARK 922        TOTAL FREE ENERGY PREDICTED BY IDOCK:   -1.95 KCAL/MOL
REMARK 923 INTER-LIGAND FREE ENERGY PREDICTED BY IDOCK:   -1.85 KCAL/MOL
REMARK 924 INTRA-LIGAND FREE ENERGY PREDICTED BY IDOCK:   -0.11 KCAL/MOL
REMARK 927      BINDING AFFINITY PREDICTED BY RF-SCORE:    0.00 PKD
ROOT
HETATM    1 BR   UNL     1      -9.862   9.039  70.474  1.00  0.00    -0.289 Br 
HETATM    2  C   UNL     1      -8.033   9.034  69.788  1.00  0.00    -0.099 C  
HETATM    3  C   UNL     1      -7.894   9.798  68.467  1.00  0.00    -0.081 C  
HETATM    4 BR   UNL     1      -5.980   9.592  67.914  1.00  0.00    -0.051 Br 
HETATM    5  C   UNL     1      -8.087  11.282  68.734  1.00  0.00    -0.130 C  
HETATM    6  C   UNL     1      -8.774   9.322  67.297  1.00  0.00    -0.132 C  
HETATM    7  N   UNL     1      -8.247  12.513  68.954  1.00  0.00    -0.340 NA 
HETATM    8  H2  UNL     1      -8.117  11.517  68.776  1.00  0.00     0.000 HD 
HETATM    9  H1  UNL     1      -8.376  13.509  69.133  1.00  0.00     0.000 HD 
ENDROOT
BRANCH   6  10
HETATM   10  C   UNL     1      -8.706   7.816  67.005  1.00  0.00    -0.131 C  
HETATM   11  C   UNL     1     -10.055   7.240  66.921  1.00  0.00    -0.247 C  
HETATM   12  N   UNL     1     -11.119   6.787  66.852  1.00  0.00    -0.348 NA 
ENDBRANCH   6  10
TORSDOF 1
ENDMDL
MODEL      197
REMARK 921   NORMALIZED FREE ENERGY PREDICTED BY IDOCK:   -1.73 KCAL/MOL
REMARK 922        TOTAL FREE ENERGY PREDICTED BY IDOCK:   -1.95 KCAL/MOL
REMARK 923 INTER-LIGAND FREE ENERGY PREDICTED BY IDOCK:   -1.87 KCAL/MOL
REMARK 924 INTRA-LIGAND FREE ENERGY PREDICTED BY IDOCK:   -0.08 KCAL/MOL
REMARK 927      BINDING AFFINITY PREDICTED BY RF-SCORE:    0.00 PKD
ROOT
HETATM    1 BR   UNL     1      -8.849   5.030  70.524  1.00  0.00    -0.157 Br 
HETATM    2  C   UNL     1      -8.275   6.199  69.066  1.00  0.00    -0.112 C  
HETATM    3  C   UNL     1      -9.412   6.536  68.096  1.00  0.00    -0.114 C  
HETATM    4 BR   UNL     1      -8.589   7.659  66.656  1.00  0.00    -0.148 Br 
HETATM    5  C   UNL     1     -10.410   7.440  68.801  1.00  0.00    -0.199 C  
HETATM    6  C   UNL     1     -10.118   5.348  67.418  1.00  0.00    -0.223 C  
HETATM    7  N   UNL     1     -11.238   8.191  69.385  1.00  0.00    -0.426 NA 
HETATM    8  H2  UNL     1     -10.568   7.584  68.912  1.00  0.00     0.000 HD 
HETATM    9  H1  UNL     1     -11.908   8.798  69.858  1.00  0.00     0.000 HD 
ENDROOT
BRANCH   6  10
HETATM   10  C   UNL     1      -9.181   4.334  66.746  1.00  0.00    -0.156 C  
HETATM   11  C   UNL     1      -9.499   4.195  65.319  1.00  0.00    -0.173 C  
HETATM   12  N   UNL     1      -9.750   4.089  64.192  1.00  0.00    -0.162 NA 
ENDBRANCH   6  10
TORSDOF 1
ENDMDL
MODEL      198
REMARK 921   NORMALIZED FREE ENERGY PREDICTED BY IDOCK:   -1.71 KCAL/MOL
REMARK 922        TOTAL FREE ENERGY PREDICTED BY IDOCK:   -1.93 KCAL/MOL
REMARK 923 INTER-LIGAND FREE ENERGY PREDICTED BY IDOCK:   -1.82 KCAL/MOL
REMARK 924 INTRA-LIGAND FREE ENERGY PREDICTED BY IDOCK:   -0.11 KCAL/MOL
REMARK 927      BINDING AFFINITY PREDICTED BY RF-SCORE:    0.00 PKD
ROOT
HETATM    1 BR   UNL     1     -10.888   6.391  67.220  1.00  0.00    -0.483 Br 
HETATM    2  C   UNL     1      -9.627   7.714  67.911  1.00  0.00    -0.144 C  
HETATM    3  C   UNL     1      -8.598   8.152  66.864  1.00  0.00    -0.124 C  
HETATM    4 BR   UNL     1      -7.372   9.429  67.802  1.00  0.00    -0.083 Br 
HETATM    5  C   UNL     1      -9.301   8.971  65.793  1.00  0.00    -0.236 C  
HETATM    6  C   UNL     1      -7.731   7.043  66.239  1.00  0.00    -0.094 C  
HETATM    7  N   UNL     1      -9.884   9.650  64.905  1.00  0.00    -0.422 NA 
HETATM    8  H2  UNL     1      -9.412   9.100  65.623  1.00  0.00     0.000 HD 
HETATM    9  H1  UNL     1     -10.356  10.199  64.187  1.00  0.00     0.000 HD 
ENDROOT
BRANCH   6  10
HETATM   10  C   UNL     1      -7.043   6.112  67.248  1.00  0.00    -0.070 C  
HETATM   11  C   UNL     1      -7.331   4.706  66.940  1.00  0.00    -0.081 C  
HETATM   12  N   UNL     1      -7.557   3.596  66.694  1.00  0.00    -0.080 NA 
ENDBRANCH   6  10
TORSDOF 1
ENDMDL
MODEL      199
REMARK 921   NORMALIZED FREE ENERGY PREDICTED BY IDOCK:   -1.70 KCAL/MOL
REMARK 922        TOTAL FREE ENERGY PREDICTED BY IDOCK:   -1.92 KCAL/MOL
REMARK 923 INTER-LIGAND FREE ENERGY PREDICTED BY IDOCK:   -1.84 KCAL/MOL
REMARK 924 INTRA-LIGAND FREE ENERGY PREDICTED BY IDOCK:   -0.07 KCAL/MOL
REMARK 927      BINDING AFFINITY PREDICTED BY RF-SCORE:    0.00 PKD
ROOT
HETATM    1 BR   UNL     1     -10.555   3.746  64.370  1.00  0.00    -0.138 Br 
HETATM    2  C   UNL     1      -9.465   3.872  65.986  1.00  0.00    -0.180 C  
HETATM    3  C   UNL     1      -9.166   5.321  66.387  1.00  0.00    -0.144 C  
HETATM    4 BR   UNL     1      -7.981   5.210  67.998  1.00  0.00    -0.091 Br 
HETATM    5  C   UNL     1     -10.451   5.975  66.867  1.00  0.00    -0.280 C  
HETATM    6  C   UNL     1      -8.453   6.195  65.339  1.00  0.00    -0.138 C  
HETATM    7  N   UNL     1     -11.517   6.517  67.266  1.00  0.00    -0.743 NA 
HETATM    8  H2  UNL     1     -10.655   6.078  66.943  1.00  0.00     0.000 HD 
HETATM    9  H1  UNL     1     -12.380   6.956  67.588  1.00  0.00     0.000 HD 
ENDROOT
BRANCH   6  10
HETATM   10  C   UNL     1      -7.182   5.578  64.736  1.00  0.00    -0.062 C  
HETATM   11  C   UNL     1      -6.087   6.556  64.714  1.00  0.00    -0.037 C  
HETATM   12  N   UNL     1      -5.223   7.328  64.699  1.00  0.00    -0.028 NA 
ENDBRANCH   6  10
TORSDOF 1
ENDMDL
MODEL      200
REMARK 921   NORMALIZED FREE ENERGY PREDICTED BY IDOCK:   -1.67 KCAL/MOL
REMARK 922        TOTAL FREE ENERGY PREDICTED BY IDOCK:   -1.88 KCAL/MOL
REMARK 923 INTER-LIGAND FREE ENERGY PREDICTED BY IDOCK:   -2.55 KCAL/MOL
REMARK 924 INTRA-LIGAND FREE ENERGY PREDICTED BY IDOCK:    0.67 KCAL/MOL
REMARK 927      BINDING AFFINITY PREDICTED BY RF-SCORE:    0.00 PKD
ROOT
HETATM    1 BR   UNL     1     -11.634   6.430  71.835  1.00  0.00    -0.375 Br 
HETATM    2  C   UNL     1     -11.771   6.350  69.887  1.00  0.00    -0.239 C  
HETATM    3  C   UNL     1     -10.411   6.167  69.206  1.00  0.00    -0.254 C  
HETATM    4 BR   UNL     1     -10.777   6.197  67.236  1.00  0.00    -0.446 Br 
HETATM    5  C   UNL     1      -9.895   4.769  69.505  1.00  0.00    -0.222 C  
HETATM    6  C   UNL     1      -9.340   7.233  69.500  1.00  0.00    -0.152 C  
HETATM    7  N   UNL     1      -9.466   3.609  69.753  1.00  0.00    -0.182 NA 
HETATM    8  H2  UNL     1      -9.813   4.547  69.553  1.00  0.00     0.000 HD 
HETATM    9  H1  UNL     1      -9.119   2.671  69.954  1.00  0.00     0.000 HD 
ENDROOT
BRANCH   6  10
HETATM   10  C   UNL     1      -9.798   8.685  69.303  1.00  0.00    -0.188 C  
HETATM   11  C   UNL     1     -10.412   9.209  70.529  1.00  0.00    -0.236 C  
HETATM   12  N   UNL     1     -10.894   9.623  71.499  1.00  0.00    -0.261 NA 
ENDBRANCH   6  10
TORSDOF 1
ENDMDL
MODEL      201
REMARK 921   NORMALIZED FREE ENERGY PREDICTED BY IDOCK:   -1.66 KCAL/MOL
REMARK 922        TOTAL FREE ENERGY PREDICTED BY IDOCK:   -1.88 KCAL/MOL
REMARK 923 INTER-LIGAND FREE ENERGY PREDICTED BY IDOCK:   -1.81 KCAL/MOL
REMARK 924 INTRA-LIGAND FREE ENERGY PREDICTED BY IDOCK:   -0.06 KCAL/MOL
REMARK 927      BINDING AFFINITY PREDICTED BY RF-SCORE:    0.00 PKD
ROOT
HETATM    1 BR   UNL     1      -8.574  10.823  65.620  1.00  0.00    -0.170 Br 
HETATM    2  C   UNL     1      -7.650  10.049  67.158  1.00  0.00    -0.092 C  
HETATM    3  C   UNL     1      -8.416   8.876  67.779  1.00  0.00    -0.125 C  
HETATM    4 BR   UNL     1      -7.341   8.300  69.368  1.00  0.00    -0.075 Br 
HETATM    5  C   UNL     1      -8.383   7.701  66.815  1.00  0.00    -0.125 C  
HETATM    6  C   UNL     1      -9.849   9.162  68.261  1.00  0.00    -0.181 C  
HETATM    7  N   UNL     1      -8.356   6.726  66.015  1.00  0.00    -0.128 NA 
HETATM    8  H2  UNL     1      -8.378   7.514  66.662  1.00  0.00     0.000 HD 
HETATM    9  H1  UNL     1      -8.335   5.938  65.369  1.00  0.00     0.000 HD 
ENDROOT
BRANCH   6  10
HETATM   10  C   UNL     1      -9.993  10.385  69.179  1.00  0.00    -0.237 C  
HETATM   11  C   UNL     1     -11.329  10.980  69.050  1.00  0.00    -0.277 C  
HETATM   12  N   UNL     1     -12.385  11.446  68.950  1.00  0.00    -0.404 NA 
ENDBRANCH   6  10
TORSDOF 1
ENDMDL
MODEL      202
REMARK 921   NORMALIZED FREE ENERGY PREDICTED BY IDOCK:   -1.65 KCAL/MOL
REMARK 922        TOTAL FREE ENERGY PREDICTED BY IDOCK:   -1.86 KCAL/MOL
REMARK 923 INTER-LIGAND FREE ENERGY PREDICTED BY IDOCK:   -1.75 KCAL/MOL
REMARK 924 INTRA-LIGAND FREE ENERGY PREDICTED BY IDOCK:   -0.11 KCAL/MOL
REMARK 927      BINDING AFFINITY PREDICTED BY RF-SCORE:    0.00 PKD
ROOT
HETATM    1 BR   UNL     1     -10.628   9.304  67.614  1.00  0.00    -0.284 Br 
HETATM    2  C   UNL     1      -9.656  10.864  68.276  1.00  0.00    -0.167 C  
HETATM    3  C   UNL     1      -8.608  11.374  67.281  1.00  0.00    -0.146 C  
HETATM    4 BR   UNL     1      -7.688  12.904  68.190  1.00  0.00    -0.149 Br 
HETATM    5  C   UNL     1      -9.320  11.978  66.081  1.00  0.00    -0.211 C  
HETATM    6  C   UNL     1      -7.526  10.371  66.841  1.00  0.00    -0.107 C  
HETATM    7  N   UNL     1      -9.910  12.479  65.086  1.00  0.00    -0.448 NA 
HETATM    8  H2  UNL     1      -9.433  12.074  65.891  1.00  0.00     0.000 HD 
HETATM    9  H1  UNL     1     -10.388  12.884  64.281  1.00  0.00     0.000 HD 
ENDROOT
BRANCH   6  10
HETATM   10  C   UNL     1      -6.806   9.648  67.989  1.00  0.00    -0.073 C  
HETATM   11  C   UNL     1      -7.018   8.198  67.906  1.00  0.00    -0.078 C  
HETATM   12  N   UNL     1      -7.184   7.052  67.838  1.00  0.00    -0.089 NA 
ENDBRANCH   6  10
TORSDOF 1
ENDMDL
MODEL      203
REMARK 921   NORMALIZED FREE ENERGY PREDICTED BY IDOCK:   -1.65 KCAL/MOL
REMARK 922        TOTAL FREE ENERGY PREDICTED BY IDOCK:   -1.86 KCAL/MOL
REMARK 923 INTER-LIGAND FREE ENERGY PREDICTED BY IDOCK:   -1.84 KCAL/MOL
REMARK 924 INTRA-LIGAND FREE ENERGY PREDICTED BY IDOCK:   -0.01 KCAL/MOL
REMARK 927      BINDING AFFINITY PREDICTED BY RF-SCORE:    0.00 PKD
ROOT
HETATM    1 BR   UNL     1     -11.840   6.597  70.691  1.00  0.00    -0.379 Br 
HETATM    2  C   UNL     1      -9.933   6.188  70.822  1.00  0.00    -0.189 C  
HETATM    3  C   UNL     1      -9.124   7.336  71.434  1.00  0.00    -0.142 C  
HETATM    4 BR   UNL     1      -7.212   6.739  71.394  1.00  0.00    -0.082 Br 
HETATM    5  C   UNL     1      -9.482   7.462  72.906  1.00  0.00    -0.170 C  
HETATM    6  C   UNL     1      -9.205   8.697  70.721  1.00  0.00    -0.223 C  
HETATM    7  N   UNL     1      -9.780   7.568  74.127  1.00  0.00    -0.390 NA 
HETATM    8  H2  UNL     1      -9.539   7.483  73.139  1.00  0.00     0.000 HD 
HETATM    9  H1  UNL     1     -10.021   7.653  75.114  1.00  0.00     0.000 HD 
ENDROOT
BRANCH   6  10
HETATM   10  C   UNL     1      -8.936   8.655  69.210  1.00  0.00    -0.145 C  
HETATM   11  C   UNL     1      -7.645   9.279  68.892  1.00  0.00    -0.075 C  
HETATM   12  N   UNL     1      -6.625   9.770  68.643  1.00  0.00    -0.051 NA 
ENDBRANCH   6  10
TORSDOF 1
ENDMDL
MODEL      204
REMARK 921   NORMALIZED FREE ENERGY PREDICTED BY IDOCK:   -1.63 KCAL/MOL
REMARK 922        TOTAL FREE ENERGY PREDICTED BY IDOCK:   -1.84 KCAL/MOL
REMARK 923 INTER-LIGAND FREE ENERGY PREDICTED BY IDOCK:   -1.75 KCAL/MOL
REMARK 924 INTRA-LIGAND FREE ENERGY PREDICTED BY IDOCK:   -0.10 KCAL/MOL
REMARK 927      BINDING AFFINITY PREDICTED BY RF-SCORE:    0.00 PKD
ROOT
HETATM    1 BR   UNL     1     -10.088   8.555  71.840  1.00  0.00    -0.394 Br 
HETATM    2  C   UNL     1     -10.123   7.832  70.025  1.00  0.00    -0.201 C  
HETATM    3  C   UNL     1      -8.873   7.011  69.691  1.00  0.00    -0.141 C  
HETATM    4 BR   UNL     1      -9.082   6.448  67.780  1.00  0.00    -0.109 Br 
HETATM    5  C   UNL     1      -8.896   5.726  70.502  1.00  0.00    -0.139 C  
HETATM    6  C   UNL     1      -7.518   7.730  69.822  1.00  0.00    -0.089 C  
HETATM    7  N   UNL     1      -8.915   4.660  71.175  1.00  0.00    -0.120 NA 
HETATM    8  H2  UNL     1      -8.899   5.522  70.631  1.00  0.00     0.000 HD 
HETATM    9  H1  UNL     1      -8.930   3.797  71.719  1.00  0.00     0.000 HD 
ENDROOT
BRANCH   6  10
HETATM   10  C   UNL     1      -7.427   9.081  69.099  1.00  0.00    -0.072 C  
HETATM   11  C   UNL     1      -6.825  10.099  69.970  1.00  0.00    -0.137 C  
HETATM   12  N   UNL     1      -6.346  10.900  70.657  1.00  0.00    -0.343 NA 
ENDBRANCH   6  10
TORSDOF 1
ENDMDL
MODEL      205
REMARK 921   NORMALIZED FREE ENERGY PREDICTED BY IDOCK:   -1.62 KCAL/MOL
REMARK 922        TOTAL FREE ENERGY PREDICTED BY IDOCK:   -1.83 KCAL/MOL
REMARK 923 INTER-LIGAND FREE ENERGY PREDICTED BY IDOCK:   -1.77 KCAL/MOL
REMARK 924 INTRA-LIGAND FREE ENERGY PREDICTED BY IDOCK:   -0.06 KCAL/MOL
REMARK 927      BINDING AFFINITY PREDICTED BY RF-SCORE:    0.00 PKD
ROOT
HETATM    1 BR   UNL     1      -8.501   6.146  66.653  1.00  0.00    -0.119 Br 
HETATM    2  C   UNL     1      -9.320   7.878  66.271  1.00  0.00    -0.164 C  
HETATM    3  C   UNL     1      -8.801   8.992  67.185  1.00  0.00    -0.119 C  
HETATM    4 BR   UNL     1      -9.825  10.638  66.678  1.00  0.00    -0.256 Br 
HETATM    5  C   UNL     1      -7.352   9.286  66.830  1.00  0.00    -0.086 C  
HETATM    6  C   UNL     1      -8.972   8.781  68.700  1.00  0.00    -0.138 C  
HETATM    7  N   UNL     1      -6.151   9.529  66.535  1.00  0.00    -0.059 NA 
HETATM    8  H2  UNL     1      -7.123   9.332  66.774  1.00  0.00     0.000 HD 
HETATM    9  H1  UNL     1      -5.179   9.726  66.297  1.00  0.00     0.000 HD 
ENDROOT
BRANCH   6  10
HETATM   10  C   UNL     1     -10.391   8.400  69.145  1.00  0.00    -0.229 C  
HETATM   11  C   UNL     1     -10.684   8.945  70.477  1.00  0.00    -0.230 C  
HETATM   12  N   UNL     1     -10.915   9.379  71.527  1.00  0.00    -0.372 NA 
ENDBRANCH   6  10
TORSDOF 1
ENDMDL
MODEL      206
REMARK 921   NORMALIZED FREE ENERGY PREDICTED BY IDOCK:   -1.61 KCAL/MOL
REMARK 922        TOTAL FREE ENERGY PREDICTED BY IDOCK:   -1.82 KCAL/MOL
REMARK 923 INTER-LIGAND FREE ENERGY PREDICTED BY IDOCK:   -1.74 KCAL/MOL
REMARK 924 INTRA-LIGAND FREE ENERGY PREDICTED BY IDOCK:   -0.08 KCAL/MOL
REMARK 927      BINDING AFFINITY PREDICTED BY RF-SCORE:    0.00 PKD
ROOT
HETATM    1 BR   UNL     1      -6.697   5.783  71.511  1.00  0.00    -0.060 Br 
HETATM    2  C   UNL     1      -7.671   6.496  69.974  1.00  0.00    -0.102 C  
HETATM    3  C   UNL     1      -9.176   6.618  70.234  1.00  0.00    -0.156 C  
HETATM    4 BR   UNL     1      -9.975   7.279  68.520  1.00  0.00    -0.178 Br 
HETATM    5  C   UNL     1      -9.413   7.723  71.250  1.00  0.00    -0.153 C  
HETATM    6  C   UNL     1      -9.917   5.328  70.629  1.00  0.00    -0.287 C  
HETATM    7  N   UNL     1      -9.610   8.640  72.093  1.00  0.00    -0.309 NA 
HETATM    8  H2  UNL     1      -9.451   7.898  71.411  1.00  0.00     0.000 HD 
HETATM    9  H1  UNL     1      -9.769   9.382  72.774  1.00  0.00     0.000 HD 
ENDROOT
BRANCH   6  10
HETATM   10  C   UNL     1      -9.673   4.129  69.702  1.00  0.00    -0.269 C  
HETATM   11  C   UNL     1      -9.561   2.885  70.475  1.00  0.00    -0.102 C  
HETATM   12  N   UNL     1      -9.477   1.904  71.087  1.00  0.00    -0.127 NA 
ENDBRANCH   6  10
TORSDOF 1
ENDMDL
MODEL      207
REMARK 921   NORMALIZED FREE ENERGY PREDICTED BY IDOCK:   -1.57 KCAL/MOL
REMARK 922        TOTAL FREE ENERGY PREDICTED BY IDOCK:   -1.78 KCAL/MOL
REMARK 923 INTER-LIGAND FREE ENERGY PREDICTED BY IDOCK:   -1.73 KCAL/MOL
REMARK 924 INTRA-LIGAND FREE ENERGY PREDICTED BY IDOCK:   -0.05 KCAL/MOL
REMARK 927      BINDING AFFINITY PREDICTED BY RF-SCORE:    0.00 PKD
ROOT
HETATM    1 BR   UNL     1      -7.897   4.296  70.784  1.00  0.00    -0.060 Br 
HETATM    2  C   UNL     1      -7.726   5.399  72.388  1.00  0.00    -0.102 C  
HETATM    3  C   UNL     1      -8.992   6.208  72.688  1.00  0.00    -0.130 C  
HETATM    4 BR   UNL     1      -8.566   7.313  74.304  1.00  0.00    -0.250 Br 
HETATM    5  C   UNL     1     -10.094   5.255  73.122  1.00  0.00    -0.180 C  
HETATM    6  C   UNL     1      -9.481   7.161  71.583  1.00  0.00    -0.159 C  
HETATM    7  N   UNL     1     -11.009   4.465  73.482  1.00  0.00    -0.270 NA 
HETATM    8  H2  UNL     1     -10.269   5.104  73.191  1.00  0.00     0.000 HD 
HETATM    9  H1  UNL     1     -11.749   3.826  73.773  1.00  0.00     0.000 HD 
ENDROOT
BRANCH   6  10
HETATM   10  C   UNL     1      -8.411   8.110  71.024  1.00  0.00    -0.144 C  
HETATM   11  C   UNL     1      -9.031   9.229  70.303  1.00  0.00    -0.229 C  
HETATM   12  N   UNL     1      -9.522  10.114  69.737  1.00  0.00    -0.204 NA 
ENDBRANCH   6  10
TORSDOF 1
ENDMDL
MODEL      208
REMARK 921   NORMALIZED FREE ENERGY PREDICTED BY IDOCK:   -1.56 KCAL/MOL
REMARK 922        TOTAL FREE ENERGY PREDICTED BY IDOCK:   -1.77 KCAL/MOL
REMARK 923 INTER-LIGAND FREE ENERGY PREDICTED BY IDOCK:   -1.66 KCAL/MOL
REMARK 924 INTRA-LIGAND FREE ENERGY PREDICTED BY IDOCK:   -0.10 KCAL/MOL
REMARK 927      BINDING AFFINITY PREDICTED BY RF-SCORE:    0.00 PKD
ROOT
HETATM    1 BR   UNL     1      -7.452   5.700  69.146  1.00  0.00    -0.084 Br 
HETATM    2  C   UNL     1      -7.438   7.614  68.752  1.00  0.00    -0.100 C  
HETATM    3  C   UNL     1      -8.752   8.305  69.129  1.00  0.00    -0.143 C  
HETATM    4 BR   UNL     1      -8.546  10.217  68.567  1.00  0.00    -0.124 Br 
HETATM    5  C   UNL     1      -8.878   8.334  70.643  1.00  0.00    -0.143 C  
HETATM    6  C   UNL     1     -10.034   7.759  68.473  1.00  0.00    -0.193 C  
HETATM    7  N   UNL     1      -8.982   8.358  71.900  1.00  0.00    -0.193 NA 
HETATM    8  H2  UNL     1      -8.898   8.339  70.883  1.00  0.00     0.000 HD 
HETATM    9  H1  UNL     1      -9.066   8.378  72.916  1.00  0.00     0.000 HD 
ENDROOT
BRANCH   6  10
HETATM   10  C   UNL     1      -9.971   7.618  66.945  1.00  0.00    -0.325 C  
HETATM   11  C   UNL     1     -10.097   6.210  66.546  1.00  0.00    -0.121 C  
HETATM   12  N   UNL     1     -10.200   5.099  66.232  1.00  0.00    -0.238 NA 
ENDBRANCH   6  10
TORSDOF 1
ENDMDL
MODEL      209
REMARK 921   NORMALIZED FREE ENERGY PREDICTED BY IDOCK:   -1.50 KCAL/MOL
REMARK 922        TOTAL FREE ENERGY PREDICTED BY IDOCK:   -1.71 KCAL/MOL
REMARK 923 INTER-LIGAND FREE ENERGY PREDICTED BY IDOCK:   -1.82 KCAL/MOL
REMARK 924 INTRA-LIGAND FREE ENERGY PREDICTED BY IDOCK:    0.12 KCAL/MOL
REMARK 927      BINDING AFFINITY PREDICTED BY RF-SCORE:    0.00 PKD
ROOT
HETATM    1 BR   UNL     1      -7.458   6.116  64.900  1.00  0.00    -0.089 Br 
HETATM    2  C   UNL     1      -7.651   5.317  66.673  1.00  0.00    -0.088 C  
HETATM    3  C   UNL     1      -8.991   4.595  66.852  1.00  0.00    -0.113 C  
HETATM    4 BR   UNL     1      -9.007   3.934  68.744  1.00  0.00    -0.189 Br 
HETATM    5  C   UNL     1      -8.998   3.348  65.983  1.00  0.00    -0.143 C  
HETATM    6  C   UNL     1     -10.264   5.433  66.637  1.00  0.00    -0.285 C  
HETATM    7  N   UNL     1      -9.005   2.313  65.262  1.00  0.00    -0.123 NA 
HETATM    8  H2  UNL     1      -9.000   3.150  65.845  1.00  0.00     0.000 HD 
HETATM    9  H1  UNL     1      -9.010   1.477  64.679  1.00  0.00     0.000 HD 
ENDROOT
BRANCH   6  10
HETATM   10  C   UNL     1     -10.309   6.755  67.416  1.00  0.00    -0.286 C  
HETATM   11  C   UNL     1     -11.086   6.606  68.653  1.00  0.00    -0.213 C  
HETATM   12  N   UNL     1     -11.698   6.486  69.630  1.00  0.00    -0.295 NA 
ENDBRANCH   6  10
TORSDOF 1
ENDMDL
MODEL      210
REMARK 921   NORMALIZED FREE ENERGY PREDICTED BY IDOCK:   -1.47 KCAL/MOL
REMARK 922        TOTAL FREE ENERGY PREDICTED BY IDOCK:   -1.67 KCAL/MOL
REMARK 923 INTER-LIGAND FREE ENERGY PREDICTED BY IDOCK:   -1.59 KCAL/MOL
REMARK 924 INTRA-LIGAND FREE ENERGY PREDICTED BY IDOCK:   -0.08 KCAL/MOL
REMARK 927      BINDING AFFINITY PREDICTED BY RF-SCORE:    0.00 PKD
ROOT
HETATM    1 BR   UNL     1      -8.880  11.213  66.006  1.00  0.00    -0.186 Br 
HETATM    2  C   UNL     1      -7.496   9.985  65.377  1.00  0.00    -0.139 C  
HETATM    3  C   UNL     1      -8.075   8.714  64.747  1.00  0.00    -0.149 C  
HETATM    4 BR   UNL     1      -6.499   7.579  64.256  1.00  0.00    -0.048 Br 
HETATM    5  C   UNL     1      -8.745   9.077  63.431  1.00  0.00    -0.082 C  
HETATM    6  C   UNL     1      -9.006   7.866  65.632  1.00  0.00    -0.077 C  
HETATM    7  N   UNL     1      -9.300   9.377  62.340  1.00  0.00    -0.580 NA 
HETATM    8  H2  UNL     1      -8.851   9.134  63.223  1.00  0.00     0.000 HD 
HETATM    9  H1  UNL     1      -9.749   9.620  61.457  1.00  0.00     0.000 HD 
ENDROOT
BRANCH   6  10
HETATM   10  C   UNL     1      -8.445   7.518  67.018  1.00  0.00    -0.122 C  
HETATM   11  C   UNL     1      -8.437   6.065  67.228  1.00  0.00    -0.104 C  
HETATM   12  N   UNL     1      -8.429   4.917  67.391  1.00  0.00    -0.105 NA 
ENDBRANCH   6  10
TORSDOF 1
ENDMDL
MODEL      211
REMARK 921   NORMALIZED FREE ENERGY PREDICTED BY IDOCK:   -1.45 KCAL/MOL
REMARK 922        TOTAL FREE ENERGY PREDICTED BY IDOCK:   -1.65 KCAL/MOL
REMARK 923 INTER-LIGAND FREE ENERGY PREDICTED BY IDOCK:   -1.54 KCAL/MOL
REMARK 924 INTRA-LIGAND FREE ENERGY PREDICTED BY IDOCK:   -0.11 KCAL/MOL
REMARK 927      BINDING AFFINITY PREDICTED BY RF-SCORE:    0.00 PKD
ROOT
HETATM    1 BR   UNL     1     -10.131  10.525  68.229  1.00  0.00    -0.190 Br 
HETATM    2  C   UNL     1     -10.571   8.653  68.579  1.00  0.00    -0.119 C  
HETATM    3  C   UNL     1      -9.327   7.781  68.778  1.00  0.00    -0.146 C  
HETATM    4 BR   UNL     1     -10.003   5.913  69.035  1.00  0.00    -0.233 Br 
HETATM    5  C   UNL     1      -8.663   8.161  70.091  1.00  0.00    -0.130 C  
HETATM    6  C   UNL     1      -8.308   7.756  67.624  1.00  0.00    -0.121 C  
HETATM    7  N   UNL     1      -8.112   8.476  71.181  1.00  0.00    -0.120 NA 
HETATM    8  H2  UNL     1      -8.558   8.221  70.300  1.00  0.00     0.000 HD 
HETATM    9  H1  UNL     1      -7.667   8.731  72.063  1.00  0.00     0.000 HD 
ENDROOT
BRANCH   6  10
HETATM   10  C   UNL     1      -8.902   7.459  66.240  1.00  0.00    -0.182 C  
HETATM   11  C   UNL     1      -8.676   8.584  65.323  1.00  0.00    -0.140 C  
HETATM   12  N   UNL     1      -8.495   9.472  64.600  1.00  0.00    -0.154 NA 
ENDBRANCH   6  10
TORSDOF 1
ENDMDL
MODEL      212
REMARK 921   NORMALIZED FREE ENERGY PREDICTED BY IDOCK:   -1.39 KCAL/MOL
REMARK 922        TOTAL FREE ENERGY PREDICTED BY IDOCK:   -1.58 KCAL/MOL
REMARK 923 INTER-LIGAND FREE ENERGY PREDICTED BY IDOCK:   -1.47 KCAL/MOL
REMARK 924 INTRA-LIGAND FREE ENERGY PREDICTED BY IDOCK:   -0.11 KCAL/MOL
REMARK 927      BINDING AFFINITY PREDICTED BY RF-SCORE:    0.00 PKD
ROOT
HETATM    1 BR   UNL     1      -7.674   2.593  68.347  1.00  0.00    -0.056 Br 
HETATM    2  C   UNL     1      -7.520   4.187  69.466  1.00  0.00    -0.054 C  
HETATM    3  C   UNL     1      -8.813   4.505  70.223  1.00  0.00    -0.083 C  
HETATM    4 BR   UNL     1      -8.457   6.203  71.226  1.00  0.00    -0.125 Br 
HETATM    5  C   UNL     1      -9.038   3.441  71.285  1.00  0.00    -0.107 C  
HETATM    6  C   UNL     1     -10.078   4.720  69.372  1.00  0.00    -0.241 C  
HETATM    7  N   UNL     1      -9.224   2.558  72.166  1.00  0.00    -0.085 NA 
HETATM    8  H2  UNL     1      -9.073   3.272  71.453  1.00  0.00     0.000 HD 
HETATM    9  H1  UNL     1      -9.374   1.844  72.878  1.00  0.00     0.000 HD 
ENDROOT
BRANCH   6  10
HETATM   10  C   UNL     1      -9.922   5.722  68.219  1.00  0.00    -0.185 C  
HETATM   11  C   UNL     1     -10.293   5.106  66.939  1.00  0.00    -0.240 C  
HETATM   12  N   UNL     1     -10.588   4.619  65.929  1.00  0.00    -0.294 NA 
ENDBRANCH   6  10
TORSDOF 1
ENDMDL
MODEL      213
REMARK 921   NORMALIZED FREE ENERGY PREDICTED BY IDOCK:   -1.37 KCAL/MOL
REMARK 922        TOTAL FREE ENERGY PREDICTED BY IDOCK:   -1.57 KCAL/MOL
REMARK 923 INTER-LIGAND FREE ENERGY PREDICTED BY IDOCK:   -1.52 KCAL/MOL
REMARK 924 INTRA-LIGAND FREE ENERGY PREDICTED BY IDOCK:   -0.05 KCAL/MOL
REMARK 927      BINDING AFFINITY PREDICTED BY RF-SCORE:    0.00 PKD
ROOT
HETATM    1 BR   UNL     1      -7.547   7.582  69.895  1.00  0.00    -0.094 Br 
HETATM    2  C   UNL     1      -7.543   7.599  67.941  1.00  0.00    -0.117 C  
HETATM    3  C   UNL     1      -8.891   7.182  67.344  1.00  0.00    -0.119 C  
HETATM    4 BR   UNL     1      -8.635   7.189  65.357  1.00  0.00     0.017 Br 
HETATM    5  C   UNL     1      -9.914   8.269  67.629  1.00  0.00    -0.190 C  
HETATM    6  C   UNL     1      -9.425   5.794  67.743  1.00  0.00    -0.116 C  
HETATM    7  N   UNL     1     -10.763   9.171  67.865  1.00  0.00    -0.431 NA 
HETATM    8  H2  UNL     1     -10.076   8.442  67.674  1.00  0.00     0.000 HD 
HETATM    9  H1  UNL     1     -11.450   9.901  68.056  1.00  0.00     0.000 HD 
ENDROOT
BRANCH   6  10
HETATM   10  C   UNL     1      -8.429   4.640  67.565  1.00  0.00    -0.104 C  
HETATM   11  C   UNL     1      -9.046   3.358  67.930  1.00  0.00    -0.163 C  
HETATM   12  N   UNL     1      -9.535   2.346  68.215  1.00  0.00    -0.205 NA 
ENDBRANCH   6  10
TORSDOF 1
ENDMDL
MODEL      214
REMARK 921   NORMALIZED FREE ENERGY PREDICTED BY IDOCK:   -1.29 KCAL/MOL
REMARK 922        TOTAL FREE ENERGY PREDICTED BY IDOCK:   -1.48 KCAL/MOL
REMARK 923 INTER-LIGAND FREE ENERGY PREDICTED BY IDOCK:   -1.41 KCAL/MOL
REMARK 924 INTRA-LIGAND FREE ENERGY PREDICTED BY IDOCK:   -0.07 KCAL/MOL
REMARK 927      BINDING AFFINITY PREDICTED BY RF-SCORE:    0.00 PKD
ROOT
HETATM    1 BR   UNL     1     -10.909  17.853  69.289  1.00  0.00     0.952 Br 
HETATM    2  C   UNL     1      -9.235  17.648  68.303  1.00  0.00    -0.283 C  
HETATM    3  C   UNL     1      -9.456  17.257  66.838  1.00  0.00    -0.257 C  
HETATM    4 BR   UNL     1      -7.628  17.021  66.053  1.00  0.00     0.067 Br 
HETATM    5  C   UNL     1     -10.069  18.436  66.100  1.00  0.00    -0.360 C  
HETATM    6  C   UNL     1     -10.248  15.963  66.579  1.00  0.00    -0.297 C  
HETATM    7  N   UNL     1     -10.578  19.414  65.488  1.00  0.00    -0.480 NA 
HETATM    8  H2  UNL     1     -10.167  18.623  65.983  1.00  0.00     0.000 HD 
HETATM    9  H1  UNL     1     -10.990  20.205  64.993  1.00  0.00     0.000 HD 
ENDROOT
BRANCH   6  10
HETATM   10  C   UNL     1      -9.749  14.731  67.347  1.00  0.00    -0.214 C  
HETATM   11  C   UNL     1      -9.784  13.535  66.496  1.00  0.00    -0.283 C  
HETATM   12  N   UNL     1      -9.809  12.593  65.821  1.00  0.00    -0.255 NA 
ENDBRANCH   6  10
TORSDOF 1
ENDMDL
MODEL      215
REMARK 921   NORMALIZED FREE ENERGY PREDICTED BY IDOCK:   -1.27 KCAL/MOL
REMARK 922        TOTAL FREE ENERGY PREDICTED BY IDOCK:   -1.46 KCAL/MOL
REMARK 923 INTER-LIGAND FREE ENERGY PREDICTED BY IDOCK:   -1.34 KCAL/MOL
REMARK 924 INTRA-LIGAND FREE ENERGY PREDICTED BY IDOCK:   -0.12 KCAL/MOL
REMARK 927      BINDING AFFINITY PREDICTED BY RF-SCORE:    0.00 PKD
ROOT
HETATM    1 BR   UNL     1      -9.216   2.133  68.268  1.00  0.00    -0.252 Br 
HETATM    2  C   UNL     1      -7.978   3.553  68.788  1.00  0.00    -0.061 C  
HETATM    3  C   UNL     1      -8.433   4.937  68.314  1.00  0.00    -0.098 C  
HETATM    4 BR   UNL     1      -6.992   6.209  68.877  1.00  0.00    -0.074 Br 
HETATM    5  C   UNL     1      -9.669   5.346  69.098  1.00  0.00    -0.159 C  
HETATM    6  C   UNL     1      -8.648   5.113  66.800  1.00  0.00    -0.109 C  
HETATM    7  N   UNL     1     -10.695   5.684  69.748  1.00  0.00    -0.335 NA 
HETATM    8  H2  UNL     1      -9.865   5.410  69.222  1.00  0.00     0.000 HD 
HETATM    9  H1  UNL     1     -11.525   5.959  70.274  1.00  0.00     0.000 HD 
ENDROOT
BRANCH   6  10
HETATM   10  C   UNL     1      -7.479   4.650  65.920  1.00  0.00    -0.082 C  
HETATM   11  C   UNL     1      -7.924   3.642  64.949  1.00  0.00    -0.090 C  
HETATM   12  N   UNL     1      -8.277   2.849  64.181  1.00  0.00    -0.082 NA 
ENDBRANCH   6  10
TORSDOF 1
ENDMDL
MODEL      216
REMARK 921   NORMALIZED FREE ENERGY PREDICTED BY IDOCK:   -1.23 KCAL/MOL
REMARK 922        TOTAL FREE ENERGY PREDICTED BY IDOCK:   -1.42 KCAL/MOL
REMARK 923 INTER-LIGAND FREE ENERGY PREDICTED BY IDOCK:   -1.31 KCAL/MOL
REMARK 924 INTRA-LIGAND FREE ENERGY PREDICTED BY IDOCK:   -0.10 KCAL/MOL
REMARK 927      BINDING AFFINITY PREDICTED BY RF-SCORE:    0.00 PKD
ROOT
HETATM    1 BR   UNL     1      -6.836   7.640  68.460  1.00  0.00    -0.068 Br 
HETATM    2  C   UNL     1      -8.107   8.897  67.672  1.00  0.00    -0.106 C  
HETATM    3  C   UNL     1      -8.149  10.237  68.413  1.00  0.00    -0.109 C  
HETATM    4 BR   UNL     1      -9.561  11.324  67.498  1.00  0.00    -0.185 Br 
HETATM    5  C   UNL     1      -6.843  10.975  68.171  1.00  0.00    -0.067 C  
HETATM    6  C   UNL     1      -8.493  10.189  69.913  1.00  0.00    -0.106 C  
HETATM    7  N   UNL     1      -5.759  11.588  67.970  1.00  0.00    -0.043 NA 
HETATM    8  H2  UNL     1      -6.635  11.092  68.132  1.00  0.00     0.000 HD 
HETATM    9  H1  UNL     1      -4.882  12.083  67.807  1.00  0.00     0.000 HD 
ENDROOT
BRANCH   6  10
HETATM   10  C   UNL     1      -9.758   9.393  70.263  1.00  0.00    -0.292 C  
HETATM   11  C   UNL     1      -9.498   8.460  71.367  1.00  0.00    -0.192 C  
HETATM   12  N   UNL     1      -9.293   7.726  72.240  1.00  0.00    -0.147 NA 
ENDBRANCH   6  10
TORSDOF 1
ENDMDL
MODEL      217
REMARK 921   NORMALIZED FREE ENERGY PREDICTED BY IDOCK:   -1.22 KCAL/MOL
REMARK 922        TOTAL FREE ENERGY PREDICTED BY IDOCK:   -1.41 KCAL/MOL
REMARK 923 INTER-LIGAND FREE ENERGY PREDICTED BY IDOCK:   -1.37 KCAL/MOL
REMARK 924 INTRA-LIGAND FREE ENERGY PREDICTED BY IDOCK:   -0.04 KCAL/MOL
REMARK 927      BINDING AFFINITY PREDICTED BY RF-SCORE:    0.00 PKD
ROOT
HETATM    1 BR   UNL     1      -9.055   4.098  63.299  1.00  0.00    -0.130 Br 
HETATM    2  C   UNL     1      -9.463   3.374  65.067  1.00  0.00    -0.154 C  
HETATM    3  C   UNL     1      -8.930   4.253  66.203  1.00  0.00    -0.123 C  
HETATM    4 BR   UNL     1      -9.383   3.288  67.900  1.00  0.00    -0.225 Br 
HETATM    5  C   UNL     1      -9.729   5.546  66.242  1.00  0.00    -0.151 C  
HETATM    6  C   UNL     1      -7.416   4.531  66.211  1.00  0.00    -0.082 C  
HETATM    7  N   UNL     1     -10.391   6.619  66.274  1.00  0.00    -0.437 NA 
HETATM    8  H2  UNL     1      -9.855   5.751  66.248  1.00  0.00     0.000 HD 
HETATM    9  H1  UNL     1     -10.926   7.486  66.299  1.00  0.00     0.000 HD 
ENDROOT
BRANCH   6  10
HETATM   10  C   UNL     1      -6.527   3.285  66.094  1.00  0.00    -0.036 C  
HETATM   11  C   UNL     1      -5.782   3.057  67.339  1.00  0.00    -0.022 C  
HETATM   12  N   UNL     1      -5.197   2.876  68.323  1.00  0.00    -0.012 NA 
ENDBRANCH   6  10
TORSDOF 1
ENDMDL
MODEL      218
REMARK 921   NORMALIZED FREE ENERGY PREDICTED BY IDOCK:   -1.19 KCAL/MOL
REMARK 922        TOTAL FREE ENERGY PREDICTED BY IDOCK:   -1.38 KCAL/MOL
REMARK 923 INTER-LIGAND FREE ENERGY PREDICTED BY IDOCK:   -1.30 KCAL/MOL
REMARK 924 INTRA-LIGAND FREE ENERGY PREDICTED BY IDOCK:   -0.07 KCAL/MOL
REMARK 927      BINDING AFFINITY PREDICTED BY RF-SCORE:    0.00 PKD
ROOT
HETATM    1 BR   UNL     1      -7.564   7.606  63.337  1.00  0.00    -0.124 Br 
HETATM    2  C   UNL     1      -6.942   7.086  65.115  1.00  0.00    -0.052 C  
HETATM    3  C   UNL     1      -8.002   6.319  65.911  1.00  0.00    -0.116 C  
HETATM    4 BR   UNL     1      -7.188   5.966  67.708  1.00  0.00    -0.077 Br 
HETATM    5  C   UNL     1      -8.202   4.952  65.277  1.00  0.00    -0.122 C  
HETATM    6  C   UNL     1      -9.347   7.032  66.138  1.00  0.00    -0.090 C  
HETATM    7  N   UNL     1      -8.369   3.819  64.750  1.00  0.00    -0.096 NA 
HETATM    8  H2  UNL     1      -8.234   4.736  65.176  1.00  0.00     0.000 HD 
HETATM    9  H1  UNL     1      -8.503   2.902  64.324  1.00  0.00     0.000 HD 
ENDROOT
BRANCH   6  10
HETATM   10  C   UNL     1      -9.240   8.455  66.703  1.00  0.00    -0.226 C  
HETATM   11  C   UNL     1      -9.959   8.565  67.979  1.00  0.00    -0.183 C  
HETATM   12  N   UNL     1     -10.524   8.650  68.988  1.00  0.00    -0.216 NA 
ENDBRANCH   6  10
TORSDOF 1
ENDMDL
MODEL      219
REMARK 921   NORMALIZED FREE ENERGY PREDICTED BY IDOCK:   -1.19 KCAL/MOL
REMARK 922        TOTAL FREE ENERGY PREDICTED BY IDOCK:   -1.38 KCAL/MOL
REMARK 923 INTER-LIGAND FREE ENERGY PREDICTED BY IDOCK:   -1.48 KCAL/MOL
REMARK 924 INTRA-LIGAND FREE ENERGY PREDICTED BY IDOCK:    0.11 KCAL/MOL
REMARK 927      BINDING AFFINITY PREDICTED BY RF-SCORE:    0.00 PKD
ROOT
HETATM    1 BR   UNL     1     -10.047  11.834  65.461  1.00  0.00    -0.297 Br 
HETATM    2  C   UNL     1     -10.196   9.948  65.953  1.00  0.00    -0.194 C  
HETATM    3  C   UNL     1      -8.835   9.300  66.228  1.00  0.00    -0.146 C  
HETATM    4 BR   UNL     1      -9.217   7.374  66.625  1.00  0.00    -0.208 Br 
HETATM    5  C   UNL     1      -8.265   9.878  67.513  1.00  0.00    -0.114 C  
HETATM    6  C   UNL     1      -7.803   9.348  65.088  1.00  0.00    -0.110 C  
HETATM    7  N   UNL     1      -7.791  10.357  68.579  1.00  0.00    -0.102 NA 
HETATM    8  H2  UNL     1      -8.174   9.969  67.717  1.00  0.00     0.000 HD 
HETATM    9  H1  UNL     1      -7.408  10.745  69.441  1.00  0.00     0.000 HD 
ENDROOT
BRANCH   6  10
HETATM   10  C   UNL     1      -8.316   8.857  63.726  1.00  0.00    -0.164 C  
HETATM   11  C   UNL     1      -7.916   7.464  63.489  1.00  0.00    -0.071 C  
HETATM   12  N   UNL     1      -7.602   6.364  63.304  1.00  0.00    -0.077 NA 
ENDBRANCH   6  10
TORSDOF 1
ENDMDL
MODEL      220
REMARK 921   NORMALIZED FREE ENERGY PREDICTED BY IDOCK:   -1.08 KCAL/MOL
REMARK 922        TOTAL FREE ENERGY PREDICTED BY IDOCK:   -1.25 KCAL/MOL
REMARK 923 INTER-LIGAND FREE ENERGY PREDICTED BY IDOCK:   -1.26 KCAL/MOL
REMARK 924 INTRA-LIGAND FREE ENERGY PREDICTED BY IDOCK:    0.00 KCAL/MOL
REMARK 927      BINDING AFFINITY PREDICTED BY RF-SCORE:    0.00 PKD
ROOT
HETATM    1 BR   UNL     1      -6.179  11.438  66.838  1.00  0.00    -0.143 Br 
HETATM    2  C   UNL     1      -6.971   9.808  66.109  1.00  0.00    -0.095 C  
HETATM    3  C   UNL     1      -8.199   9.342  66.899  1.00  0.00    -0.116 C  
HETATM    4 BR   UNL     1      -8.788   7.633  66.038  1.00  0.00    -0.164 Br 
HETATM    5  C   UNL     1      -9.333  10.328  66.672  1.00  0.00    -0.161 C  
HETATM    6  C   UNL     1      -7.992   9.065  68.399  1.00  0.00    -0.104 C  
HETATM    7  N   UNL     1     -10.275  11.146  66.484  1.00  0.00    -0.223 NA 
HETATM    8  H2  UNL     1      -9.513  10.484  66.636  1.00  0.00     0.000 HD 
HETATM    9  H1  UNL     1     -11.036  11.807  66.331  1.00  0.00     0.000 HD 
ENDROOT
BRANCH   6  10
HETATM   10  C   UNL     1      -6.813   8.140  68.731  1.00  0.00    -0.066 C  
HETATM   11  C   UNL     1      -7.291   6.820  69.164  1.00  0.00    -0.093 C  
HETATM   12  N   UNL     1      -7.669   5.778  69.502  1.00  0.00    -0.090 NA 
ENDBRANCH   6  10
TORSDOF 1
ENDMDL
MODEL      221
REMARK 921   NORMALIZED FREE ENERGY PREDICTED BY IDOCK:   -0.87 KCAL/MOL
REMARK 922        TOTAL FREE ENERGY PREDICTED BY IDOCK:   -1.03 KCAL/MOL
REMARK 923 INTER-LIGAND FREE ENERGY PREDICTED BY IDOCK:   -1.05 KCAL/MOL
REMARK 924 INTRA-LIGAND FREE ENERGY PREDICTED BY IDOCK:    0.02 KCAL/MOL
REMARK 927      BINDING AFFINITY PREDICTED BY RF-SCORE:    0.00 PKD
ROOT
HETATM    1 BR   UNL     1      -8.779   8.950  67.807  1.00  0.00    -0.125 Br 
HETATM    2  C   UNL     1      -7.404   7.660  68.322  1.00  0.00    -0.099 C  
HETATM    3  C   UNL     1      -7.993   6.330  68.803  1.00  0.00    -0.102 C  
HETATM    4 BR   UNL     1      -6.428   5.205  69.351  1.00  0.00    -0.036 Br 
HETATM    5  C   UNL     1      -8.619   5.611  67.619  1.00  0.00    -0.108 C  
HETATM    6  C   UNL     1      -8.965   6.394  69.995  1.00  0.00    -0.146 C  
HETATM    7  N   UNL     1      -9.139   5.015  66.637  1.00  0.00    -0.117 NA 
HETATM    8  H2  UNL     1      -8.719   5.497  67.432  1.00  0.00     0.000 HD 
HETATM    9  H1  UNL     1      -9.560   4.532  65.843  1.00  0.00     0.000 HD 
ENDROOT
BRANCH   6  10
HETATM   10  C   UNL     1      -8.448   7.173  71.213  1.00  0.00    -0.113 C  
HETATM   11  C   UNL     1      -8.059   6.257  72.292  1.00  0.00    -0.108 C  
HETATM   12  N   UNL     1      -7.749   5.532  73.142  1.00  0.00    -0.100 NA 
ENDBRANCH   6  10
TORSDOF 1
ENDMDL
MODEL      222
REMARK 921   NORMALIZED FREE ENERGY PREDICTED BY IDOCK:   -0.79 KCAL/MOL
REMARK 922        TOTAL FREE ENERGY PREDICTED BY IDOCK:   -0.95 KCAL/MOL
REMARK 923 INTER-LIGAND FREE ENERGY PREDICTED BY IDOCK:   -2.41 KCAL/MOL
REMARK 924 INTRA-LIGAND FREE ENERGY PREDICTED BY IDOCK:    1.45 KCAL/MOL
REMARK 927      BINDING AFFINITY PREDICTED BY RF-SCORE:    0.00 PKD
ROOT
HETATM    1 BR   UNL     1      -9.218  13.407  68.332  1.00  0.00    -0.100 Br 
HETATM    2  C   UNL     1      -8.809  12.037  66.999  1.00  0.00    -0.197 C  
HETATM    3  C   UNL     1     -10.068  11.410  66.391  1.00  0.00    -0.218 C  
HETATM    4 BR   UNL     1      -9.420   9.994  65.131  1.00  0.00    -0.354 Br 
HETATM    5  C   UNL     1     -10.763  12.445  65.521  1.00  0.00    -0.280 C  
HETATM    6  C   UNL     1     -11.055  10.750  67.371  1.00  0.00    -0.363 C  
HETATM    7  N   UNL     1     -11.340  13.303  64.800  1.00  0.00    -0.315 NA 
HETATM    8  H2  UNL     1     -10.874  12.609  65.384  1.00  0.00     0.000 HD 
HETATM    9  H1  UNL     1     -11.807  13.997  64.217  1.00  0.00     0.000 HD 
ENDROOT
BRANCH   6  10
HETATM   10  C   UNL     1     -10.426   9.746  68.347  1.00  0.00    -0.250 C  
HETATM   11  C   UNL     1      -9.798   8.635  67.620  1.00  0.00    -0.180 C  
HETATM   12  N   UNL     1      -9.300   7.760  67.045  1.00  0.00    -0.149 NA 
ENDBRANCH   6  10
TORSDOF 1
ENDMDL
MODEL      223
REMARK 921   NORMALIZED FREE ENERGY PREDICTED BY IDOCK:   -0.78 KCAL/MOL
REMARK 922        TOTAL FREE ENERGY PREDICTED BY IDOCK:   -0.94 KCAL/MOL
REMARK 923 INTER-LIGAND FREE ENERGY PREDICTED BY IDOCK:   -1.32 KCAL/MOL
REMARK 924 INTRA-LIGAND FREE ENERGY PREDICTED BY IDOCK:    0.38 KCAL/MOL
REMARK 927      BINDING AFFINITY PREDICTED BY RF-SCORE:    0.00 PKD
ROOT
HETATM    1 BR   UNL     1     -11.320  12.228  65.953  1.00  0.00    -0.427 Br 
HETATM    2  C   UNL     1     -10.369  10.521  65.934  1.00  0.00    -0.206 C  
HETATM    3  C   UNL     1      -9.840  10.124  67.316  1.00  0.00    -0.183 C  
HETATM    4 BR   UNL     1      -8.840   8.409  67.047  1.00  0.00    -0.156 Br 
HETATM    5  C   UNL     1     -11.016   9.776  68.213  1.00  0.00    -0.164 C  
HETATM    6  C   UNL     1      -8.888  11.118  68.004  1.00  0.00    -0.142 C  
HETATM    7  N   UNL     1     -11.992   9.488  68.957  1.00  0.00     0.232 NA 
HETATM    8  H2  UNL     1     -11.203   9.721  68.355  1.00  0.00     0.000 HD 
HETATM    9  H1  UNL     1     -12.782   9.254  69.560  1.00  0.00     0.000 HD 
ENDROOT
BRANCH   6  10
HETATM   10  C   UNL     1      -7.708  11.591  67.142  1.00  0.00    -0.160 C  
HETATM   11  C   UNL     1      -6.578  10.660  67.249  1.00  0.00    -0.073 C  
HETATM   12  N   UNL     1      -5.687   9.922  67.332  1.00  0.00    -0.046 NA 
ENDBRANCH   6  10
TORSDOF 1
ENDMDL
MODEL      224
REMARK 921   NORMALIZED FREE ENERGY PREDICTED BY IDOCK:   -0.33 KCAL/MOL
REMARK 922        TOTAL FREE ENERGY PREDICTED BY IDOCK:   -0.46 KCAL/MOL
REMARK 923 INTER-LIGAND FREE ENERGY PREDICTED BY IDOCK:   -3.04 KCAL/MOL
REMARK 924 INTRA-LIGAND FREE ENERGY PREDICTED BY IDOCK:    2.58 KCAL/MOL
REMARK 927      BINDING AFFINITY PREDICTED BY RF-SCORE:    0.00 PKD
ROOT
HETATM    1 BR   UNL     1     -10.102  15.531  69.149  1.00  0.00    -0.256 Br 
HETATM    2  C   UNL     1      -9.924  13.752  68.362  1.00  0.00    -0.229 C  
HETATM    3  C   UNL     1      -9.216  13.775  67.003  1.00  0.00    -0.251 C  
HETATM    4 BR   UNL     1      -9.219  11.881  66.351  1.00  0.00    -0.210 Br 
HETATM    5  C   UNL     1      -7.754  14.133  67.215  1.00  0.00    -0.108 C  
HETATM    6  C   UNL     1      -9.851  14.649  65.907  1.00  0.00    -0.358 C  
HETATM    7  N   UNL     1      -6.541  14.430  67.390  1.00  0.00    -0.345 NA 
HETATM    8  H2  UNL     1      -7.522  14.190  67.248  1.00  0.00     0.000 HD 
HETATM    9  H1  UNL     1      -5.560  14.670  67.532  1.00  0.00     0.000 HD 
ENDROOT
BRANCH   6  10
HETATM   10  C   UNL     1     -11.351  14.414  65.677  1.00  0.00    -0.330 C  
HETATM   11  C   UNL     1     -11.791  13.177  66.333  1.00  0.00    -0.400 C  
HETATM   12  N   UNL     1     -12.138  12.201  66.854  1.00  0.00    -0.556 NA 
ENDBRANCH   6  10
TORSDOF 1
ENDMDL
MODEL      225
REMARK 921   NORMALIZED FREE ENERGY PREDICTED BY IDOCK:    0.04 KCAL/MOL
REMARK 922        TOTAL FREE ENERGY PREDICTED BY IDOCK:   -0.07 KCAL/MOL
REMARK 923 INTER-LIGAND FREE ENERGY PREDICTED BY IDOCK:   -2.67 KCAL/MOL
REMARK 924 INTRA-LIGAND FREE ENERGY PREDICTED BY IDOCK:    2.60 KCAL/MOL
REMARK 927      BINDING AFFINITY PREDICTED BY RF-SCORE:    0.00 PKD
ROOT
HETATM    1 BR   UNL     1      -7.456  14.365  68.872  1.00  0.00    -0.122 Br 
HETATM    2  C   UNL     1      -8.445  13.991  67.229  1.00  0.00    -0.207 C  
HETATM    3  C   UNL     1      -9.560  15.009  66.965  1.00  0.00    -0.225 C  
HETATM    4 BR   UNL     1     -10.483  14.390  65.299  1.00  0.00    -0.438 Br 
HETATM    5  C   UNL     1      -8.932  16.347  66.612  1.00  0.00    -0.258 C  
HETATM    6  C   UNL     1     -10.628  15.165  68.062  1.00  0.00    -0.258 C  
HETATM    7  N   UNL     1      -8.411  17.458  66.320  1.00  0.00    -0.416 NA 
HETATM    8  H2  UNL     1      -8.832  16.560  66.556  1.00  0.00     0.000 HD 
HETATM    9  H1  UNL     1      -7.989  18.356  66.083  1.00  0.00     0.000 HD 
ENDROOT
BRANCH   6  10
HETATM   10  C   UNL     1     -11.263  13.852  68.542  1.00  0.00    -0.298 C  
HETATM   11  C   UNL     1     -10.882  12.738  67.665  1.00  0.00    -0.228 C  
HETATM   12  N   UNL     1     -10.578  11.858  66.974  1.00  0.00    -0.220 NA 
ENDBRANCH   6  10
TORSDOF 1
ENDMDL
MODEL      226
REMARK 921   NORMALIZED FREE ENERGY PREDICTED BY IDOCK:    1.58 KCAL/MOL
REMARK 922        TOTAL FREE ENERGY PREDICTED BY IDOCK:    1.56 KCAL/MOL
REMARK 923 INTER-LIGAND FREE ENERGY PREDICTED BY IDOCK:   -1.06 KCAL/MOL
REMARK 924 INTRA-LIGAND FREE ENERGY PREDICTED BY IDOCK:    2.62 KCAL/MOL
REMARK 927      BINDING AFFINITY PREDICTED BY RF-SCORE:    0.00 PKD
ROOT
HETATM    1 BR   UNL     1      -9.396  10.905  67.488  1.00  0.00    -0.168 Br 
HETATM    2  C   UNL     1      -7.838  10.072  66.654  1.00  0.00    -0.111 C  
HETATM    3  C   UNL     1      -7.164   9.037  67.560  1.00  0.00    -0.080 C  
HETATM    4 BR   UNL     1      -5.564   8.383  66.549  1.00  0.00    -0.036 Br 
HETATM    5  C   UNL     1      -8.082   7.833  67.700  1.00  0.00    -0.124 C  
HETATM    6  C   UNL     1      -6.680   9.532  68.935  1.00  0.00    -0.051 C  
HETATM    7  N   UNL     1      -8.842   6.834  67.816  1.00  0.00    -0.119 NA 
HETATM    8  H2  UNL     1      -8.227   7.642  67.722  1.00  0.00     0.000 HD 
HETATM    9  H1  UNL     1      -9.458   6.026  67.910  1.00  0.00     0.000 HD 
ENDROOT
BRANCH   6  10
HETATM   10  C   UNL     1      -5.810  10.797  68.900  1.00  0.00    -0.040 C  
HETATM   11  C   UNL     1      -5.638  11.273  67.522  1.00  0.00    -0.047 C  
HETATM   12  N   UNL     1      -5.505  11.650  66.433  1.00  0.00    -0.289 NA 
ENDBRANCH   6  10
TORSDOF 1
ENDMDL
MODEL      227
REMARK 921   NORMALIZED FREE ENERGY PREDICTED BY IDOCK:    1.72 KCAL/MOL
REMARK 922        TOTAL FREE ENERGY PREDICTED BY IDOCK:    1.71 KCAL/MOL
REMARK 923 INTER-LIGAND FREE ENERGY PREDICTED BY IDOCK:    1.76 KCAL/MOL
REMARK 924 INTRA-LIGAND FREE ENERGY PREDICTED BY IDOCK:   -0.05 KCAL/MOL
REMARK 927      BINDING AFFINITY PREDICTED BY RF-SCORE:    0.00 PKD
ROOT
HETATM    1 BR   UNL     1      -9.565  16.898  65.441  1.00  0.00     0.821 Br 
HETATM    2  C   UNL     1      -9.012  16.507  67.274  1.00  0.00    -0.199 C  
HETATM    3  C   UNL     1      -8.146  15.247  67.374  1.00  0.00    -0.182 C  
HETATM    4 BR   UNL     1      -7.771  14.994  69.326  1.00  0.00    -0.184 Br 
HETATM    5  C   UNL     1      -6.798  15.523  66.730  1.00  0.00     0.552 C  
HETATM    6  C   UNL     1      -8.762  13.940  66.842  1.00  0.00    -0.177 C  
HETATM    7  N   UNL     1      -5.679  15.752  66.195  1.00  0.00     1.815 NA 
HETATM    8  H2  UNL     1      -6.584  15.567  66.628  1.00  0.00     0.000 HD 
HETATM    9  H1  UNL     1      -4.774  15.937  65.763  1.00  0.00     0.000 HD 
ENDROOT
BRANCH   6  10
HETATM   10  C   UNL     1     -10.164  13.618  67.378  1.00  0.00    -0.241 C  
HETATM   11  C   UNL     1     -10.435  12.177  67.297  1.00  0.00    -0.218 C  
HETATM   12  N   UNL     1     -10.647  11.039  67.236  1.00  0.00    -0.231 NA 
ENDBRANCH   6  10
TORSDOF 1
ENDMDL
MODEL      228
REMARK 921   NORMALIZED FREE ENERGY PREDICTED BY IDOCK:    2.50 KCAL/MOL
REMARK 922        TOTAL FREE ENERGY PREDICTED BY IDOCK:    2.53 KCAL/MOL
REMARK 923 INTER-LIGAND FREE ENERGY PREDICTED BY IDOCK:   -0.09 KCAL/MOL
REMARK 924 INTRA-LIGAND FREE ENERGY PREDICTED BY IDOCK:    2.62 KCAL/MOL
REMARK 927      BINDING AFFINITY PREDICTED BY RF-SCORE:    0.00 PKD
ROOT
HETATM    1 BR   UNL     1      -9.582  12.028  68.656  1.00  0.00    -0.018 Br 
HETATM    2  C   UNL     1      -8.038  12.892  67.827  1.00  0.00    -0.166 C  
HETATM    3  C   UNL     1      -6.708  12.438  68.437  1.00  0.00    -0.069 C  
HETATM    4 BR   UNL     1      -5.287  13.500  67.507  1.00  0.00     0.199 Br 
HETATM    5  C   UNL     1      -6.457  10.990  68.051  1.00  0.00    -0.057 C  
HETATM    6  C   UNL     1      -6.535  12.649  69.952  1.00  0.00     0.044 C  
HETATM    7  N   UNL     1      -6.248   9.788  67.730  1.00  0.00    -0.052 NA 
HETATM    8  H2  UNL     1      -6.417  10.760  67.989  1.00  0.00     0.000 HD 
HETATM    9  H1  UNL     1      -6.079   8.816  67.470  1.00  0.00     0.000 HD 
ENDROOT
BRANCH   6  10
HETATM   10  C   UNL     1      -6.847  14.068  70.450  1.00  0.00     0.327 C  
HETATM   11  C   UNL     1      -7.242  14.937  69.334  1.00  0.00    -0.182 C  
HETATM   12  N   UNL     1      -7.556  15.621  68.452  1.00  0.00    -0.118 NA 
ENDBRANCH   6  10
TORSDOF 1
ENDMDL
MODEL      229
REMARK 921   NORMALIZED FREE ENERGY PREDICTED BY IDOCK:   23.61 KCAL/MOL
REMARK 922        TOTAL FREE ENERGY PREDICTED BY IDOCK:   24.87 KCAL/MOL
REMARK 923 INTER-LIGAND FREE ENERGY PREDICTED BY IDOCK:   22.27 KCAL/MOL
REMARK 924 INTRA-LIGAND FREE ENERGY PREDICTED BY IDOCK:    2.60 KCAL/MOL
REMARK 927      BINDING AFFINITY PREDICTED BY RF-SCORE:    0.00 PKD
ROOT
HETATM    1 BR   UNL     1     -13.797   4.426  70.388  1.00  0.00    21.392 Br 
HETATM    2  C   UNL     1     -12.540   4.965  71.784  1.00  0.00     3.240 C  
HETATM    3  C   UNL     1     -12.117   6.433  71.664  1.00  0.00    -0.262 C  
HETATM    4 BR   UNL     1     -10.781   6.739  73.125  1.00  0.00    -0.334 Br 
HETATM    5  C   UNL     1     -13.306   7.318  72.003  1.00  0.00    -0.111 C  
HETATM    6  C   UNL     1     -11.466   6.859  70.336  1.00  0.00    -0.387 C  
HETATM    7  N   UNL     1     -14.292   8.052  72.285  1.00  0.00    -0.627 NA 
HETATM    8  H2  UNL     1     -13.494   7.458  72.057  1.00  0.00     0.000 HD 
HETATM    9  H1  UNL     1     -15.089   8.645  72.512  1.00  0.00     0.000 HD 
ENDROOT
BRANCH   6  10
HETATM   10  C   UNL     1     -10.303   5.971  69.869  1.00  0.00    -0.288 C  
HETATM   11  C   UNL     1      -9.909   5.030  70.925  1.00  0.00    -0.205 C  
HETATM   12  N   UNL     1      -9.601   4.286  71.759  1.00  0.00    -0.145 NA 
ENDBRANCH   6  10
TORSDOF 1
ENDMDL
