MODEL        1
REMARK 921   NORMALIZED FREE ENERGY PREDICTED BY IDOCK:   -7.36 KCAL/MOL
REMARK 922        TOTAL FREE ENERGY PREDICTED BY IDOCK:  -11.15 KCAL/MOL
REMARK 923 INTER-LIGAND FREE ENERGY PREDICTED BY IDOCK:   -9.94 KCAL/MOL
REMARK 924 INTRA-LIGAND FREE ENERGY PREDICTED BY IDOCK:   -1.21 KCAL/MOL
REMARK 927      BINDING AFFINITY PREDICTED BY RF-SCORE:    0.00 PKD
ROOT
HETATM    1  O   UNL     1     -11.890  15.436  64.044  1.00  0.00    -0.870 OA 
HETATM    2  C   UNL     1     -11.305  14.947  65.265  1.00  0.00    -0.358 C  
HETATM    3  H   UNL     1     -11.242  15.980  63.610  1.00  0.00     0.000 HD 
HETATM    4  C   UNL     1     -12.355  14.067  65.968  1.00  0.00    -0.504 C  
HETATM    5  C   UNL     1     -10.041  14.145  64.895  1.00  0.00    -0.280 C  
HETATM    6  C   UNL     1     -12.570  12.743  65.231  1.00  0.00    -0.393 C  
HETATM    7  C   UNL     1     -10.373  12.805  64.234  1.00  0.00    -0.377 C  
HETATM    8  N   UNL     1     -11.330  11.990  64.999  1.00  0.00    -0.324 NA 
ENDROOT
BRANCH   2   9
HETATM    9  C   UNL     1     -10.932  16.159  66.129  1.00  0.00    -0.036 A  
HETATM   10  C   UNL     1     -10.706  17.423  65.555  1.00  0.00    -0.081 A  
HETATM   11  C   UNL     1     -10.777  16.039  67.524  1.00  0.00    -0.314 A  
HETATM   12  C   UNL     1     -10.158  18.365  67.706  1.00  0.00    -0.356 A  
HETATM   13  C   UNL     1     -10.321  18.518  66.334  1.00  0.00    -0.456 A  
HETATM   14 BR   UNL     1      -9.605  19.837  68.754  1.00  0.00    -0.344 Br 
HETATM   15  C   UNL     1     -10.390  17.133  68.307  1.00  0.00    -0.354 A  
ENDBRANCH   2   9
BRANCH   8  16
HETATM   16  C   UNL     1     -10.718  11.450  66.227  1.00  0.00    -0.270 C  
BRANCH  16  17
HETATM   17  C   UNL     1     -11.634  11.482  67.455  1.00  0.00    -0.322 C  
BRANCH  17  18
HETATM   18  C   UNL     1     -10.927  12.012  68.703  1.00  0.00    -0.281 C  
BRANCH  18  19
HETATM   19  C   UNL     1     -11.743  11.745  69.953  1.00  0.00    -0.323 C  
HETATM   20  O   UNL     1     -11.930  10.615  70.398  1.00  0.00    -0.286 OA 
BRANCH  19  21
HETATM   21  C   UNL     1     -12.378  12.903  70.639  1.00  0.00    -0.385 A  
HETATM   22  C   UNL     1     -13.270  12.638  71.686  1.00  0.00    -0.394 A  
HETATM   23  C   UNL     1     -13.903  13.688  72.350  1.00  0.00    -0.691 A  
HETATM   24  C   UNL     1     -13.633  14.998  71.972  1.00  0.00    -0.420 A  
HETATM   25  F   UNL     1     -14.242  16.007  72.612  1.00  0.00    -0.622 F  
HETATM   26  C   UNL     1     -12.739  15.279  70.944  1.00  0.00    -0.496 A  
HETATM   27  C   UNL     1     -12.108  14.230  70.273  1.00  0.00    -0.403 A  
ENDBRANCH  19  21
ENDBRANCH  18  19
ENDBRANCH  17  18
ENDBRANCH  16  17
ENDBRANCH   8  16
TORSDOF 6
ENDMDL
MODEL        2
REMARK 921   NORMALIZED FREE ENERGY PREDICTED BY IDOCK:   -7.34 KCAL/MOL
REMARK 922        TOTAL FREE ENERGY PREDICTED BY IDOCK:  -11.13 KCAL/MOL
REMARK 923 INTER-LIGAND FREE ENERGY PREDICTED BY IDOCK:   -9.89 KCAL/MOL
REMARK 924 INTRA-LIGAND FREE ENERGY PREDICTED BY IDOCK:   -1.24 KCAL/MOL
REMARK 927      BINDING AFFINITY PREDICTED BY RF-SCORE:    0.00 PKD
ROOT
HETATM    1  O   UNL     1     -11.891  15.434  64.043  1.00  0.00    -0.870 OA 
HETATM    2  C   UNL     1     -11.310  14.931  65.260  1.00  0.00    -0.358 C  
HETATM    3  H   UNL     1     -11.243  15.983  63.618  1.00  0.00     0.000 HD 
HETATM    4  C   UNL     1     -12.362  14.041  65.950  1.00  0.00    -0.515 C  
HETATM    5  C   UNL     1     -10.044  14.134  64.884  1.00  0.00    -0.280 C  
HETATM    6  C   UNL     1     -12.573  12.726  65.196  1.00  0.00    -0.444 C  
HETATM    7  C   UNL     1     -10.373  12.802  64.206  1.00  0.00    -0.377 C  
HETATM    8  N   UNL     1     -11.332  11.977  64.958  1.00  0.00    -0.324 NA 
ENDROOT
BRANCH   2   9
HETATM    9  C   UNL     1     -10.940  16.132  66.140  1.00  0.00    -0.036 A  
HETATM   10  C   UNL     1     -10.713  17.403  65.583  1.00  0.00    -0.113 A  
HETATM   11  C   UNL     1     -10.790  15.995  67.534  1.00  0.00    -0.292 A  
HETATM   12  C   UNL     1     -10.172  18.319  67.746  1.00  0.00    -0.385 A  
HETATM   13  C   UNL     1     -10.331  18.489  66.375  1.00  0.00    -0.456 A  
HETATM   14 BR   UNL     1      -9.624  19.778  68.814  1.00  0.00    -0.344 Br 
HETATM   15  C   UNL     1     -10.406  17.079  68.332  1.00  0.00    -0.351 A  
ENDBRANCH   2   9
BRANCH   8  16
HETATM   16  C   UNL     1     -10.724  11.422  66.181  1.00  0.00    -0.267 C  
BRANCH  16  17
HETATM   17  C   UNL     1     -11.648  11.424  67.403  1.00  0.00    -0.266 C  
BRANCH  17  18
HETATM   18  C   UNL     1     -10.954  11.934  68.665  1.00  0.00    -0.271 C  
BRANCH  18  19
HETATM   19  C   UNL     1     -11.770  11.625  69.905  1.00  0.00    -0.337 C  
HETATM   20  O   UNL     1     -11.943  10.482  70.322  1.00  0.00    -0.277 OA 
BRANCH  19  21
HETATM   21  C   UNL     1     -12.423  12.757  70.618  1.00  0.00    -0.328 A  
HETATM   22  C   UNL     1     -12.294  14.041  70.072  1.00  0.00    -0.397 A  
HETATM   23  C   UNL     1     -12.874  15.136  70.710  1.00  0.00    -0.473 A  
HETATM   24  C   UNL     1     -13.590  14.942  71.886  1.00  0.00    -0.407 A  
HETATM   25  F   UNL     1     -14.148  15.996  72.498  1.00  0.00    -0.572 F  
HETATM   26  C   UNL     1     -13.740  13.672  72.434  1.00  0.00    -0.697 A  
HETATM   27  C   UNL     1     -13.155  12.574  71.800  1.00  0.00    -0.450 A  
ENDBRANCH  19  21
ENDBRANCH  18  19
ENDBRANCH  17  18
ENDBRANCH  16  17
ENDBRANCH   8  16
TORSDOF 6
ENDMDL
MODEL        3
REMARK 921   NORMALIZED FREE ENERGY PREDICTED BY IDOCK:   -7.20 KCAL/MOL
REMARK 922        TOTAL FREE ENERGY PREDICTED BY IDOCK:  -10.93 KCAL/MOL
REMARK 923 INTER-LIGAND FREE ENERGY PREDICTED BY IDOCK:   -9.33 KCAL/MOL
REMARK 924 INTRA-LIGAND FREE ENERGY PREDICTED BY IDOCK:   -1.60 KCAL/MOL
REMARK 927      BINDING AFFINITY PREDICTED BY RF-SCORE:    0.00 PKD
ROOT
HETATM    1  O   UNL     1     -13.808  14.451  70.588  1.00  0.00    -0.343 OA 
HETATM    2  C   UNL     1     -12.458  13.983  70.415  1.00  0.00    -0.350 C  
HETATM    3  H   UNL     1     -14.065  14.268  71.485  1.00  0.00     0.000 HD 
HETATM    4  C   UNL     1     -12.041  14.278  68.962  1.00  0.00    -0.320 C  
HETATM    5  C   UNL     1     -11.566  14.729  71.429  1.00  0.00    -0.305 C  
HETATM    6  C   UNL     1     -11.833  15.776  68.725  1.00  0.00    -0.309 C  
HETATM    7  C   UNL     1     -11.362  16.199  71.054  1.00  0.00    -0.338 C  
HETATM    8  N   UNL     1     -10.897  16.398  69.672  1.00  0.00    -0.338 NA 
ENDROOT
BRANCH   2   9
HETATM    9  C   UNL     1     -12.439  12.475  70.700  1.00  0.00    -0.323 A  
HETATM   10  C   UNL     1     -13.161  11.926  71.775  1.00  0.00    -0.465 A  
HETATM   11  C   UNL     1     -11.676  11.594  69.909  1.00  0.00    -0.414 A  
HETATM   12  C   UNL     1     -12.333   9.718  71.279  1.00  0.00    -0.371 A  
HETATM   13  C   UNL     1     -13.109  10.560  72.066  1.00  0.00    -0.511 A  
HETATM   14 BR   UNL     1     -12.236   7.876  71.691  1.00  0.00    -0.360 Br 
HETATM   15  C   UNL     1     -11.620  10.226  70.197  1.00  0.00    -0.376 A  
ENDBRANCH   2   9
BRANCH   8  16
HETATM   16  C   UNL     1      -9.498  15.963  69.505  1.00  0.00    -0.219 C  
BRANCH  16  17
HETATM   17  C   UNL     1      -8.670  16.847  68.567  1.00  0.00    -0.251 C  
BRANCH  17  18
HETATM   18  C   UNL     1      -8.211  16.105  67.311  1.00  0.00    -0.203 C  
BRANCH  18  19
HETATM   19  C   UNL     1      -9.144  16.368  66.145  1.00  0.00    -0.326 C  
HETATM   20  O   UNL     1      -9.237  17.466  65.600  1.00  0.00    -0.477 OA 
BRANCH  19  21
HETATM   21  C   UNL     1     -10.014  15.255  65.675  1.00  0.00    -0.397 A  
HETATM   22  C   UNL     1     -11.140  15.580  64.907  1.00  0.00    -0.428 A  
HETATM   23  C   UNL     1     -11.995  14.576  64.457  1.00  0.00    -0.482 A  
HETATM   24  C   UNL     1     -11.715  13.250  64.766  1.00  0.00    -0.355 A  
HETATM   25  F   UNL     1     -12.538  12.285  64.332  1.00  0.00    -0.498 F  
HETATM   26  C   UNL     1     -10.594  12.909  65.516  1.00  0.00    -0.298 A  
HETATM   27  C   UNL     1      -9.739  13.913  65.974  1.00  0.00    -0.270 A  
ENDBRANCH  19  21
ENDBRANCH  18  19
ENDBRANCH  17  18
ENDBRANCH  16  17
ENDBRANCH   8  16
TORSDOF 6
ENDMDL
MODEL        4
REMARK 921   NORMALIZED FREE ENERGY PREDICTED BY IDOCK:   -7.01 KCAL/MOL
REMARK 922        TOTAL FREE ENERGY PREDICTED BY IDOCK:  -10.68 KCAL/MOL
REMARK 923 INTER-LIGAND FREE ENERGY PREDICTED BY IDOCK:   -9.18 KCAL/MOL
REMARK 924 INTRA-LIGAND FREE ENERGY PREDICTED BY IDOCK:   -1.50 KCAL/MOL
REMARK 927      BINDING AFFINITY PREDICTED BY RF-SCORE:    0.00 PKD
ROOT
HETATM    1  O   UNL     1     -12.515  14.546  67.307  1.00  0.00    -0.578 OA 
HETATM    2  C   UNL     1     -11.555  13.904  68.166  1.00  0.00    -0.335 C  
HETATM    3  H   UNL     1     -12.390  15.485  67.385  1.00  0.00     0.000 HD 
HETATM    4  C   UNL     1     -11.756  12.382  68.041  1.00  0.00    -0.414 C  
HETATM    5  C   UNL     1     -10.147  14.334  67.705  1.00  0.00    -0.229 C  
HETATM    6  C   UNL     1     -11.286  11.858  66.682  1.00  0.00    -0.337 C  
HETATM    7  C   UNL     1      -9.748  13.691  66.374  1.00  0.00    -0.292 C  
HETATM    8  N   UNL     1      -9.903  12.228  66.354  1.00  0.00    -0.225 NA 
ENDROOT
BRANCH   2   9
HETATM    9  C   UNL     1     -11.811  14.379  69.602  1.00  0.00    -0.372 A  
HETATM   10  C   UNL     1     -12.535  13.590  70.514  1.00  0.00    -0.373 A  
HETATM   11  C   UNL     1     -11.351  15.634  70.047  1.00  0.00    -0.341 A  
HETATM   12  C   UNL     1     -12.360  15.290  72.214  1.00  0.00    -0.370 A  
HETATM   13  C   UNL     1     -12.810  14.039  71.808  1.00  0.00    -0.424 A  
HETATM   14 BR   UNL     1     -12.759  15.912  73.953  1.00  0.00    -0.721 Br 
HETATM   15  C   UNL     1     -11.625  16.088  71.342  1.00  0.00    -0.520 A  
ENDBRANCH   2   9
BRANCH   8  16
HETATM   16  C   UNL     1      -8.890  11.566  67.196  1.00  0.00    -0.168 C  
BRANCH  16  17
HETATM   17  C   UNL     1      -9.243  10.130  67.598  1.00  0.00    -0.151 C  
BRANCH  17  18
HETATM   18  C   UNL     1      -9.173   9.907  69.108  1.00  0.00    -0.184 C  
BRANCH  18  19
HETATM   19  C   UNL     1      -9.893   8.635  69.511  1.00  0.00    -0.187 C  
HETATM   20  O   UNL     1      -9.568   7.524  69.096  1.00  0.00    -0.157 OA 
BRANCH  19  21
HETATM   21  C   UNL     1     -11.072   8.749  70.412  1.00  0.00    -0.261 A  
HETATM   22  C   UNL     1     -11.646   7.566  70.898  1.00  0.00    -0.309 A  
HETATM   23  C   UNL     1     -12.762   7.620  71.732  1.00  0.00    -0.356 A  
HETATM   24  C   UNL     1     -13.293   8.854  72.086  1.00  0.00    -0.440 A  
HETATM   25  F   UNL     1     -14.365   8.904  72.889  1.00  0.00    -0.457 F  
HETATM   26  C   UNL     1     -12.726  10.038  71.624  1.00  0.00    -0.535 A  
HETATM   27  C   UNL     1     -11.613   9.989  70.783  1.00  0.00    -0.444 A  
ENDBRANCH  19  21
ENDBRANCH  18  19
ENDBRANCH  17  18
ENDBRANCH  16  17
ENDBRANCH   8  16
TORSDOF 6
ENDMDL
MODEL        5
REMARK 921   NORMALIZED FREE ENERGY PREDICTED BY IDOCK:   -6.89 KCAL/MOL
REMARK 922        TOTAL FREE ENERGY PREDICTED BY IDOCK:  -10.52 KCAL/MOL
REMARK 923 INTER-LIGAND FREE ENERGY PREDICTED BY IDOCK:   -8.83 KCAL/MOL
REMARK 924 INTRA-LIGAND FREE ENERGY PREDICTED BY IDOCK:   -1.69 KCAL/MOL
REMARK 927      BINDING AFFINITY PREDICTED BY RF-SCORE:    0.00 PKD
ROOT
HETATM    1  O   UNL     1     -10.822  15.721  67.311  1.00  0.00    -0.318 OA 
HETATM    2  C   UNL     1     -11.134  14.472  67.953  1.00  0.00    -0.279 C  
HETATM    3  H   UNL     1     -10.094  16.113  67.779  1.00  0.00     0.000 HD 
HETATM    4  C   UNL     1     -12.314  13.835  67.195  1.00  0.00    -0.244 C  
HETATM    5  C   UNL     1      -9.874  13.584  67.899  1.00  0.00    -0.235 C  
HETATM    6  C   UNL     1     -11.891  13.323  65.816  1.00  0.00    -0.387 C  
HETATM    7  C   UNL     1      -9.588  13.064  66.489  1.00  0.00    -0.260 C  
HETATM    8  N   UNL     1     -10.742  12.408  65.855  1.00  0.00    -0.259 NA 
ENDROOT
BRANCH   2   9
HETATM    9  C   UNL     1     -11.511  14.770  69.411  1.00  0.00    -0.330 A  
HETATM   10  C   UNL     1     -11.021  15.910  70.073  1.00  0.00    -0.361 A  
HETATM   11  C   UNL     1     -12.341  13.898  70.142  1.00  0.00    -0.400 A  
HETATM   12  C   UNL     1     -12.131  15.273  72.116  1.00  0.00    -0.396 A  
HETATM   13  C   UNL     1     -11.325  16.161  71.413  1.00  0.00    -0.325 A  
HETATM   14 BR   UNL     1     -12.515  15.594  73.938  1.00  0.00    -0.821 Br 
HETATM   15  C   UNL     1     -12.647  14.145  71.485  1.00  0.00    -0.434 A  
ENDBRANCH   2   9
BRANCH   8  16
HETATM   16  C   UNL     1     -11.035  11.106  66.482  1.00  0.00    -0.209 C  
BRANCH  16  17
HETATM   17  C   UNL     1      -9.864  10.117  66.461  1.00  0.00    -0.268 C  
BRANCH  17  18
HETATM   18  C   UNL     1      -9.905   9.130  67.627  1.00  0.00    -0.217 C  
BRANCH  18  19
HETATM   19  C   UNL     1      -9.703   9.835  68.953  1.00  0.00    -0.171 C  
HETATM   20  O   UNL     1      -8.697  10.493  69.213  1.00  0.00    -0.163 OA 
BRANCH  19  21
HETATM   21  C   UNL     1     -10.753   9.684  69.998  1.00  0.00    -0.298 A  
HETATM   22  C   UNL     1     -10.624   8.629  70.911  1.00  0.00    -0.265 A  
HETATM   23  C   UNL     1     -11.590   8.435  71.898  1.00  0.00    -0.395 A  
HETATM   24  C   UNL     1     -12.672   9.302  71.976  1.00  0.00    -0.401 A  
HETATM   25  F   UNL     1     -13.599   9.115  72.926  1.00  0.00    -0.480 F  
HETATM   26  C   UNL     1     -12.807  10.364  71.086  1.00  0.00    -0.511 A  
HETATM   27  C   UNL     1     -11.846  10.557  70.092  1.00  0.00    -0.404 A  
ENDBRANCH  19  21
ENDBRANCH  18  19
ENDBRANCH  17  18
ENDBRANCH  16  17
ENDBRANCH   8  16
TORSDOF 6
ENDMDL
MODEL        6
REMARK 921   NORMALIZED FREE ENERGY PREDICTED BY IDOCK:   -6.83 KCAL/MOL
REMARK 922        TOTAL FREE ENERGY PREDICTED BY IDOCK:  -10.44 KCAL/MOL
REMARK 923 INTER-LIGAND FREE ENERGY PREDICTED BY IDOCK:   -8.99 KCAL/MOL
REMARK 924 INTRA-LIGAND FREE ENERGY PREDICTED BY IDOCK:   -1.45 KCAL/MOL
REMARK 927      BINDING AFFINITY PREDICTED BY RF-SCORE:    0.00 PKD
ROOT
HETATM    1  O   UNL     1      -9.818  12.643  63.989  1.00  0.00    -0.606 OA 
HETATM    2  C   UNL     1     -10.275  12.501  65.346  1.00  0.00    -0.283 C  
HETATM    3  H   UNL     1     -10.322  12.045  63.449  1.00  0.00     0.000 HD 
HETATM    4  C   UNL     1      -9.458  13.470  66.221  1.00  0.00    -0.199 C  
HETATM    5  C   UNL     1     -11.781  12.836  65.374  1.00  0.00    -0.425 C  
HETATM    6  C   UNL     1      -9.844  14.928  65.964  1.00  0.00    -0.318 C  
HETATM    7  C   UNL     1     -12.048  14.331  65.185  1.00  0.00    -0.410 C  
HETATM    8  N   UNL     1     -11.283  15.190  66.102  1.00  0.00    -0.313 NA 
ENDROOT
BRANCH   2   9
HETATM    9  C   UNL     1     -10.048  11.044  65.772  1.00  0.00    -0.305 A  
HETATM   10  C   UNL     1      -9.194  10.195  65.045  1.00  0.00    -0.266 A  
HETATM   11  C   UNL     1     -10.707  10.502  66.893  1.00  0.00    -0.281 A  
HETATM   12  C   UNL     1      -9.699   8.344  66.504  1.00  0.00    -0.260 A  
HETATM   13  C   UNL     1      -9.020   8.856  65.404  1.00  0.00    -0.232 A  
HETATM   14 BR   UNL     1      -9.489   6.524  66.970  1.00  0.00    -0.173 Br 
HETATM   15  C   UNL     1     -10.537   9.161  67.255  1.00  0.00    -0.303 A  
ENDBRANCH   2   9
BRANCH   8  16
HETATM   16  C   UNL     1     -11.781  15.081  67.486  1.00  0.00    -0.253 C  
BRANCH  16  17
HETATM   17  C   UNL     1     -11.141  16.069  68.467  1.00  0.00    -0.347 C  
BRANCH  17  18
HETATM   18  C   UNL     1     -10.924  15.464  69.853  1.00  0.00    -0.305 C  
BRANCH  18  19
HETATM   19  C   UNL     1     -12.234  15.017  70.471  1.00  0.00    -0.337 C  
HETATM   20  O   UNL     1     -13.125  15.802  70.786  1.00  0.00    -0.522 OA 
BRANCH  19  21
HETATM   21  C   UNL     1     -12.424  13.566  70.744  1.00  0.00    -0.428 A  
HETATM   22  C   UNL     1     -13.256  13.201  71.812  1.00  0.00    -0.494 A  
HETATM   23  C   UNL     1     -13.453  11.856  72.119  1.00  0.00    -0.300 A  
HETATM   24  C   UNL     1     -12.828  10.881  71.352  1.00  0.00    -0.449 A  
HETATM   25  F   UNL     1     -13.019   9.587  71.647  1.00  0.00    -0.351 F  
HETATM   26  C   UNL     1     -12.011  11.225  70.279  1.00  0.00    -0.466 A  
HETATM   27  C   UNL     1     -11.806  12.572  69.973  1.00  0.00    -0.363 A  
ENDBRANCH  19  21
ENDBRANCH  18  19
ENDBRANCH  17  18
ENDBRANCH  16  17
ENDBRANCH   8  16
TORSDOF 6
ENDMDL
MODEL        7
REMARK 921   NORMALIZED FREE ENERGY PREDICTED BY IDOCK:   -6.81 KCAL/MOL
REMARK 922        TOTAL FREE ENERGY PREDICTED BY IDOCK:  -10.41 KCAL/MOL
REMARK 923 INTER-LIGAND FREE ENERGY PREDICTED BY IDOCK:   -8.96 KCAL/MOL
REMARK 924 INTRA-LIGAND FREE ENERGY PREDICTED BY IDOCK:   -1.45 KCAL/MOL
REMARK 927      BINDING AFFINITY PREDICTED BY RF-SCORE:    0.00 PKD
ROOT
HETATM    1  O   UNL     1      -9.937  13.424  64.930  1.00  0.00    -0.545 OA 
HETATM    2  C   UNL     1      -9.947  13.491  66.367  1.00  0.00    -0.295 C  
HETATM    3  H   UNL     1      -9.150  13.860  64.625  1.00  0.00     0.000 HD 
HETATM    4  C   UNL     1     -11.223  12.785  66.862  1.00  0.00    -0.339 C  
HETATM    5  C   UNL     1      -8.671  12.793  66.881  1.00  0.00    -0.169 C  
HETATM    6  C   UNL     1     -11.143  11.269  66.670  1.00  0.00    -0.235 C  
HETATM    7  C   UNL     1      -8.730  11.273  66.711  1.00  0.00    -0.166 C  
HETATM    8  N   UNL     1      -9.947  10.662  67.269  1.00  0.00    -0.183 NA 
ENDROOT
BRANCH   2   9
HETATM    9  C   UNL     1      -9.942  14.972  66.772  1.00  0.00    -0.254 A  
HETATM   10  C   UNL     1      -9.643  15.367  68.089  1.00  0.00    -0.203 A  
HETATM   11  C   UNL     1     -10.261  15.982  65.844  1.00  0.00    -0.386 A  
HETATM   12  C   UNL     1     -10.019  17.684  67.539  1.00  0.00    -0.322 A  
HETATM   13  C   UNL     1      -9.682  16.710  68.472  1.00  0.00    -0.244 A  
HETATM   14 BR   UNL     1     -10.104  19.497  68.064  1.00  0.00    -0.560 Br 
HETATM   15  C   UNL     1     -10.303  17.328  66.224  1.00  0.00    -0.323 A  
ENDBRANCH   2   9
BRANCH   8  16
HETATM   16  C   UNL     1      -9.936  10.688  68.744  1.00  0.00    -0.193 C  
BRANCH  16  17
HETATM   17  C   UNL     1     -10.943   9.738  69.399  1.00  0.00    -0.241 C  
BRANCH  17  18
HETATM   18  C   UNL     1     -11.221  10.090  70.860  1.00  0.00    -0.415 C  
BRANCH  18  19
HETATM   19  C   UNL     1     -12.635  10.604  71.043  1.00  0.00    -0.416 C  
HETATM   20  O   UNL     1     -13.621   9.870  71.019  1.00  0.00    -0.329 OA 
BRANCH  19  21
HETATM   21  C   UNL     1     -12.835  12.070  71.214  1.00  0.00    -0.364 A  
HETATM   22  C   UNL     1     -12.178  12.931  70.325  1.00  0.00    -0.362 A  
HETATM   23  C   UNL     1     -12.320  14.312  70.453  1.00  0.00    -0.419 A  
HETATM   24  C   UNL     1     -13.125  14.826  71.462  1.00  0.00    -0.354 A  
HETATM   25  F   UNL     1     -13.261  16.154  71.584  1.00  0.00    -0.477 F  
HETATM   26  C   UNL     1     -13.795  13.984  72.345  1.00  0.00    -0.653 A  
HETATM   27  C   UNL     1     -13.651  12.601  72.223  1.00  0.00    -0.508 A  
ENDBRANCH  19  21
ENDBRANCH  18  19
ENDBRANCH  17  18
ENDBRANCH  16  17
ENDBRANCH   8  16
TORSDOF 6
ENDMDL
MODEL        8
REMARK 921   NORMALIZED FREE ENERGY PREDICTED BY IDOCK:   -6.80 KCAL/MOL
REMARK 922        TOTAL FREE ENERGY PREDICTED BY IDOCK:  -10.40 KCAL/MOL
REMARK 923 INTER-LIGAND FREE ENERGY PREDICTED BY IDOCK:   -9.44 KCAL/MOL
REMARK 924 INTRA-LIGAND FREE ENERGY PREDICTED BY IDOCK:   -0.96 KCAL/MOL
REMARK 927      BINDING AFFINITY PREDICTED BY RF-SCORE:    0.00 PKD
ROOT
HETATM    1  O   UNL     1     -11.758  12.972  63.075  1.00  0.00    -0.824 OA 
HETATM    2  C   UNL     1     -11.058  12.759  64.314  1.00  0.00    -0.370 C  
HETATM    3  H   UNL     1     -12.289  12.202  62.906  1.00  0.00     0.000 HD 
HETATM    4  C   UNL     1     -10.197  14.007  64.587  1.00  0.00    -0.242 C  
HETATM    5  C   UNL     1     -12.111  12.538  65.419  1.00  0.00    -0.494 C  
HETATM    6  C   UNL     1     -11.055  15.214  64.974  1.00  0.00    -0.419 C  
HETATM    7  C   UNL     1     -12.856  13.825  65.781  1.00  0.00    -0.379 C  
HETATM    8  N   UNL     1     -11.966  14.954  66.096  1.00  0.00    -0.136 NA 
ENDROOT
BRANCH   2   9
HETATM    9  C   UNL     1     -10.184  11.508  64.156  1.00  0.00    -0.374 A  
HETATM   10  C   UNL     1      -9.647  11.146  62.907  1.00  0.00    -0.373 A  
HETATM   11  C   UNL     1      -9.912  10.666  65.252  1.00  0.00    -0.356 A  
HETATM   12  C   UNL     1      -8.652   9.161  63.845  1.00  0.00    -0.170 A  
HETATM   13  C   UNL     1      -8.888   9.983  62.750  1.00  0.00    -0.242 A  
HETATM   14 BR   UNL     1      -7.654   7.571  63.627  1.00  0.00    -0.123 Br 
HETATM   15  C   UNL     1      -9.154   9.500  65.098  1.00  0.00    -0.281 A  
ENDBRANCH   2   9
BRANCH   8  16
HETATM   16  C   UNL     1     -11.284  14.759  67.389  1.00  0.00    -0.339 C  
BRANCH  16  17
HETATM   17  C   UNL     1     -11.675  15.774  68.469  1.00  0.00    -0.328 C  
BRANCH  17  18
HETATM   18  C   UNL     1     -11.299  15.311  69.876  1.00  0.00    -0.308 C  
BRANCH  18  19
HETATM   19  C   UNL     1     -12.483  14.680  70.583  1.00  0.00    -0.344 C  
HETATM   20  O   UNL     1     -13.405  15.340  71.056  1.00  0.00    -0.460 OA 
BRANCH  19  21
HETATM   21  C   UNL     1     -12.499  13.200  70.745  1.00  0.00    -0.389 A  
HETATM   22  C   UNL     1     -13.164  12.668  71.858  1.00  0.00    -0.504 A  
HETATM   23  C   UNL     1     -13.194  11.290  72.063  1.00  0.00    -0.437 A  
HETATM   24  C   UNL     1     -12.569  10.448  71.150  1.00  0.00    -0.410 A  
HETATM   25  F   UNL     1     -12.599   9.123  71.348  1.00  0.00    -0.322 F  
HETATM   26  C   UNL     1     -11.916  10.960  70.033  1.00  0.00    -0.429 A  
HETATM   27  C   UNL     1     -11.879  12.340  69.827  1.00  0.00    -0.388 A  
ENDBRANCH  19  21
ENDBRANCH  18  19
ENDBRANCH  17  18
ENDBRANCH  16  17
ENDBRANCH   8  16
TORSDOF 6
ENDMDL
MODEL        9
REMARK 921   NORMALIZED FREE ENERGY PREDICTED BY IDOCK:   -6.78 KCAL/MOL
REMARK 922        TOTAL FREE ENERGY PREDICTED BY IDOCK:  -10.36 KCAL/MOL
REMARK 923 INTER-LIGAND FREE ENERGY PREDICTED BY IDOCK:   -8.29 KCAL/MOL
REMARK 924 INTRA-LIGAND FREE ENERGY PREDICTED BY IDOCK:   -2.07 KCAL/MOL
REMARK 927      BINDING AFFINITY PREDICTED BY RF-SCORE:    0.00 PKD
ROOT
HETATM    1  O   UNL     1      -9.262  11.992  65.257  1.00  0.00    -0.430 OA 
HETATM    2  C   UNL     1      -9.985  12.180  66.487  1.00  0.00    -0.213 C  
HETATM    3  H   UNL     1      -9.647  11.250  64.805  1.00  0.00     0.000 HD 
HETATM    4  C   UNL     1      -9.361  13.382  67.220  1.00  0.00    -0.233 C  
HETATM    5  C   UNL     1     -11.464  12.432  66.131  1.00  0.00    -0.430 C  
HETATM    6  C   UNL     1      -9.685  14.703  66.520  1.00  0.00    -0.280 C  
HETATM    7  C   UNL     1     -11.687  13.812  65.508  1.00  0.00    -0.346 C  
HETATM    8  N   UNL     1     -11.122  14.916  66.300  1.00  0.00    -0.339 NA 
ENDROOT
BRANCH   2   9
HETATM    9  C   UNL     1      -9.850  10.896  67.317  1.00  0.00    -0.202 A  
HETATM   10  C   UNL     1     -10.605   9.748  67.014  1.00  0.00    -0.269 A  
HETATM   11  C   UNL     1      -8.983  10.832  68.425  1.00  0.00    -0.153 A  
HETATM   12  C   UNL     1      -9.669   8.565  68.894  1.00  0.00    -0.170 A  
HETATM   13  C   UNL     1     -10.519   8.592  67.794  1.00  0.00    -0.287 A  
HETATM   14 BR   UNL     1      -9.577   7.014  69.970  1.00  0.00    -0.164 Br 
HETATM   15  C   UNL     1      -8.895   9.677  69.211  1.00  0.00    -0.164 A  
ENDBRANCH   2   9
BRANCH   8  16
HETATM   16  C   UNL     1     -11.891  15.141  67.538  1.00  0.00    -0.094 C  
BRANCH  16  17
HETATM   17  C   UNL     1     -11.246  16.134  68.510  1.00  0.00    -0.365 C  
BRANCH  17  18
HETATM   18  C   UNL     1     -11.033  15.541  69.903  1.00  0.00    -0.315 C  
BRANCH  18  19
HETATM   19  C   UNL     1     -12.339  15.052  70.499  1.00  0.00    -0.356 C  
HETATM   20  O   UNL     1     -13.256  15.810  70.807  1.00  0.00    -0.542 OA 
BRANCH  19  21
HETATM   21  C   UNL     1     -12.491  13.594  70.760  1.00  0.00    -0.432 A  
HETATM   22  C   UNL     1     -13.195  13.202  71.906  1.00  0.00    -0.526 A  
HETATM   23  C   UNL     1     -13.351  11.849  72.203  1.00  0.00    -0.361 A  
HETATM   24  C   UNL     1     -12.812  10.894  71.349  1.00  0.00    -0.449 A  
HETATM   25  F   UNL     1     -12.964   9.593  71.635  1.00  0.00    -0.360 F  
HETATM   26  C   UNL     1     -12.123  11.267  70.199  1.00  0.00    -0.448 A  
HETATM   27  C   UNL     1     -11.959  12.621  69.902  1.00  0.00    -0.365 A  
ENDBRANCH  19  21
ENDBRANCH  18  19
ENDBRANCH  17  18
ENDBRANCH  16  17
ENDBRANCH   8  16
TORSDOF 6
ENDMDL
MODEL       10
REMARK 921   NORMALIZED FREE ENERGY PREDICTED BY IDOCK:   -6.73 KCAL/MOL
REMARK 922        TOTAL FREE ENERGY PREDICTED BY IDOCK:  -10.31 KCAL/MOL
REMARK 923 INTER-LIGAND FREE ENERGY PREDICTED BY IDOCK:   -8.50 KCAL/MOL
REMARK 924 INTRA-LIGAND FREE ENERGY PREDICTED BY IDOCK:   -1.81 KCAL/MOL
REMARK 927      BINDING AFFINITY PREDICTED BY RF-SCORE:    0.00 PKD
ROOT
HETATM    1  O   UNL     1     -12.264   8.850  70.331  1.00  0.00    -0.476 OA 
HETATM    2  C   UNL     1     -11.410   9.952  69.974  1.00  0.00    -0.249 C  
HETATM    3  H   UNL     1     -13.114   9.001  69.932  1.00  0.00     0.000 HD 
HETATM    4  C   UNL     1     -10.034   9.708  70.621  1.00  0.00    -0.299 C  
HETATM    5  C   UNL     1     -11.318   9.999  68.436  1.00  0.00    -0.117 C  
HETATM    6  C   UNL     1      -9.283   8.561  69.940  1.00  0.00    -0.154 C  
HETATM    7  C   UNL     1     -10.481   8.851  67.866  1.00  0.00    -0.223 C  
HETATM    8  N   UNL     1      -9.153   8.724  68.486  1.00  0.00    -0.138 NA 
ENDROOT
BRANCH   2   9
HETATM    9  C   UNL     1     -12.051  11.240  70.508  1.00  0.00    -0.481 A  
HETATM   10  C   UNL     1     -11.823  12.481  69.886  1.00  0.00    -0.373 A  
HETATM   11  C   UNL     1     -12.870  11.226  71.654  1.00  0.00    -0.510 A  
HETATM   12  C   UNL     1     -13.156  13.621  71.539  1.00  0.00    -0.350 A  
HETATM   13  C   UNL     1     -12.367  13.662  70.395  1.00  0.00    -0.415 A  
HETATM   14 BR   UNL     1     -13.866  15.222  72.248  1.00  0.00    -0.681 Br 
HETATM   15  C   UNL     1     -13.416  12.407  72.169  1.00  0.00    -0.481 A  
ENDBRANCH   2   9
BRANCH   8  16
HETATM   16  C   UNL     1      -8.261   9.827  68.084  1.00  0.00    -0.109 C  
BRANCH  16  17
HETATM   17  C   UNL     1      -7.614   9.646  66.707  1.00  0.00    -0.098 C  
BRANCH  17  18
HETATM   18  C   UNL     1      -7.857  10.838  65.781  1.00  0.00    -0.106 C  
BRANCH  18  19
HETATM   19  C   UNL     1      -9.138  10.668  64.989  1.00  0.00    -0.202 C  
HETATM   20  O   UNL     1      -9.297   9.772  64.162  1.00  0.00    -0.266 OA 
BRANCH  19  21
HETATM   21  C   UNL     1     -10.230  11.659  65.193  1.00  0.00    -0.319 A  
HETATM   22  C   UNL     1     -11.330  11.614  64.327  1.00  0.00    -0.361 A  
HETATM   23  C   UNL     1     -12.371  12.531  64.467  1.00  0.00    -0.545 A  
HETATM   24  C   UNL     1     -12.313  13.482  65.479  1.00  0.00    -0.481 A  
HETATM   25  F   UNL     1     -13.314  14.363  65.614  1.00  0.00    -0.480 F  
HETATM   26  C   UNL     1     -11.234  13.531  66.357  1.00  0.00    -0.322 A  
HETATM   27  C   UNL     1     -10.187  12.618  66.215  1.00  0.00    -0.264 A  
ENDBRANCH  19  21
ENDBRANCH  18  19
ENDBRANCH  17  18
ENDBRANCH  16  17
ENDBRANCH   8  16
TORSDOF 6
ENDMDL
MODEL       11
REMARK 921   NORMALIZED FREE ENERGY PREDICTED BY IDOCK:   -6.72 KCAL/MOL
REMARK 922        TOTAL FREE ENERGY PREDICTED BY IDOCK:  -10.28 KCAL/MOL
REMARK 923 INTER-LIGAND FREE ENERGY PREDICTED BY IDOCK:   -8.62 KCAL/MOL
REMARK 924 INTRA-LIGAND FREE ENERGY PREDICTED BY IDOCK:   -1.66 KCAL/MOL
REMARK 927      BINDING AFFINITY PREDICTED BY RF-SCORE:    0.00 PKD
ROOT
HETATM    1  O   UNL     1      -8.184  10.914  69.358  1.00  0.00    -0.347 OA 
HETATM    2  C   UNL     1      -9.350  10.580  68.584  1.00  0.00    -0.172 C  
HETATM    3  H   UNL     1      -7.944  10.148  69.867  1.00  0.00     0.000 HD 
HETATM    4  C   UNL     1      -9.738  11.822  67.760  1.00  0.00    -0.185 C  
HETATM    5  C   UNL     1      -8.990   9.384  67.680  1.00  0.00    -0.125 C  
HETATM    6  C   UNL     1      -8.741  12.088  66.631  1.00  0.00    -0.171 C  
HETATM    7  C   UNL     1      -8.049   9.778  66.539  1.00  0.00    -0.116 C  
HETATM    8  N   UNL     1      -8.521  10.929  65.755  1.00  0.00    -0.172 NA 
ENDROOT
BRANCH   2   9
HETATM    9  C   UNL     1     -10.470  10.191  69.559  1.00  0.00    -0.263 A  
HETATM   10  C   UNL     1     -10.512   8.916  70.152  1.00  0.00    -0.236 A  
HETATM   11  C   UNL     1     -11.508  11.091  69.873  1.00  0.00    -0.400 A  
HETATM   12  C   UNL     1     -12.575   9.445  71.280  1.00  0.00    -0.325 A  
HETATM   13  C   UNL     1     -11.554   8.543  71.004  1.00  0.00    -0.317 A  
HETATM   14 BR   UNL     1     -14.003   8.929  72.406  1.00  0.00    -0.457 Br 
HETATM   15  C   UNL     1     -12.555  10.720  70.724  1.00  0.00    -0.476 A  
ENDBRANCH   2   9
BRANCH   8  16
HETATM   16  C   UNL     1      -9.687  10.576  64.925  1.00  0.00    -0.300 C  
BRANCH  16  17
HETATM   17  C   UNL     1     -10.083  11.647  63.903  1.00  0.00    -0.395 C  
BRANCH  17  18
HETATM   18  C   UNL     1     -11.598  11.792  63.758  1.00  0.00    -0.508 C  
BRANCH  18  19
HETATM   19  C   UNL     1     -12.018  13.248  63.794  1.00  0.00    -0.491 C  
HETATM   20  O   UNL     1     -12.577  13.804  62.852  1.00  0.00    -0.611 OA 
BRANCH  19  21
HETATM   21  C   UNL     1     -11.696  14.043  65.011  1.00  0.00    -0.366 A  
HETATM   22  C   UNL     1     -10.736  15.057  64.898  1.00  0.00    -0.420 A  
HETATM   23  C   UNL     1     -10.387  15.820  66.012  1.00  0.00    -0.356 A  
HETATM   24  C   UNL     1     -11.008  15.573  67.231  1.00  0.00    -0.303 A  
HETATM   25  F   UNL     1     -10.673  16.307  68.301  1.00  0.00    -0.265 F  
HETATM   26  C   UNL     1     -11.974  14.579  67.357  1.00  0.00    -0.367 A  
HETATM   27  C   UNL     1     -12.320  13.809  66.245  1.00  0.00    -0.479 A  
ENDBRANCH  19  21
ENDBRANCH  18  19
ENDBRANCH  17  18
ENDBRANCH  16  17
ENDBRANCH   8  16
TORSDOF 6
ENDMDL
MODEL       12
REMARK 921   NORMALIZED FREE ENERGY PREDICTED BY IDOCK:   -6.69 KCAL/MOL
REMARK 922        TOTAL FREE ENERGY PREDICTED BY IDOCK:  -10.25 KCAL/MOL
REMARK 923 INTER-LIGAND FREE ENERGY PREDICTED BY IDOCK:   -8.71 KCAL/MOL
REMARK 924 INTRA-LIGAND FREE ENERGY PREDICTED BY IDOCK:   -1.54 KCAL/MOL
REMARK 927      BINDING AFFINITY PREDICTED BY RF-SCORE:    0.00 PKD
ROOT
HETATM    1  O   UNL     1      -9.963   8.771  69.547  1.00  0.00    -0.186 OA 
HETATM    2  C   UNL     1     -10.274   9.941  68.769  1.00  0.00    -0.189 C  
HETATM    3  H   UNL     1     -10.780   8.327  69.741  1.00  0.00     0.000 HD 
HETATM    4  C   UNL     1      -8.949  10.661  68.453  1.00  0.00    -0.149 C  
HETATM    5  C   UNL     1     -10.993   9.478  67.486  1.00  0.00    -0.125 C  
HETATM    6  C   UNL     1      -8.111   9.885  67.436  1.00  0.00    -0.113 C  
HETATM    7  C   UNL     1     -10.046   8.783  66.505  1.00  0.00    -0.279 C  
HETATM    8  N   UNL     1      -8.835   9.562  66.199  1.00  0.00    -0.146 NA 
ENDROOT
BRANCH   2   9
HETATM    9  C   UNL     1     -11.202  10.833  69.606  1.00  0.00    -0.355 A  
HETATM   10  C   UNL     1     -11.253  12.224  69.405  1.00  0.00    -0.243 A  
HETATM   11  C   UNL     1     -12.014  10.289  70.620  1.00  0.00    -0.436 A  
HETATM   12  C   UNL     1     -12.839  12.482  71.202  1.00  0.00    -0.211 A  
HETATM   13  C   UNL     1     -12.062  13.044  70.195  1.00  0.00    -0.377 A  
HETATM   14 BR   UNL     1     -13.909  13.595  72.293  1.00  0.00    -0.675 Br 
HETATM   15  C   UNL     1     -12.825  11.107  71.415  1.00  0.00    -0.544 A  
ENDBRANCH   2   9
BRANCH   8  16
HETATM   16  C   UNL     1      -9.146  10.736  65.363  1.00  0.00    -0.194 C  
BRANCH  16  17
HETATM   17  C   UNL     1      -9.985  10.422  64.120  1.00  0.00    -0.337 C  
BRANCH  17  18
HETATM   18  C   UNL     1     -10.319  11.671  63.304  1.00  0.00    -0.444 C  
BRANCH  18  19
HETATM   19  C   UNL     1     -11.590  12.330  63.802  1.00  0.00    -0.471 C  
HETATM   20  O   UNL     1     -12.700  12.072  63.341  1.00  0.00    -0.706 OA 
BRANCH  19  21
HETATM   21  C   UNL     1     -11.475  13.365  64.866  1.00  0.00    -0.346 A  
HETATM   22  C   UNL     1     -10.418  14.282  64.780  1.00  0.00    -0.421 A  
HETATM   23  C   UNL     1     -10.258  15.260  65.760  1.00  0.00    -0.372 A  
HETATM   24  C   UNL     1     -11.161  15.326  66.814  1.00  0.00    -0.278 A  
HETATM   25  F   UNL     1     -11.006  16.269  67.755  1.00  0.00    -0.319 F  
HETATM   26  C   UNL     1     -12.224  14.433  66.907  1.00  0.00    -0.300 A  
HETATM   27  C   UNL     1     -12.383  13.448  65.931  1.00  0.00    -0.493 A  
ENDBRANCH  19  21
ENDBRANCH  18  19
ENDBRANCH  17  18
ENDBRANCH  16  17
ENDBRANCH   8  16
TORSDOF 6
ENDMDL
MODEL       13
REMARK 921   NORMALIZED FREE ENERGY PREDICTED BY IDOCK:   -6.69 KCAL/MOL
REMARK 922        TOTAL FREE ENERGY PREDICTED BY IDOCK:  -10.25 KCAL/MOL
REMARK 923 INTER-LIGAND FREE ENERGY PREDICTED BY IDOCK:   -8.70 KCAL/MOL
REMARK 924 INTRA-LIGAND FREE ENERGY PREDICTED BY IDOCK:   -1.55 KCAL/MOL
REMARK 927      BINDING AFFINITY PREDICTED BY RF-SCORE:    0.00 PKD
ROOT
HETATM    1  O   UNL     1     -12.404   8.869  70.449  1.00  0.00    -0.462 OA 
HETATM    2  C   UNL     1     -11.487   9.930  70.127  1.00  0.00    -0.248 C  
HETATM    3  H   UNL     1     -13.216   9.036  69.983  1.00  0.00     0.000 HD 
HETATM    4  C   UNL     1     -10.172   9.660  70.881  1.00  0.00    -0.303 C  
HETATM    5  C   UNL     1     -11.281   9.929  68.598  1.00  0.00    -0.122 C  
HETATM    6  C   UNL     1      -9.414   8.470  70.289  1.00  0.00    -0.166 C  
HETATM    7  C   UNL     1     -10.446   8.738  68.124  1.00  0.00    -0.191 C  
HETATM    8  N   UNL     1      -9.172   8.585  68.845  1.00  0.00    -0.146 NA 
ENDROOT
BRANCH   2   9
HETATM    9  C   UNL     1     -12.120  11.255  70.576  1.00  0.00    -0.481 A  
HETATM   10  C   UNL     1     -11.833  12.462  69.914  1.00  0.00    -0.376 A  
HETATM   11  C   UNL     1     -12.990  11.308  71.683  1.00  0.00    -0.537 A  
HETATM   12  C   UNL     1     -13.211  13.702  71.455  1.00  0.00    -0.331 A  
HETATM   13  C   UNL     1     -12.371  13.677  70.348  1.00  0.00    -0.415 A  
HETATM   14 BR   UNL     1     -13.912  15.348  72.063  1.00  0.00    -0.656 Br 
HETATM   15  C   UNL     1     -13.529  12.523  72.122  1.00  0.00    -0.523 A  
ENDBRANCH   2   9
BRANCH   8  16
HETATM   16  C   UNL     1      -8.214   9.645  68.480  1.00  0.00    -0.105 C  
BRANCH  16  17
HETATM   17  C   UNL     1      -8.119   9.920  66.976  1.00  0.00    -0.110 C  
BRANCH  17  18
HETATM   18  C   UNL     1      -7.780  11.378  66.664  1.00  0.00    -0.129 C  
BRANCH  18  19
HETATM   19  C   UNL     1      -8.974  12.282  66.898  1.00  0.00    -0.207 C  
HETATM   20  O   UNL     1      -9.073  13.017  67.878  1.00  0.00    -0.190 OA 
BRANCH  19  21
HETATM   21  C   UNL     1     -10.093  12.239  65.916  1.00  0.00    -0.272 A  
HETATM   22  C   UNL     1      -9.885  11.552  64.712  1.00  0.00    -0.286 A  
HETATM   23  C   UNL     1     -10.895  11.497  63.753  1.00  0.00    -0.486 A  
HETATM   24  C   UNL     1     -12.112  12.118  64.006  1.00  0.00    -0.443 A  
HETATM   25  F   UNL     1     -13.084  12.063  63.084  1.00  0.00    -0.601 F  
HETATM   26  C   UNL     1     -12.340  12.791  65.202  1.00  0.00    -0.555 A  
HETATM   27  C   UNL     1     -11.328  12.855  66.161  1.00  0.00    -0.356 A  
ENDBRANCH  19  21
ENDBRANCH  18  19
ENDBRANCH  17  18
ENDBRANCH  16  17
ENDBRANCH   8  16
TORSDOF 6
ENDMDL
MODEL       14
REMARK 921   NORMALIZED FREE ENERGY PREDICTED BY IDOCK:   -6.61 KCAL/MOL
REMARK 922        TOTAL FREE ENERGY PREDICTED BY IDOCK:  -10.13 KCAL/MOL
REMARK 923 INTER-LIGAND FREE ENERGY PREDICTED BY IDOCK:   -8.76 KCAL/MOL
REMARK 924 INTRA-LIGAND FREE ENERGY PREDICTED BY IDOCK:   -1.38 KCAL/MOL
REMARK 927      BINDING AFFINITY PREDICTED BY RF-SCORE:    0.00 PKD
ROOT
HETATM    1  O   UNL     1     -10.341  15.128  70.181  1.00  0.00    -0.455 OA 
HETATM    2  C   UNL     1     -10.685  14.242  69.101  1.00  0.00    -0.220 C  
HETATM    3  H   UNL     1      -9.777  14.650  70.779  1.00  0.00     0.000 HD 
HETATM    4  C   UNL     1     -11.598  15.016  68.132  1.00  0.00    -0.360 C  
HETATM    5  C   UNL     1      -9.375  13.796  68.420  1.00  0.00    -0.190 C  
HETATM    6  C   UNL     1     -10.825  16.086  67.357  1.00  0.00    -0.277 C  
HETATM    7  C   UNL     1      -8.727  14.921  67.610  1.00  0.00    -0.175 C  
HETATM    8  N   UNL     1      -9.643  15.567  66.657  1.00  0.00    -0.239 NA 
ENDROOT
BRANCH   2   9
HETATM    9  C   UNL     1     -11.413  13.029  69.697  1.00  0.00    -0.253 A  
HETATM   10  C   UNL     1     -12.282  13.167  70.795  1.00  0.00    -0.375 A  
HETATM   11  C   UNL     1     -11.215  11.734  69.180  1.00  0.00    -0.324 A  
HETATM   12  C   UNL     1     -12.682  10.790  70.849  1.00  0.00    -0.384 A  
HETATM   13  C   UNL     1     -12.912  12.059  71.369  1.00  0.00    -0.362 A  
HETATM   14 BR   UNL     1     -13.506   9.288  71.646  1.00  0.00    -0.469 Br 
HETATM   15  C   UNL     1     -11.842  10.621  69.753  1.00  0.00    -0.377 A  
ENDBRANCH   2   9
BRANCH   8  16
HETATM   16  C   UNL     1      -9.960  14.677  65.525  1.00  0.00    -0.352 C  
BRANCH  16  17
HETATM   17  C   UNL     1     -11.217  15.072  64.744  1.00  0.00    -0.393 C  
BRANCH  17  18
HETATM   18  C   UNL     1     -11.930  13.869  64.127  1.00  0.00    -0.464 C  
BRANCH  18  19
HETATM   19  C   UNL     1     -11.826  12.649  65.022  1.00  0.00    -0.395 C  
HETATM   20  O   UNL     1     -12.513  12.501  66.030  1.00  0.00    -0.565 OA 
BRANCH  19  21
HETATM   21  C   UNL     1     -10.814  11.611  64.682  1.00  0.00    -0.373 A  
HETATM   22  C   UNL     1     -10.338  10.794  65.717  1.00  0.00    -0.295 A  
HETATM   23  C   UNL     1      -9.378   9.818  65.453  1.00  0.00    -0.311 A  
HETATM   24  C   UNL     1      -8.907   9.655  64.156  1.00  0.00    -0.226 A  
HETATM   25  F   UNL     1      -7.984   8.716  63.904  1.00  0.00    -0.126 F  
HETATM   26  C   UNL     1      -9.379  10.448  63.115  1.00  0.00    -0.340 A  
HETATM   27  C   UNL     1     -10.336  11.431  63.377  1.00  0.00    -0.458 A  
ENDBRANCH  19  21
ENDBRANCH  18  19
ENDBRANCH  17  18
ENDBRANCH  16  17
ENDBRANCH   8  16
TORSDOF 6
ENDMDL
MODEL       15
REMARK 921   NORMALIZED FREE ENERGY PREDICTED BY IDOCK:   -6.60 KCAL/MOL
REMARK 922        TOTAL FREE ENERGY PREDICTED BY IDOCK:  -10.12 KCAL/MOL
REMARK 923 INTER-LIGAND FREE ENERGY PREDICTED BY IDOCK:   -8.89 KCAL/MOL
REMARK 924 INTRA-LIGAND FREE ENERGY PREDICTED BY IDOCK:   -1.23 KCAL/MOL
REMARK 927      BINDING AFFINITY PREDICTED BY RF-SCORE:    0.00 PKD
ROOT
HETATM    1  O   UNL     1      -8.977  16.612  68.988  1.00  0.00    -0.256 OA 
HETATM    2  C   UNL     1     -10.134  16.094  68.306  1.00  0.00    -0.232 C  
HETATM    3  H   UNL     1      -8.506  15.874  69.359  1.00  0.00     0.000 HD 
HETATM    4  C   UNL     1     -10.898  17.289  67.704  1.00  0.00    -0.238 C  
HETATM    5  C   UNL     1      -9.643  15.121  67.215  1.00  0.00    -0.211 C  
HETATM    6  C   UNL     1     -10.148  17.902  66.520  1.00  0.00    -0.370 C  
HETATM    7  C   UNL     1      -8.978  15.846  66.043  1.00  0.00    -0.302 C  
HETATM    8  N   UNL     1      -9.797  16.929  65.477  1.00  0.00    -0.556 NA 
ENDROOT
BRANCH   2   9
HETATM    9  C   UNL     1     -10.996  15.348  69.335  1.00  0.00    -0.276 A  
HETATM   10  C   UNL     1     -11.168  13.954  69.269  1.00  0.00    -0.296 A  
HETATM   11  C   UNL     1     -11.663  16.040  70.364  1.00  0.00    -0.326 A  
HETATM   12  C   UNL     1     -12.650  13.989  71.169  1.00  0.00    -0.371 A  
HETATM   13  C   UNL     1     -11.988  13.278  70.176  1.00  0.00    -0.388 A  
HETATM   14 BR   UNL     1     -13.785  13.080  72.376  1.00  0.00    -0.433 Br 
HETATM   15  C   UNL     1     -12.487  15.367  71.274  1.00  0.00    -0.460 A  
ENDBRANCH   2   9
BRANCH   8  16
HETATM   16  C   UNL     1     -10.958  16.399  64.738  1.00  0.00    -0.231 C  
BRANCH  16  17
HETATM   17  C   UNL     1     -10.918  14.886  64.501  1.00  0.00    -0.216 C  
BRANCH  17  18
HETATM   18  C   UNL     1     -12.283  14.224  64.689  1.00  0.00    -0.470 C  
BRANCH  18  19
HETATM   19  C   UNL     1     -12.229  12.746  64.357  1.00  0.00    -0.428 C  
HETATM   20  O   UNL     1     -12.912  12.236  63.472  1.00  0.00    -0.776 OA 
BRANCH  19  21
HETATM   21  C   UNL     1     -11.341  11.874  65.173  1.00  0.00    -0.328 A  
HETATM   22  C   UNL     1     -10.436  11.043  64.498  1.00  0.00    -0.411 A  
HETATM   23  C   UNL     1      -9.593  10.196  65.217  1.00  0.00    -0.338 A  
HETATM   24  C   UNL     1      -9.651  10.190  66.605  1.00  0.00    -0.183 A  
HETATM   25  F   UNL     1      -8.840   9.376  67.295  1.00  0.00    -0.125 F  
HETATM   26  C   UNL     1     -10.534  11.019  67.290  1.00  0.00    -0.270 A  
HETATM   27  C   UNL     1     -11.384  11.864  66.574  1.00  0.00    -0.403 A  
ENDBRANCH  19  21
ENDBRANCH  18  19
ENDBRANCH  17  18
ENDBRANCH  16  17
ENDBRANCH   8  16
TORSDOF 6
ENDMDL
MODEL       16
REMARK 921   NORMALIZED FREE ENERGY PREDICTED BY IDOCK:   -6.59 KCAL/MOL
REMARK 922        TOTAL FREE ENERGY PREDICTED BY IDOCK:  -10.12 KCAL/MOL
REMARK 923 INTER-LIGAND FREE ENERGY PREDICTED BY IDOCK:   -8.96 KCAL/MOL
REMARK 924 INTRA-LIGAND FREE ENERGY PREDICTED BY IDOCK:   -1.15 KCAL/MOL
REMARK 927      BINDING AFFINITY PREDICTED BY RF-SCORE:    0.00 PKD
ROOT
HETATM    1  O   UNL     1     -12.571  10.689  68.936  1.00  0.00    -0.742 OA 
HETATM    2  C   UNL     1     -11.717  11.843  68.838  1.00  0.00    -0.323 C  
HETATM    3  H   UNL     1     -13.470  10.985  68.845  1.00  0.00     0.000 HD 
HETATM    4  C   UNL     1     -10.261  11.364  68.987  1.00  0.00    -0.137 C  
HETATM    5  C   UNL     1     -11.966  12.499  67.465  1.00  0.00    -0.287 C  
HETATM    6  C   UNL     1      -9.792  10.584  67.756  1.00  0.00    -0.165 C  
HETATM    7  C   UNL     1     -11.389  11.675  66.312  1.00  0.00    -0.227 C  
HETATM    8  N   UNL     1      -9.974  11.313  66.493  1.00  0.00    -0.206 NA 
ENDROOT
BRANCH   2   9
HETATM    9  C   UNL     1     -12.098  12.812  69.966  1.00  0.00    -0.355 A  
HETATM   10  C   UNL     1     -11.725  14.168  69.921  1.00  0.00    -0.372 A  
HETATM   11  C   UNL     1     -12.812  12.369  71.096  1.00  0.00    -0.299 A  
HETATM   12  C   UNL     1     -12.720  14.572  72.079  1.00  0.00    -0.338 A  
HETATM   13  C   UNL     1     -12.031  15.042  70.967  1.00  0.00    -0.376 A  
HETATM   14 BR   UNL     1     -13.104  15.747  73.509  1.00  0.00    -0.628 Br 
HETATM   15  C   UNL     1     -13.119  13.241  72.147  1.00  0.00    -0.486 A  
ENDBRANCH   2   9
BRANCH   8  16
HETATM   16  C   UNL     1      -9.094  12.486  66.346  1.00  0.00    -0.127 C  
BRANCH  16  17
HETATM   17  C   UNL     1      -9.671  13.603  65.471  1.00  0.00    -0.086 C  
BRANCH  17  18
HETATM   18  C   UNL     1      -9.284  14.997  65.964  1.00  0.00    -0.245 C  
BRANCH  18  19
HETATM   19  C   UNL     1     -10.373  16.009  65.665  1.00  0.00    -0.392 C  
HETATM   20  O   UNL     1     -11.203  15.851  64.772  1.00  0.00    -0.429 OA 
BRANCH  19  21
HETATM   21  C   UNL     1     -10.405  17.265  66.463  1.00  0.00    -0.308 A  
HETATM   22  C   UNL     1     -10.350  17.158  67.860  1.00  0.00    -0.350 A  
HETATM   23  C   UNL     1     -10.393  18.304  68.652  1.00  0.00    -0.301 A  
HETATM   24  C   UNL     1     -10.480  19.552  68.047  1.00  0.00    -0.405 A  
HETATM   25  F   UNL     1     -10.520  20.653  68.809  1.00  0.00    -0.391 F  
HETATM   26  C   UNL     1     -10.521  19.676  66.661  1.00  0.00    -0.610 A  
HETATM   27  C   UNL     1     -10.485  18.530  65.865  1.00  0.00    -0.379 A  
ENDBRANCH  19  21
ENDBRANCH  18  19
ENDBRANCH  17  18
ENDBRANCH  16  17
ENDBRANCH   8  16
TORSDOF 6
ENDMDL
MODEL       17
REMARK 921   NORMALIZED FREE ENERGY PREDICTED BY IDOCK:   -6.49 KCAL/MOL
REMARK 922        TOTAL FREE ENERGY PREDICTED BY IDOCK:   -9.98 KCAL/MOL
REMARK 923 INTER-LIGAND FREE ENERGY PREDICTED BY IDOCK:   -7.78 KCAL/MOL
REMARK 924 INTRA-LIGAND FREE ENERGY PREDICTED BY IDOCK:   -2.20 KCAL/MOL
REMARK 927      BINDING AFFINITY PREDICTED BY RF-SCORE:    0.00 PKD
ROOT
HETATM    1  O   UNL     1     -13.847  14.428  70.611  1.00  0.00    -0.343 OA 
HETATM    2  C   UNL     1     -12.495  13.971  70.426  1.00  0.00    -0.350 C  
HETATM    3  H   UNL     1     -14.086  14.268  71.517  1.00  0.00     0.000 HD 
HETATM    4  C   UNL     1     -12.108  14.230  68.958  1.00  0.00    -0.320 C  
HETATM    5  C   UNL     1     -11.595  14.756  71.402  1.00  0.00    -0.305 C  
HETATM    6  C   UNL     1     -11.923  15.723  68.676  1.00  0.00    -0.149 C  
HETATM    7  C   UNL     1     -11.415  16.217  70.982  1.00  0.00    -0.382 C  
HETATM    8  N   UNL     1     -10.978  16.382  69.587  1.00  0.00    -0.336 NA 
ENDROOT
BRANCH   2   9
HETATM    9  C   UNL     1     -12.452  12.472  70.753  1.00  0.00    -0.357 A  
HETATM   10  C   UNL     1     -11.671  11.582  69.994  1.00  0.00    -0.414 A  
HETATM   11  C   UNL     1     -13.215  11.935  71.809  1.00  0.00    -0.426 A  
HETATM   12  C   UNL     1     -12.443   9.706  71.296  1.00  0.00    -0.355 A  
HETATM   13  C   UNL     1     -11.665  10.210  70.260  1.00  0.00    -0.361 A  
HETATM   14 BR   UNL     1     -12.461   7.847  71.636  1.00  0.00    -0.362 Br 
HETATM   15  C   UNL     1     -13.213  10.562  72.077  1.00  0.00    -0.483 A  
ENDBRANCH   2   9
BRANCH   8  16
HETATM   16  C   UNL     1      -9.577  15.959  69.406  1.00  0.00    -0.265 C  
BRANCH  16  17
HETATM   17  C   UNL     1      -8.939  16.430  68.095  1.00  0.00    -0.197 C  
BRANCH  17  18
HETATM   18  C   UNL     1      -8.259  15.295  67.330  1.00  0.00    -0.230 C  
BRANCH  18  19
HETATM   19  C   UNL     1      -9.238  14.582  66.418  1.00  0.00    -0.234 C  
HETATM   20  O   UNL     1      -9.884  15.162  65.549  1.00  0.00    -0.338 OA 
BRANCH  19  21
HETATM   21  C   UNL     1      -9.453  13.123  66.621  1.00  0.00    -0.260 A  
HETATM   22  C   UNL     1     -10.591  12.540  66.047  1.00  0.00    -0.289 A  
HETATM   23  C   UNL     1     -10.846  11.180  66.222  1.00  0.00    -0.266 A  
HETATM   24  C   UNL     1      -9.957  10.407  66.960  1.00  0.00    -0.206 A  
HETATM   25  F   UNL     1     -10.203   9.100  67.126  1.00  0.00    -0.242 F  
HETATM   26  C   UNL     1      -8.816  10.968  67.524  1.00  0.00    -0.131 A  
HETATM   27  C   UNL     1      -8.561  12.330  67.357  1.00  0.00    -0.178 A  
ENDBRANCH  19  21
ENDBRANCH  18  19
ENDBRANCH  17  18
ENDBRANCH  16  17
ENDBRANCH   8  16
TORSDOF 6
ENDMDL
MODEL       18
REMARK 921   NORMALIZED FREE ENERGY PREDICTED BY IDOCK:   -6.47 KCAL/MOL
REMARK 922        TOTAL FREE ENERGY PREDICTED BY IDOCK:   -9.95 KCAL/MOL
REMARK 923 INTER-LIGAND FREE ENERGY PREDICTED BY IDOCK:   -9.12 KCAL/MOL
REMARK 924 INTRA-LIGAND FREE ENERGY PREDICTED BY IDOCK:   -0.83 KCAL/MOL
REMARK 927      BINDING AFFINITY PREDICTED BY RF-SCORE:    0.00 PKD
ROOT
HETATM    1  O   UNL     1     -13.256  10.494  69.538  1.00  0.00    -0.440 OA 
HETATM    2  C   UNL     1     -11.847  10.784  69.582  1.00  0.00    -0.320 C  
HETATM    3  H   UNL     1     -13.605  10.620  70.412  1.00  0.00     0.000 HD 
HETATM    4  C   UNL     1     -11.280  10.579  68.165  1.00  0.00    -0.357 C  
HETATM    5  C   UNL     1     -11.680  12.241  70.060  1.00  0.00    -0.319 C  
HETATM    6  C   UNL     1     -11.744  11.677  67.205  1.00  0.00    -0.133 C  
HETATM    7  C   UNL     1     -12.101  13.256  68.995  1.00  0.00    -0.226 C  
HETATM    8  N   UNL     1     -11.465  13.037  67.686  1.00  0.00    -0.303 NA 
ENDROOT
BRANCH   2   9
HETATM    9  C   UNL     1     -11.196   9.819  70.582  1.00  0.00    -0.402 A  
HETATM   10  C   UNL     1     -11.959   9.162  71.565  1.00  0.00    -0.422 A  
HETATM   11  C   UNL     1      -9.808   9.579  70.566  1.00  0.00    -0.331 A  
HETATM   12  C   UNL     1      -9.988   8.115  72.477  1.00  0.00    -0.302 A  
HETATM   13  C   UNL     1     -11.363   8.318  72.506  1.00  0.00    -0.455 A  
HETATM   14 BR   UNL     1      -9.177   7.000  73.769  1.00  0.00    -0.260 Br 
HETATM   15  C   UNL     1      -9.207   8.736  71.507  1.00  0.00    -0.332 A  
ENDBRANCH   2   9
BRANCH   8  16
HETATM   16  C   UNL     1     -10.032  13.379  67.718  1.00  0.00    -0.233 C  
BRANCH  16  17
HETATM   17  C   UNL     1      -9.621  14.473  66.727  1.00  0.00    -0.274 C  
BRANCH  17  18
HETATM   18  C   UNL     1     -10.806  15.027  65.937  1.00  0.00    -0.339 C  
BRANCH  18  19
HETATM   19  C   UNL     1     -10.629  16.503  65.641  1.00  0.00    -0.304 C  
HETATM   20  O   UNL     1     -10.965  17.015  64.576  1.00  0.00    -1.031 OA 
BRANCH  19  21
HETATM   21  C   UNL     1      -9.979  17.355  66.675  1.00  0.00    -0.308 A  
HETATM   22  C   UNL     1      -8.649  17.743  66.466  1.00  0.00    -0.283 A  
HETATM   23  C   UNL     1      -7.991  18.527  67.412  1.00  0.00    -0.246 A  
HETATM   24  C   UNL     1      -8.667  18.929  68.557  1.00  0.00    -0.347 A  
HETATM   25  F   UNL     1      -8.034  19.684  69.466  1.00  0.00    -0.342 F  
HETATM   26  C   UNL     1      -9.993  18.564  68.773  1.00  0.00    -0.417 A  
HETATM   27  C   UNL     1     -10.653  17.774  67.831  1.00  0.00    -0.389 A  
ENDBRANCH  19  21
ENDBRANCH  18  19
ENDBRANCH  17  18
ENDBRANCH  16  17
ENDBRANCH   8  16
TORSDOF 6
ENDMDL
MODEL       19
REMARK 921   NORMALIZED FREE ENERGY PREDICTED BY IDOCK:   -6.42 KCAL/MOL
REMARK 922        TOTAL FREE ENERGY PREDICTED BY IDOCK:   -9.88 KCAL/MOL
REMARK 923 INTER-LIGAND FREE ENERGY PREDICTED BY IDOCK:   -7.02 KCAL/MOL
REMARK 924 INTRA-LIGAND FREE ENERGY PREDICTED BY IDOCK:   -2.85 KCAL/MOL
REMARK 927      BINDING AFFINITY PREDICTED BY RF-SCORE:    0.00 PKD
ROOT
HETATM    1  O   UNL     1      -9.319   6.712  65.664  1.00  0.00    -0.381 OA 
HETATM    2  C   UNL     1      -9.194   7.612  66.779  1.00  0.00    -0.160 C  
HETATM    3  H   UNL     1     -10.203   6.364  65.670  1.00  0.00     0.000 HD 
HETATM    4  C   UNL     1      -7.760   8.176  66.770  1.00  0.00    -0.095 C  
HETATM    5  C   UNL     1     -10.247   8.725  66.608  1.00  0.00    -0.340 C  
HETATM    6  C   UNL     1      -7.545   9.157  65.615  1.00  0.00    -0.094 C  
HETATM    7  C   UNL     1      -9.894   9.694  65.477  1.00  0.00    -0.281 C  
HETATM    8  N   UNL     1      -8.532  10.244  65.574  1.00  0.00    -0.156 NA 
ENDROOT
BRANCH   2   9
HETATM    9  C   UNL     1      -9.466   6.816  68.063  1.00  0.00    -0.119 A  
HETATM   10  C   UNL     1     -10.777   6.603  68.525  1.00  0.00    -0.308 A  
HETATM   11  C   UNL     1      -8.409   6.294  68.835  1.00  0.00    -0.120 A  
HETATM   12  C   UNL     1      -9.964   5.430  70.468  1.00  0.00    -0.221 A  
HETATM   13  C   UNL     1     -11.027   5.918  69.717  1.00  0.00    -0.452 A  
HETATM   14 BR   UNL     1     -10.299   4.533  72.097  1.00  0.00    -0.192 Br 
HETATM   15  C   UNL     1      -8.655   5.609  70.030  1.00  0.00    -0.122 A  
ENDBRANCH   2   9
BRANCH   8  16
HETATM   16  C   UNL     1      -8.415  11.202  66.688  1.00  0.00    -0.164 C  
BRANCH  16  17
HETATM   17  C   UNL     1      -9.585  12.185  66.802  1.00  0.00    -0.216 C  
BRANCH  17  18
HETATM   18  C   UNL     1     -10.049  12.384  68.244  1.00  0.00    -0.227 C  
BRANCH  18  19
HETATM   19  C   UNL     1     -11.133  11.391  68.615  1.00  0.00    -0.236 C  
HETATM   20  O   UNL     1     -12.216  11.338  68.037  1.00  0.00    -0.621 OA 
BRANCH  19  21
HETATM   21  C   UNL     1     -10.882  10.472  69.760  1.00  0.00    -0.335 A  
HETATM   22  C   UNL     1     -11.964  10.145  70.589  1.00  0.00    -0.423 A  
HETATM   23  C   UNL     1     -11.778   9.302  71.684  1.00  0.00    -0.462 A  
HETATM   24  C   UNL     1     -10.516   8.780  71.938  1.00  0.00    -0.353 A  
HETATM   25  F   UNL     1     -10.338   7.969  72.990  1.00  0.00    -0.340 F  
HETATM   26  C   UNL     1      -9.434   9.083  71.117  1.00  0.00    -0.348 A  
HETATM   27  C   UNL     1      -9.615   9.933  70.024  1.00  0.00    -0.260 A  
ENDBRANCH  19  21
ENDBRANCH  18  19
ENDBRANCH  17  18
ENDBRANCH  16  17
ENDBRANCH   8  16
TORSDOF 6
ENDMDL
MODEL       20
REMARK 921   NORMALIZED FREE ENERGY PREDICTED BY IDOCK:   -6.40 KCAL/MOL
REMARK 922        TOTAL FREE ENERGY PREDICTED BY IDOCK:   -9.86 KCAL/MOL
REMARK 923 INTER-LIGAND FREE ENERGY PREDICTED BY IDOCK:   -7.88 KCAL/MOL
REMARK 924 INTRA-LIGAND FREE ENERGY PREDICTED BY IDOCK:   -1.99 KCAL/MOL
REMARK 927      BINDING AFFINITY PREDICTED BY RF-SCORE:    0.00 PKD
ROOT
HETATM    1  O   UNL     1     -10.190  14.290  69.574  1.00  0.00    -0.430 OA 
HETATM    2  C   UNL     1     -10.941  13.373  68.759  1.00  0.00    -0.257 C  
HETATM    3  H   UNL     1      -9.515  13.794  70.023  1.00  0.00     0.000 HD 
HETATM    4  C   UNL     1     -12.035  14.177  68.032  1.00  0.00    -0.372 C  
HETATM    5  C   UNL     1      -9.961  12.713  67.766  1.00  0.00    -0.218 C  
HETATM    6  C   UNL     1     -11.447  15.077  66.942  1.00  0.00    -0.263 C  
HETATM    7  C   UNL     1      -9.497  13.680  66.675  1.00  0.00    -0.277 C  
HETATM    8  N   UNL     1     -10.601  14.360  65.979  1.00  0.00    -0.293 NA 
ENDROOT
BRANCH   2   9
HETATM    9  C   UNL     1     -11.556  12.313  69.682  1.00  0.00    -0.348 A  
HETATM   10  C   UNL     1     -11.297  10.943  69.494  1.00  0.00    -0.351 A  
HETATM   11  C   UNL     1     -12.421  12.675  70.733  1.00  0.00    -0.357 A  
HETATM   12  C   UNL     1     -12.756  10.358  71.322  1.00  0.00    -0.432 A  
HETATM   13  C   UNL     1     -11.891   9.972  70.305  1.00  0.00    -0.291 A  
HETATM   14 BR   UNL     1     -13.586   9.044  72.397  1.00  0.00    -0.516 Br 
HETATM   15  C   UNL     1     -13.019  11.706  71.546  1.00  0.00    -0.463 A  
ENDBRANCH   2   9
BRANCH   8  16
HETATM   16  C   UNL     1     -11.342  13.431  65.106  1.00  0.00    -0.299 C  
BRANCH  16  17
HETATM   17  C   UNL     1     -10.512  12.841  63.962  1.00  0.00    -0.433 C  
BRANCH  17  18
HETATM   18  C   UNL     1     -10.921  11.410  63.614  1.00  0.00    -0.443 C  
BRANCH  18  19
HETATM   19  C   UNL     1      -9.735  10.468  63.675  1.00  0.00    -0.318 C  
HETATM   20  O   UNL     1      -9.235   9.959  62.675  1.00  0.00    -0.271 OA 
BRANCH  19  21
HETATM   21  C   UNL     1      -9.185  10.114  65.013  1.00  0.00    -0.266 A  
HETATM   22  C   UNL     1      -9.999   9.377  65.884  1.00  0.00    -0.327 A  
HETATM   23  C   UNL     1      -9.536   9.035  67.154  1.00  0.00    -0.218 A  
HETATM   24  C   UNL     1      -8.259   9.421  67.544  1.00  0.00    -0.117 A  
HETATM   25  F   UNL     1      -7.815   9.091  68.764  1.00  0.00    -0.090 F  
HETATM   26  C   UNL     1      -7.434  10.141  66.686  1.00  0.00    -0.106 A  
HETATM   27  C   UNL     1      -7.896  10.491  65.416  1.00  0.00    -0.119 A  
ENDBRANCH  19  21
ENDBRANCH  18  19
ENDBRANCH  17  18
ENDBRANCH  16  17
ENDBRANCH   8  16
TORSDOF 6
ENDMDL
MODEL       21
REMARK 921   NORMALIZED FREE ENERGY PREDICTED BY IDOCK:   -6.39 KCAL/MOL
REMARK 922        TOTAL FREE ENERGY PREDICTED BY IDOCK:   -9.85 KCAL/MOL
REMARK 923 INTER-LIGAND FREE ENERGY PREDICTED BY IDOCK:   -8.28 KCAL/MOL
REMARK 924 INTRA-LIGAND FREE ENERGY PREDICTED BY IDOCK:   -1.57 KCAL/MOL
REMARK 927      BINDING AFFINITY PREDICTED BY RF-SCORE:    0.00 PKD
ROOT
HETATM    1  O   UNL     1      -9.085   8.236  64.889  1.00  0.00    -0.391 OA 
HETATM    2  C   UNL     1      -9.411   8.748  66.194  1.00  0.00    -0.234 C  
HETATM    3  H   UNL     1      -8.537   8.880  64.454  1.00  0.00     0.000 HD 
HETATM    4  C   UNL     1     -10.298   7.706  66.899  1.00  0.00    -0.388 C  
HETATM    5  C   UNL     1      -8.089   8.981  66.953  1.00  0.00    -0.112 C  
HETATM    6  C   UNL     1      -9.503   6.460  67.297  1.00  0.00    -0.123 C  
HETATM    7  C   UNL     1      -7.417   7.671  67.370  1.00  0.00    -0.100 C  
HETATM    8  N   UNL     1      -8.308   6.755  68.099  1.00  0.00    -0.117 NA 
ENDROOT
BRANCH   2   9
HETATM    9  C   UNL     1     -10.158  10.076  66.009  1.00  0.00    -0.318 A  
HETATM   10  C   UNL     1     -10.793  10.713  67.090  1.00  0.00    -0.328 A  
HETATM   11  C   UNL     1     -10.253  10.688  64.743  1.00  0.00    -0.401 A  
HETATM   12  C   UNL     1     -11.606  12.469  65.653  1.00  0.00    -0.389 A  
HETATM   13  C   UNL     1     -11.513  11.898  66.917  1.00  0.00    -0.390 A  
HETATM   14 BR   UNL     1     -12.607  14.054  65.411  1.00  0.00    -0.488 Br 
HETATM   15  C   UNL     1     -10.975  11.874  64.565  1.00  0.00    -0.376 A  
ENDBRANCH   2   9
BRANCH   8  16
HETATM   16  C   UNL     1      -8.605   7.255  69.454  1.00  0.00    -0.134 C  
BRANCH  16  17
HETATM   17  C   UNL     1      -8.873   6.157  70.488  1.00  0.00    -0.146 C  
BRANCH  17  18
HETATM   18  C   UNL     1      -9.968   6.540  71.483  1.00  0.00    -0.193 C  
BRANCH  18  19
HETATM   19  C   UNL     1     -11.240   6.953  70.769  1.00  0.00    -0.294 C  
HETATM   20  O   UNL     1     -11.768   6.268  69.896  1.00  0.00    -0.408 OA 
BRANCH  19  21
HETATM   21  C   UNL     1     -11.846   8.268  71.116  1.00  0.00    -0.302 A  
HETATM   22  C   UNL     1     -12.957   8.275  71.971  1.00  0.00    -0.355 A  
HETATM   23  C   UNL     1     -13.570   9.479  72.314  1.00  0.00    -0.494 A  
HETATM   24  C   UNL     1     -13.065  10.672  71.809  1.00  0.00    -0.466 A  
HETATM   25  F   UNL     1     -13.654  11.829  72.140  1.00  0.00    -0.527 F  
HETATM   26  C   UNL     1     -11.954  10.683  70.971  1.00  0.00    -0.442 A  
HETATM   27  C   UNL     1     -11.342   9.478  70.621  1.00  0.00    -0.364 A  
ENDBRANCH  19  21
ENDBRANCH  18  19
ENDBRANCH  17  18
ENDBRANCH  16  17
ENDBRANCH   8  16
TORSDOF 6
ENDMDL
MODEL       22
REMARK 921   NORMALIZED FREE ENERGY PREDICTED BY IDOCK:   -6.36 KCAL/MOL
REMARK 922        TOTAL FREE ENERGY PREDICTED BY IDOCK:   -9.80 KCAL/MOL
REMARK 923 INTER-LIGAND FREE ENERGY PREDICTED BY IDOCK:   -8.56 KCAL/MOL
REMARK 924 INTRA-LIGAND FREE ENERGY PREDICTED BY IDOCK:   -1.25 KCAL/MOL
REMARK 927      BINDING AFFINITY PREDICTED BY RF-SCORE:    0.00 PKD
ROOT
HETATM    1  O   UNL     1      -9.362   8.470  65.378  1.00  0.00    -0.423 OA 
HETATM    2  C   UNL     1      -9.748   9.290  66.496  1.00  0.00    -0.240 C  
HETATM    3  H   UNL     1      -8.707   8.948  64.882  1.00  0.00     0.000 HD 
HETATM    4  C   UNL     1     -10.810   8.516  67.300  1.00  0.00    -0.076 C  
HETATM    5  C   UNL     1      -8.485   9.568  67.336  1.00  0.00    -0.125 C  
HETATM    6  C   UNL     1     -10.201   7.326  68.045  1.00  0.00    -0.185 C  
HETATM    7  C   UNL     1      -8.007   8.330  68.099  1.00  0.00    -0.123 C  
HETATM    8  N   UNL     1      -9.061   7.685  68.899  1.00  0.00    -0.141 NA 
ENDROOT
BRANCH   2   9
HETATM    9  C   UNL     1     -10.320  10.603  65.946  1.00  0.00    -0.291 A  
HETATM   10  C   UNL     1     -11.027  11.494  66.773  1.00  0.00    -0.347 A  
HETATM   11  C   UNL     1     -10.177  10.947  64.587  1.00  0.00    -0.411 A  
HETATM   12  C   UNL     1     -11.448  12.974  64.916  1.00  0.00    -0.316 A  
HETATM   13  C   UNL     1     -11.588  12.669  66.265  1.00  0.00    -0.440 A  
HETATM   14 BR   UNL     1     -12.235  14.545  64.222  1.00  0.00    -0.326 Br 
HETATM   15  C   UNL     1     -10.739  12.122  64.074  1.00  0.00    -0.432 A  
ENDBRANCH   2   9
BRANCH   8  16
HETATM   16  C   UNL     1      -9.425   8.502  70.071  1.00  0.00    -0.164 C  
BRANCH  16  17
HETATM   17  C   UNL     1     -10.839   8.247  70.604  1.00  0.00    -0.254 C  
BRANCH  17  18
HETATM   18  C   UNL     1     -11.227   9.208  71.727  1.00  0.00    -0.451 C  
BRANCH  18  19
HETATM   19  C   UNL     1     -12.563   9.867  71.451  1.00  0.00    -0.398 C  
HETATM   20  O   UNL     1     -13.611   9.234  71.349  1.00  0.00    -0.365 OA 
BRANCH  19  21
HETATM   21  C   UNL     1     -12.592  11.342  71.250  1.00  0.00    -0.480 A  
HETATM   22  C   UNL     1     -13.320  12.116  72.164  1.00  0.00    -0.438 A  
HETATM   23  C   UNL     1     -13.391  13.500  72.010  1.00  0.00    -0.563 A  
HETATM   24  C   UNL     1     -12.726  14.105  70.951  1.00  0.00    -0.361 A  
HETATM   25  F   UNL     1     -12.794  15.436  70.805  1.00  0.00    -0.387 F  
HETATM   26  C   UNL     1     -11.987  13.353  70.043  1.00  0.00    -0.407 A  
HETATM   27  C   UNL     1     -11.919  11.966  70.190  1.00  0.00    -0.413 A  
ENDBRANCH  19  21
ENDBRANCH  18  19
ENDBRANCH  17  18
ENDBRANCH  16  17
ENDBRANCH   8  16
TORSDOF 6
ENDMDL
MODEL       23
REMARK 921   NORMALIZED FREE ENERGY PREDICTED BY IDOCK:   -6.35 KCAL/MOL
REMARK 922        TOTAL FREE ENERGY PREDICTED BY IDOCK:   -9.79 KCAL/MOL
REMARK 923 INTER-LIGAND FREE ENERGY PREDICTED BY IDOCK:   -7.60 KCAL/MOL
REMARK 924 INTRA-LIGAND FREE ENERGY PREDICTED BY IDOCK:   -2.19 KCAL/MOL
REMARK 927      BINDING AFFINITY PREDICTED BY RF-SCORE:    0.00 PKD
ROOT
HETATM    1  O   UNL     1     -13.413   9.314  73.324  1.00  0.00    -0.786 OA 
HETATM    2  C   UNL     1     -12.869   9.389  71.995  1.00  0.00    -0.414 C  
HETATM    3  H   UNL     1     -14.278   9.709  73.306  1.00  0.00     0.000 HD 
HETATM    4  C   UNL     1     -11.468   8.750  72.024  1.00  0.00    -0.441 C  
HETATM    5  C   UNL     1     -13.824   8.632  71.050  1.00  0.00     0.029 C  
HETATM    6  C   UNL     1     -11.542   7.231  72.191  1.00  0.00    -0.286 C  
HETATM    7  C   UNL     1     -13.761   7.116  71.249  1.00  0.00    -0.183 C  
HETATM    8  N   UNL     1     -12.396   6.569  71.196  1.00  0.00    -0.236 NA 
ENDROOT
BRANCH   2   9
HETATM    9  C   UNL     1     -12.792  10.870  71.598  1.00  0.00    -0.554 A  
HETATM   10  C   UNL     1     -11.982  11.299  70.531  1.00  0.00    -0.467 A  
HETATM   11  C   UNL     1     -13.513  11.852  72.305  1.00  0.00    -0.187 A  
HETATM   12  C   UNL     1     -12.582  13.600  70.924  1.00  0.00    -0.346 A  
HETATM   13  C   UNL     1     -11.874  12.651  70.196  1.00  0.00    -0.326 A  
HETATM   14 BR   UNL     1     -12.411  15.432  70.493  1.00  0.00    -0.471 Br 
HETATM   15  C   UNL     1     -13.407  13.208  71.974  1.00  0.00    -0.587 A  
ENDBRANCH   2   9
BRANCH   8  16
HETATM   16  C   UNL     1     -11.854   6.602  69.825  1.00  0.00    -0.095 C  
BRANCH  16  17
HETATM   17  C   UNL     1     -10.560   5.803  69.638  1.00  0.00    -0.396 C  
BRANCH  17  18
HETATM   18  C   UNL     1      -9.554   6.516  68.735  1.00  0.00    -0.126 C  
BRANCH  18  19
HETATM   19  C   UNL     1      -9.076   7.813  69.358  1.00  0.00    -0.146 C  
HETATM   20  O   UNL     1      -8.514   7.860  70.450  1.00  0.00    -0.127 OA 
BRANCH  19  21
HETATM   21  C   UNL     1      -9.343   9.083  68.630  1.00  0.00    -0.136 A  
HETATM   22  C   UNL     1      -8.428  10.133  68.782  1.00  0.00    -0.131 A  
HETATM   23  C   UNL     1      -8.642  11.349  68.135  1.00  0.00    -0.153 A  
HETATM   24  C   UNL     1      -9.763  11.507  67.329  1.00  0.00    -0.182 A  
HETATM   25  F   UNL     1      -9.967  12.676  66.706  1.00  0.00    -0.218 F  
HETATM   26  C   UNL     1     -10.674  10.470  67.156  1.00  0.00    -0.323 A  
HETATM   27  C   UNL     1     -10.467   9.253  67.809  1.00  0.00    -0.313 A  
ENDBRANCH  19  21
ENDBRANCH  18  19
ENDBRANCH  17  18
ENDBRANCH  16  17
ENDBRANCH   8  16
TORSDOF 6
ENDMDL
MODEL       24
REMARK 921   NORMALIZED FREE ENERGY PREDICTED BY IDOCK:   -6.30 KCAL/MOL
REMARK 922        TOTAL FREE ENERGY PREDICTED BY IDOCK:   -9.72 KCAL/MOL
REMARK 923 INTER-LIGAND FREE ENERGY PREDICTED BY IDOCK:   -7.82 KCAL/MOL
REMARK 924 INTRA-LIGAND FREE ENERGY PREDICTED BY IDOCK:   -1.90 KCAL/MOL
REMARK 927      BINDING AFFINITY PREDICTED BY RF-SCORE:    0.00 PKD
ROOT
HETATM    1  O   UNL     1     -11.524  16.344  70.843  1.00  0.00    -0.543 OA 
HETATM    2  C   UNL     1     -11.225  15.357  69.839  1.00  0.00    -0.299 C  
HETATM    3  H   UNL     1     -11.116  16.065  71.654  1.00  0.00     0.000 HD 
HETATM    4  C   UNL     1     -11.887  15.809  68.524  1.00  0.00    -0.233 C  
HETATM    5  C   UNL     1      -9.692  15.267  69.707  1.00  0.00    -0.167 C  
HETATM    6  C   UNL     1     -11.176  17.021  67.920  1.00  0.00     0.015 C  
HETATM    7  C   UNL     1      -9.093  16.496  69.019  1.00  0.00    -0.229 C  
HETATM    8  N   UNL     1      -9.731  16.826  67.735  1.00  0.00    -0.244 NA 
ENDROOT
BRANCH   2   9
HETATM    9  C   UNL     1     -11.797  14.013  70.312  1.00  0.00    -0.373 A  
HETATM   10  C   UNL     1     -12.682  13.940  71.403  1.00  0.00    -0.445 A  
HETATM   11  C   UNL     1     -11.433  12.805  69.684  1.00  0.00    -0.255 A  
HETATM   12  C   UNL     1     -12.777  11.537  71.238  1.00  0.00    -0.364 A  
HETATM   13  C   UNL     1     -13.169  12.714  71.865  1.00  0.00    -0.504 A  
HETATM   14 BR   UNL     1     -13.409   9.876  71.883  1.00  0.00    -0.504 Br 
HETATM   15  C   UNL     1     -11.917  11.575  70.145  1.00  0.00    -0.452 A  
ENDBRANCH   2   9
BRANCH   8  16
HETATM   16  C   UNL     1      -9.389  15.840  66.693  1.00  0.00    -0.258 C  
BRANCH  16  17
HETATM   17  C   UNL     1     -10.364  15.804  65.512  1.00  0.00    -0.430 C  
BRANCH  17  18
HETATM   18  C   UNL     1     -10.413  14.438  64.830  1.00  0.00    -0.448 C  
BRANCH  18  19
HETATM   19  C   UNL     1     -11.228  13.448  65.639  1.00  0.00    -0.292 C  
HETATM   20  O   UNL     1     -12.435  13.576  65.830  1.00  0.00    -0.457 OA 
BRANCH  19  21
HETATM   21  C   UNL     1     -10.520  12.296  66.262  1.00  0.00    -0.266 A  
HETATM   22  C   UNL     1     -11.257  11.132  66.520  1.00  0.00    -0.151 A  
HETATM   23  C   UNL     1     -10.643  10.032  67.117  1.00  0.00    -0.296 A  
HETATM   24  C   UNL     1      -9.294  10.095  67.444  1.00  0.00    -0.148 A  
HETATM   25  F   UNL     1      -8.704   9.037  68.017  1.00  0.00    -0.126 F  
HETATM   26  C   UNL     1      -8.545  11.238  67.182  1.00  0.00    -0.147 A  
HETATM   27  C   UNL     1      -9.157  12.344  66.590  1.00  0.00    -0.204 A  
ENDBRANCH  19  21
ENDBRANCH  18  19
ENDBRANCH  17  18
ENDBRANCH  16  17
ENDBRANCH   8  16
TORSDOF 6
ENDMDL
MODEL       25
REMARK 921   NORMALIZED FREE ENERGY PREDICTED BY IDOCK:   -6.29 KCAL/MOL
REMARK 922        TOTAL FREE ENERGY PREDICTED BY IDOCK:   -9.71 KCAL/MOL
REMARK 923 INTER-LIGAND FREE ENERGY PREDICTED BY IDOCK:   -7.50 KCAL/MOL
REMARK 924 INTRA-LIGAND FREE ENERGY PREDICTED BY IDOCK:   -2.21 KCAL/MOL
REMARK 927      BINDING AFFINITY PREDICTED BY RF-SCORE:    0.00 PKD
ROOT
HETATM    1  O   UNL     1      -7.583   8.920  67.510  1.00  0.00    -0.091 OA 
HETATM    2  C   UNL     1      -8.874   9.444  67.867  1.00  0.00    -0.124 C  
HETATM    3  H   UNL     1      -7.677   7.983  67.379  1.00  0.00     0.000 HD 
HETATM    4  C   UNL     1      -8.722  10.962  68.081  1.00  0.00    -0.133 C  
HETATM    5  C   UNL     1      -9.848   9.124  66.715  1.00  0.00    -0.291 C  
HETATM    6  C   UNL     1      -8.493  11.701  66.761  1.00  0.00    -0.177 C  
HETATM    7  C   UNL     1      -9.579   9.974  65.471  1.00  0.00    -0.266 C  
HETATM    8  N   UNL     1      -9.515  11.418  65.743  1.00  0.00    -0.229 NA 
ENDROOT
BRANCH   2   9
HETATM    9  C   UNL     1      -9.329   8.747  69.156  1.00  0.00    -0.149 A  
HETATM   10  C   UNL     1     -10.250   7.684  69.125  1.00  0.00    -0.204 A  
HETATM   11  C   UNL     1      -8.859   9.166  70.416  1.00  0.00    -0.253 A  
HETATM   12  C   UNL     1     -10.235   7.524  71.530  1.00  0.00    -0.188 A  
HETATM   13  C   UNL     1     -10.702   7.077  70.300  1.00  0.00    -0.266 A  
HETATM   14 BR   UNL     1     -10.870   6.726  73.121  1.00  0.00    -0.303 Br 
HETATM   15  C   UNL     1      -9.310   8.562  71.595  1.00  0.00    -0.311 A  
ENDBRANCH   2   9
BRANCH   8  16
HETATM   16  C   UNL     1     -10.846  11.967  66.063  1.00  0.00    -0.299 C  
BRANCH  16  17
HETATM   17  C   UNL     1     -10.836  13.438  66.492  1.00  0.00    -0.286 C  
BRANCH  17  18
HETATM   18  C   UNL     1     -11.959  13.772  67.475  1.00  0.00    -0.411 C  
BRANCH  18  19
HETATM   19  C   UNL     1     -11.459  13.763  68.906  1.00  0.00    -0.304 C  
HETATM   20  O   UNL     1     -10.580  14.522  69.310  1.00  0.00    -0.250 OA 
BRANCH  19  21
HETATM   21  C   UNL     1     -12.030  12.759  69.844  1.00  0.00    -0.368 A  
HETATM   22  C   UNL     1     -12.718  13.229  70.971  1.00  0.00    -0.374 A  
HETATM   23  C   UNL     1     -13.257  12.328  71.889  1.00  0.00    -0.481 A  
HETATM   24  C   UNL     1     -13.117  10.963  71.671  1.00  0.00    -0.433 A  
HETATM   25  F   UNL     1     -13.636  10.098  72.554  1.00  0.00    -0.442 F  
HETATM   26  C   UNL     1     -12.449  10.480  70.550  1.00  0.00    -0.433 A  
HETATM   27  C   UNL     1     -11.902  11.379  69.633  1.00  0.00    -0.431 A  
ENDBRANCH  19  21
ENDBRANCH  18  19
ENDBRANCH  17  18
ENDBRANCH  16  17
ENDBRANCH   8  16
TORSDOF 6
ENDMDL
MODEL       26
REMARK 921   NORMALIZED FREE ENERGY PREDICTED BY IDOCK:   -6.28 KCAL/MOL
REMARK 922        TOTAL FREE ENERGY PREDICTED BY IDOCK:   -9.70 KCAL/MOL
REMARK 923 INTER-LIGAND FREE ENERGY PREDICTED BY IDOCK:   -8.92 KCAL/MOL
REMARK 924 INTRA-LIGAND FREE ENERGY PREDICTED BY IDOCK:   -0.78 KCAL/MOL
REMARK 927      BINDING AFFINITY PREDICTED BY RF-SCORE:    0.00 PKD
ROOT
HETATM    1  O   UNL     1      -9.354  11.949  63.055  1.00  0.00    -0.630 OA 
HETATM    2  C   UNL     1     -10.146  11.633  64.214  1.00  0.00    -0.287 C  
HETATM    3  H   UNL     1      -9.499  11.266  62.410  1.00  0.00     0.000 HD 
HETATM    4  C   UNL     1      -9.912  12.740  65.259  1.00  0.00    -0.202 C  
HETATM    5  C   UNL     1     -11.623  11.566  63.773  1.00  0.00    -0.329 C  
HETATM    6  C   UNL     1     -10.568  14.059  64.844  1.00  0.00    -0.424 C  
HETATM    7  C   UNL     1     -12.200  12.948  63.457  1.00  0.00    -0.512 C  
HETATM    8  N   UNL     1     -11.998  13.933  64.531  1.00  0.00    -0.416 NA 
ENDROOT
BRANCH   2   9
HETATM    9  C   UNL     1      -9.688  10.267  64.743  1.00  0.00    -0.397 A  
HETATM   10  C   UNL     1     -10.142   9.773  65.979  1.00  0.00    -0.322 A  
HETATM   11  C   UNL     1      -8.776   9.474  64.019  1.00  0.00    -0.239 A  
HETATM   12  C   UNL     1      -8.777   7.799  65.758  1.00  0.00    -0.133 A  
HETATM   13  C   UNL     1      -9.692   8.551  66.485  1.00  0.00    -0.330 A  
HETATM   14 BR   UNL     1      -8.142   6.162  66.456  1.00  0.00    -0.112 Br 
HETATM   15  C   UNL     1      -8.321   8.251  64.523  1.00  0.00    -0.097 A  
ENDBRANCH   2   9
BRANCH   8  16
HETATM   16  C   UNL     1     -12.844  13.637  65.701  1.00  0.00    -0.371 C  
BRANCH  16  17
HETATM   17  C   UNL     1     -12.126  13.770  67.049  1.00  0.00    -0.436 C  
BRANCH  17  18
HETATM   18  C   UNL     1     -12.027  12.441  67.797  1.00  0.00    -0.252 C  
BRANCH  18  19
HETATM   19  C   UNL     1     -11.703  12.656  69.262  1.00  0.00    -0.322 C  
HETATM   20  O   UNL     1     -11.309  13.732  69.707  1.00  0.00    -0.223 OA 
BRANCH  19  21
HETATM   21  C   UNL     1     -11.826  11.497  70.188  1.00  0.00    -0.440 A  
HETATM   22  C   UNL     1     -10.841  10.501  70.129  1.00  0.00    -0.291 A  
HETATM   23  C   UNL     1     -10.920   9.388  70.964  1.00  0.00    -0.409 A  
HETATM   24  C   UNL     1     -11.975   9.279  71.861  1.00  0.00    -0.363 A  
HETATM   25  F   UNL     1     -12.050   8.208  72.665  1.00  0.00    -0.393 F  
HETATM   26  C   UNL     1     -12.954  10.265  71.942  1.00  0.00    -0.554 A  
HETATM   27  C   UNL     1     -12.881  11.379  71.103  1.00  0.00    -0.440 A  
ENDBRANCH  19  21
ENDBRANCH  18  19
ENDBRANCH  17  18
ENDBRANCH  16  17
ENDBRANCH   8  16
TORSDOF 6
ENDMDL
MODEL       27
REMARK 921   NORMALIZED FREE ENERGY PREDICTED BY IDOCK:   -6.24 KCAL/MOL
REMARK 922        TOTAL FREE ENERGY PREDICTED BY IDOCK:   -9.65 KCAL/MOL
REMARK 923 INTER-LIGAND FREE ENERGY PREDICTED BY IDOCK:   -8.17 KCAL/MOL
REMARK 924 INTRA-LIGAND FREE ENERGY PREDICTED BY IDOCK:   -1.47 KCAL/MOL
REMARK 927      BINDING AFFINITY PREDICTED BY RF-SCORE:    0.00 PKD
ROOT
HETATM    1  O   UNL     1     -10.983  11.079  65.544  1.00  0.00    -0.150 OA 
HETATM    2  C   UNL     1     -10.844  11.958  66.675  1.00  0.00    -0.276 C  
HETATM    3  H   UNL     1     -11.733  10.518  65.704  1.00  0.00     0.000 HD 
HETATM    4  C   UNL     1      -9.628  12.868  66.416  1.00  0.00    -0.252 C  
HETATM    5  C   UNL     1     -12.149  12.771  66.804  1.00  0.00    -0.290 C  
HETATM    6  C   UNL     1      -9.912  13.895  65.318  1.00  0.00    -0.238 C  
HETATM    7  C   UNL     1     -12.294  13.820  65.700  1.00  0.00    -0.482 C  
HETATM    8  N   UNL     1     -11.120  14.696  65.558  1.00  0.00    -0.331 NA 
ENDROOT
BRANCH   2   9
HETATM    9  C   UNL     1     -10.631  11.093  67.924  1.00  0.00    -0.235 A  
HETATM   10  C   UNL     1     -11.699  10.778  68.784  1.00  0.00    -0.315 A  
HETATM   11  C   UNL     1      -9.353  10.607  68.265  1.00  0.00    -0.156 A  
HETATM   12  C   UNL     1     -10.225   9.578  70.268  1.00  0.00    -0.260 A  
HETATM   13  C   UNL     1     -11.500  10.028  69.947  1.00  0.00    -0.274 A  
HETATM   14 BR   UNL     1      -9.950   8.593  71.857  1.00  0.00    -0.404 Br 
HETATM   15  C   UNL     1      -9.150   9.858  69.429  1.00  0.00    -0.216 A  
ENDBRANCH   2   9
BRANCH   8  16
HETATM   16  C   UNL     1     -11.003  15.630  66.693  1.00  0.00    -0.212 C  
BRANCH  16  17
HETATM   17  C   UNL     1      -9.566  15.866  67.171  1.00  0.00    -0.224 C  
BRANCH  17  18
HETATM   18  C   UNL     1      -9.395  15.618  68.669  1.00  0.00    -0.201 C  
BRANCH  18  19
HETATM   19  C   UNL     1     -10.442  16.364  69.473  1.00  0.00    -0.301 C  
HETATM   20  O   UNL     1     -10.557  17.587  69.448  1.00  0.00    -0.226 OA 
BRANCH  19  21
HETATM   21  C   UNL     1     -11.338  15.576  70.364  1.00  0.00    -0.360 A  
HETATM   22  C   UNL     1     -11.859  16.209  71.500  1.00  0.00    -0.528 A  
HETATM   23  C   UNL     1     -12.689  15.509  72.374  1.00  0.00    -0.488 A  
HETATM   24  C   UNL     1     -13.005  14.183  72.103  1.00  0.00    -0.376 A  
HETATM   25  F   UNL     1     -13.804  13.512  72.944  1.00  0.00    -0.569 F  
HETATM   26  C   UNL     1     -12.508  13.544  70.972  1.00  0.00    -0.451 A  
HETATM   27  C   UNL     1     -11.670  14.240  70.098  1.00  0.00    -0.357 A  
ENDBRANCH  19  21
ENDBRANCH  18  19
ENDBRANCH  17  18
ENDBRANCH  16  17
ENDBRANCH   8  16
TORSDOF 6
ENDMDL
MODEL       28
REMARK 921   NORMALIZED FREE ENERGY PREDICTED BY IDOCK:   -6.23 KCAL/MOL
REMARK 922        TOTAL FREE ENERGY PREDICTED BY IDOCK:   -9.63 KCAL/MOL
REMARK 923 INTER-LIGAND FREE ENERGY PREDICTED BY IDOCK:   -8.84 KCAL/MOL
REMARK 924 INTRA-LIGAND FREE ENERGY PREDICTED BY IDOCK:   -0.79 KCAL/MOL
REMARK 927      BINDING AFFINITY PREDICTED BY RF-SCORE:    0.00 PKD
ROOT
HETATM    1  O   UNL     1     -10.108  14.011  64.318  1.00  0.00    -0.697 OA 
HETATM    2  C   UNL     1     -10.271  14.309  65.717  1.00  0.00    -0.334 C  
HETATM    3  H   UNL     1      -9.183  14.083  64.112  1.00  0.00     0.000 HD 
HETATM    4  C   UNL     1     -11.770  14.193  66.051  1.00  0.00    -0.389 C  
HETATM    5  C   UNL     1      -9.427  13.297  66.517  1.00  0.00    -0.251 C  
HETATM    6  C   UNL     1     -12.243  12.738  66.036  1.00  0.00    -0.314 C  
HETATM    7  C   UNL     1     -10.031  11.891  66.499  1.00  0.00    -0.202 C  
HETATM    8  N   UNL     1     -11.448  11.851  66.896  1.00  0.00    -0.452 NA 
ENDROOT
BRANCH   2   9
HETATM    9  C   UNL     1      -9.759  15.736  65.959  1.00  0.00    -0.377 A  
HETATM   10  C   UNL     1      -8.418  15.981  66.305  1.00  0.00    -0.337 A  
HETATM   11  C   UNL     1     -10.623  16.845  65.868  1.00  0.00    -0.239 A  
HETATM   12  C   UNL     1      -8.840  18.347  66.492  1.00  0.00    -0.278 A  
HETATM   13  C   UNL     1      -7.960  17.274  66.571  1.00  0.00    -0.318 A  
HETATM   14 BR   UNL     1      -8.229  20.092  66.884  1.00  0.00    -0.356 Br 
HETATM   15  C   UNL     1     -10.169  18.141  66.135  1.00  0.00    -0.372 A  
ENDBRANCH   2   9
BRANCH   8  16
HETATM   16  C   UNL     1     -11.612  12.110  68.338  1.00  0.00    -0.327 C  
BRANCH  16  17
HETATM   17  C   UNL     1     -11.998  10.877  69.162  1.00  0.00    -0.359 C  
BRANCH  17  18
HETATM   18  C   UNL     1     -12.216  11.200  70.639  1.00  0.00    -0.492 C  
BRANCH  18  19
HETATM   19  C   UNL     1     -12.639   9.969  71.416  1.00  0.00    -0.415 C  
HETATM   20  O   UNL     1     -13.673   9.921  72.078  1.00  0.00    -0.332 OA 
BRANCH  19  21
HETATM   21  C   UNL     1     -11.736   8.786  71.405  1.00  0.00    -0.369 A  
HETATM   22  C   UNL     1     -10.382   8.989  71.707  1.00  0.00    -0.407 A  
HETATM   23  C   UNL     1      -9.493   7.915  71.695  1.00  0.00    -0.194 A  
HETATM   24  C   UNL     1      -9.961   6.642  71.393  1.00  0.00    -0.183 A  
HETATM   25  F   UNL     1      -9.106   5.611  71.382  1.00  0.00    -0.136 F  
HETATM   26  C   UNL     1     -11.305   6.421  71.105  1.00  0.00    -0.376 A  
HETATM   27  C   UNL     1     -12.197   7.495  71.110  1.00  0.00    -0.330 A  
ENDBRANCH  19  21
ENDBRANCH  18  19
ENDBRANCH  17  18
ENDBRANCH  16  17
ENDBRANCH   8  16
TORSDOF 6
ENDMDL
MODEL       29
REMARK 921   NORMALIZED FREE ENERGY PREDICTED BY IDOCK:   -6.23 KCAL/MOL
REMARK 922        TOTAL FREE ENERGY PREDICTED BY IDOCK:   -9.62 KCAL/MOL
REMARK 923 INTER-LIGAND FREE ENERGY PREDICTED BY IDOCK:   -8.53 KCAL/MOL
REMARK 924 INTRA-LIGAND FREE ENERGY PREDICTED BY IDOCK:   -1.09 KCAL/MOL
REMARK 927      BINDING AFFINITY PREDICTED BY RF-SCORE:    0.00 PKD
ROOT
HETATM    1  O   UNL     1     -12.672  10.539  69.045  1.00  0.00    -0.601 OA 
HETATM    2  C   UNL     1     -11.257  10.799  69.017  1.00  0.00    -0.262 C  
HETATM    3  H   UNL     1     -12.994  10.780  69.906  1.00  0.00     0.000 HD 
HETATM    4  C   UNL     1     -10.735  10.407  67.622  1.00  0.00    -0.335 C  
HETATM    5  C   UNL     1     -11.047  12.299  69.307  1.00  0.00    -0.220 C  
HETATM    6  C   UNL     1     -11.204  11.389  66.546  1.00  0.00    -0.209 C  
HETATM    7  C   UNL     1     -11.477  13.184  68.135  1.00  0.00    -0.314 C  
HETATM    8  N   UNL     1     -10.884  12.791  66.847  1.00  0.00    -0.250 NA 
ENDROOT
BRANCH   2   9
HETATM    9  C   UNL     1     -10.598   9.949  70.112  1.00  0.00    -0.350 A  
HETATM   10  C   UNL     1     -11.351   9.412  71.172  1.00  0.00    -0.422 A  
HETATM   11  C   UNL     1      -9.211   9.701  70.106  1.00  0.00    -0.287 A  
HETATM   12  C   UNL     1      -9.373   8.464  72.173  1.00  0.00    -0.269 A  
HETATM   13  C   UNL     1     -10.747   8.677  72.195  1.00  0.00    -0.417 A  
HETATM   14 BR   UNL     1      -8.551   7.498  73.574  1.00  0.00    -0.255 Br 
HETATM   15  C   UNL     1      -8.602   8.967  71.130  1.00  0.00    -0.263 A  
ENDBRANCH   2   9
BRANCH   8  16
HETATM   16  C   UNL     1      -9.443  13.100  66.799  1.00  0.00    -0.252 C  
BRANCH  16  17
HETATM   17  C   UNL     1      -9.121  14.592  66.665  1.00  0.00    -0.277 C  
BRANCH  17  18
HETATM   18  C   UNL     1      -8.266  15.116  67.818  1.00  0.00    -0.159 C  
BRANCH  18  19
HETATM   19  C   UNL     1      -9.076  16.001  68.746  1.00  0.00    -0.222 C  
HETATM   20  O   UNL     1      -9.601  15.584  69.775  1.00  0.00    -0.279 OA 
BRANCH  19  21
HETATM   21  C   UNL     1      -9.275  17.426  68.362  1.00  0.00    -0.277 A  
HETATM   22  C   UNL     1     -10.529  17.803  67.863  1.00  0.00    -0.401 A  
HETATM   23  C   UNL     1     -10.760  19.122  67.475  1.00  0.00    -0.555 A  
HETATM   24  C   UNL     1      -9.742  20.060  67.598  1.00  0.00    -0.403 A  
HETATM   25  F   UNL     1      -9.966  21.328  67.226  1.00  0.00    -0.560 F  
HETATM   26  C   UNL     1      -8.496  19.705  68.105  1.00  0.00    -0.357 A  
HETATM   27  C   UNL     1      -8.259  18.384  68.489  1.00  0.00    -0.338 A  
ENDBRANCH  19  21
ENDBRANCH  18  19
ENDBRANCH  17  18
ENDBRANCH  16  17
ENDBRANCH   8  16
TORSDOF 6
ENDMDL
MODEL       30
REMARK 921   NORMALIZED FREE ENERGY PREDICTED BY IDOCK:   -6.22 KCAL/MOL
REMARK 922        TOTAL FREE ENERGY PREDICTED BY IDOCK:   -9.62 KCAL/MOL
REMARK 923 INTER-LIGAND FREE ENERGY PREDICTED BY IDOCK:   -8.41 KCAL/MOL
REMARK 924 INTRA-LIGAND FREE ENERGY PREDICTED BY IDOCK:   -1.21 KCAL/MOL
REMARK 927      BINDING AFFINITY PREDICTED BY RF-SCORE:    0.00 PKD
ROOT
HETATM    1  O   UNL     1     -12.283  14.208  67.588  1.00  0.00    -0.550 OA 
HETATM    2  C   UNL     1     -11.171  13.797  68.404  1.00  0.00    -0.272 C  
HETATM    3  H   UNL     1     -12.950  14.564  68.165  1.00  0.00     0.000 HD 
HETATM    4  C   UNL     1     -10.091  13.221  67.469  1.00  0.00    -0.223 C  
HETATM    5  C   UNL     1     -10.664  15.036  69.169  1.00  0.00    -0.249 C  
HETATM    6  C   UNL     1      -9.417  14.316  66.639  1.00  0.00    -0.286 C  
HETATM    7  C   UNL     1      -9.939  16.028  68.257  1.00  0.00    -0.220 C  
HETATM    8  N   UNL     1      -8.874  15.417  67.446  1.00  0.00    -0.176 NA 
ENDROOT
BRANCH   2   9
HETATM    9  C   UNL     1     -11.675  12.733  69.389  1.00  0.00    -0.380 A  
HETATM   10  C   UNL     1     -11.538  11.361  69.114  1.00  0.00    -0.381 A  
HETATM   11  C   UNL     1     -12.313  13.098  70.591  1.00  0.00    -0.405 A  
HETATM   12  C   UNL     1     -12.679  10.779  71.156  1.00  0.00    -0.431 A  
HETATM   13  C   UNL     1     -12.036  10.390  69.987  1.00  0.00    -0.324 A  
HETATM   14 BR   UNL     1     -13.381   9.467  72.321  1.00  0.00    -0.484 Br 
HETATM   15  C   UNL     1     -12.815  12.129  71.467  1.00  0.00    -0.394 A  
ENDBRANCH   2   9
BRANCH   8  16
HETATM   16  C   UNL     1      -7.715  15.038  68.273  1.00  0.00    -0.111 C  
BRANCH  16  17
HETATM   17  C   UNL     1      -7.445  15.979  69.452  1.00  0.00    -0.201 C  
BRANCH  17  18
HETATM   18  C   UNL     1      -6.245  16.894  69.213  1.00  0.00    -0.215 C  
BRANCH  18  19
HETATM   19  C   UNL     1      -6.629  18.354  69.350  1.00  0.00    -0.209 C  
HETATM   20  O   UNL     1      -6.089  19.113  70.151  1.00  0.00    -0.249 OA 
BRANCH  19  21
HETATM   21  C   UNL     1      -7.740  18.871  68.504  1.00  0.00    -0.365 A  
HETATM   22  C   UNL     1      -7.559  18.881  67.115  1.00  0.00    -0.240 A  
HETATM   23  C   UNL     1      -8.563  19.371  66.281  1.00  0.00    -0.360 A  
HETATM   24  C   UNL     1      -9.747  19.838  66.838  1.00  0.00    -0.385 A  
HETATM   25  F   UNL     1     -10.712  20.307  66.035  1.00  0.00    -0.466 F  
HETATM   26  C   UNL     1      -9.948  19.822  68.214  1.00  0.00    -0.557 A  
HETATM   27  C   UNL     1      -8.942  19.338  69.053  1.00  0.00    -0.277 A  
ENDBRANCH  19  21
ENDBRANCH  18  19
ENDBRANCH  17  18
ENDBRANCH  16  17
ENDBRANCH   8  16
TORSDOF 6
ENDMDL
MODEL       31
REMARK 921   NORMALIZED FREE ENERGY PREDICTED BY IDOCK:   -6.21 KCAL/MOL
REMARK 922        TOTAL FREE ENERGY PREDICTED BY IDOCK:   -9.61 KCAL/MOL
REMARK 923 INTER-LIGAND FREE ENERGY PREDICTED BY IDOCK:   -8.53 KCAL/MOL
REMARK 924 INTRA-LIGAND FREE ENERGY PREDICTED BY IDOCK:   -1.08 KCAL/MOL
REMARK 927      BINDING AFFINITY PREDICTED BY RF-SCORE:    0.00 PKD
ROOT
HETATM    1  O   UNL     1     -12.831  13.999  65.692  1.00  0.00    -0.545 OA 
HETATM    2  C   UNL     1     -11.496  13.985  66.231  1.00  0.00    -0.351 C  
HETATM    3  H   UNL     1     -12.828  14.561  64.926  1.00  0.00     0.000 HD 
HETATM    4  C   UNL     1     -11.501  13.073  67.473  1.00  0.00    -0.375 C  
HETATM    5  C   UNL     1     -10.550  13.453  65.135  1.00  0.00    -0.353 C  
HETATM    6  C   UNL     1     -11.647  11.598  67.092  1.00  0.00    -0.212 C  
HETATM    7  C   UNL     1     -10.727  11.952  64.890  1.00  0.00    -0.301 C  
HETATM    8  N   UNL     1     -10.651  11.140  66.114  1.00  0.00    -0.260 NA 
ENDROOT
BRANCH   2   9
HETATM    9  C   UNL     1     -11.120  15.425  66.603  1.00  0.00    -0.236 A  
HETATM   10  C   UNL     1     -10.729  16.354  65.623  1.00  0.00    -0.280 A  
HETATM   11  C   UNL     1     -11.131  15.857  67.944  1.00  0.00    -0.317 A  
HETATM   12  C   UNL     1     -10.344  18.046  67.297  1.00  0.00    -0.378 A  
HETATM   13  C   UNL     1     -10.342  17.653  65.963  1.00  0.00    -0.305 A  
HETATM   14 BR   UNL     1      -9.789  19.792  67.761  1.00  0.00    -0.552 Br 
HETATM   15  C   UNL     1     -10.742  17.156  68.290  1.00  0.00    -0.363 A  
ENDBRANCH   2   9
BRANCH   8  16
HETATM   16  C   UNL     1      -9.275  11.086  66.642  1.00  0.00    -0.167 C  
BRANCH  16  17
HETATM   17  C   UNL     1      -9.051  10.014  67.714  1.00  0.00    -0.137 C  
BRANCH  17  18
HETATM   18  C   UNL     1      -8.702  10.609  69.077  1.00  0.00    -0.152 C  
BRANCH  18  19
HETATM   19  C   UNL     1      -8.883   9.590  70.185  1.00  0.00    -0.235 C  
HETATM   20  O   UNL     1      -7.979   8.849  70.564  1.00  0.00    -0.096 OA 
BRANCH  19  21
HETATM   21  C   UNL     1     -10.230   9.458  70.806  1.00  0.00    -0.368 A  
HETATM   22  C   UNL     1     -10.403   8.486  71.800  1.00  0.00    -0.354 A  
HETATM   23  C   UNL     1     -11.649   8.311  72.400  1.00  0.00    -0.464 A  
HETATM   24  C   UNL     1     -12.714   9.115  72.012  1.00  0.00    -0.398 A  
HETATM   25  F   UNL     1     -13.911   8.947  72.591  1.00  0.00    -0.444 F  
HETATM   26  C   UNL     1     -12.555  10.094  71.037  1.00  0.00    -0.478 A  
HETATM   27  C   UNL     1     -11.311  10.268  70.429  1.00  0.00    -0.410 A  
ENDBRANCH  19  21
ENDBRANCH  18  19
ENDBRANCH  17  18
ENDBRANCH  16  17
ENDBRANCH   8  16
TORSDOF 6
ENDMDL
MODEL       32
REMARK 921   NORMALIZED FREE ENERGY PREDICTED BY IDOCK:   -6.21 KCAL/MOL
REMARK 922        TOTAL FREE ENERGY PREDICTED BY IDOCK:   -9.60 KCAL/MOL
REMARK 923 INTER-LIGAND FREE ENERGY PREDICTED BY IDOCK:   -6.75 KCAL/MOL
REMARK 924 INTRA-LIGAND FREE ENERGY PREDICTED BY IDOCK:   -2.86 KCAL/MOL
REMARK 927      BINDING AFFINITY PREDICTED BY RF-SCORE:    0.00 PKD
ROOT
HETATM    1  O   UNL     1     -10.566  12.852  69.318  1.00  0.00    -0.438 OA 
HETATM    2  C   UNL     1     -10.547  11.574  68.656  1.00  0.00    -0.208 C  
HETATM    3  H   UNL     1      -9.804  12.895  69.885  1.00  0.00     0.000 HD 
HETATM    4  C   UNL     1     -11.781  11.503  67.737  1.00  0.00    -0.299 C  
HETATM    5  C   UNL     1      -9.232  11.475  67.857  1.00  0.00    -0.168 C  
HETATM    6  C   UNL     1     -11.639  12.428  66.526  1.00  0.00    -0.387 C  
HETATM    7  C   UNL     1      -9.228  12.383  66.625  1.00  0.00    -0.218 C  
HETATM    8  N   UNL     1     -10.405  12.209  65.759  1.00  0.00    -0.250 NA 
ENDROOT
BRANCH   2   9
HETATM    9  C   UNL     1     -10.598  10.483  69.734  1.00  0.00    -0.274 A  
HETATM   10  C   UNL     1     -11.812  10.108  70.337  1.00  0.00    -0.373 A  
HETATM   11  C   UNL     1      -9.425   9.837  70.173  1.00  0.00    -0.277 A  
HETATM   12  C   UNL     1     -10.680   8.541  71.777  1.00  0.00    -0.303 A  
HETATM   13  C   UNL     1     -11.856   9.147  71.351  1.00  0.00    -0.415 A  
HETATM   14 BR   UNL     1     -10.733   7.265  73.170  1.00  0.00    -0.420 Br 
HETATM   15  C   UNL     1      -9.464   8.876  71.189  1.00  0.00    -0.335 A  
ENDBRANCH   2   9
BRANCH   8  16
HETATM   16  C   UNL     1     -10.364  10.920  65.045  1.00  0.00    -0.288 C  
BRANCH  16  17
HETATM   17  C   UNL     1      -8.978  10.532  64.521  1.00  0.00    -0.231 C  
BRANCH  17  18
HETATM   18  C   UNL     1      -8.701   9.033  64.642  1.00  0.00    -0.169 C  
BRANCH  18  19
HETATM   19  C   UNL     1      -8.075   8.695  65.981  1.00  0.00    -0.109 C  
HETATM   20  O   UNL     1      -6.934   9.033  66.287  1.00  0.00    -0.077 OA 
BRANCH  19  21
HETATM   21  C   UNL     1      -8.867   7.880  66.942  1.00  0.00    -0.146 A  
HETATM   22  C   UNL     1     -10.264   7.934  66.855  1.00  0.00    -0.380 A  
HETATM   23  C   UNL     1     -11.051   7.202  67.743  1.00  0.00    -0.095 A  
HETATM   24  C   UNL     1     -10.438   6.411  68.707  1.00  0.00    -0.221 A  
HETATM   25  F   UNL     1     -11.195   5.706  69.560  1.00  0.00    -0.425 F  
HETATM   26  C   UNL     1      -9.051   6.335  68.798  1.00  0.00    -0.127 A  
HETATM   27  C   UNL     1      -8.261   7.072  67.915  1.00  0.00    -0.115 A  
ENDBRANCH  19  21
ENDBRANCH  18  19
ENDBRANCH  17  18
ENDBRANCH  16  17
ENDBRANCH   8  16
TORSDOF 6
ENDMDL
MODEL       33
REMARK 921   NORMALIZED FREE ENERGY PREDICTED BY IDOCK:   -6.20 KCAL/MOL
REMARK 922        TOTAL FREE ENERGY PREDICTED BY IDOCK:   -9.58 KCAL/MOL
REMARK 923 INTER-LIGAND FREE ENERGY PREDICTED BY IDOCK:   -7.52 KCAL/MOL
REMARK 924 INTRA-LIGAND FREE ENERGY PREDICTED BY IDOCK:   -2.06 KCAL/MOL
REMARK 927      BINDING AFFINITY PREDICTED BY RF-SCORE:    0.00 PKD
ROOT
HETATM    1  O   UNL     1      -9.134   8.026  65.389  1.00  0.00    -0.391 OA 
HETATM    2  C   UNL     1      -9.396   8.544  66.706  1.00  0.00    -0.182 C  
HETATM    3  H   UNL     1      -8.308   8.392  65.093  1.00  0.00     0.000 HD 
HETATM    4  C   UNL     1     -10.735   7.952  67.186  1.00  0.00    -0.306 C  
HETATM    5  C   UNL     1      -8.226   8.127  67.620  1.00  0.00    -0.127 C  
HETATM    6  C   UNL     1     -10.611   6.462  67.509  1.00  0.00    -0.283 C  
HETATM    7  C   UNL     1      -8.243   6.631  67.942  1.00  0.00    -0.120 C  
HETATM    8  N   UNL     1      -9.535   6.152  68.460  1.00  0.00    -0.119 NA 
ENDROOT
BRANCH   2   9
HETATM    9  C   UNL     1      -9.472  10.074  66.606  1.00  0.00    -0.215 A  
HETATM   10  C   UNL     1      -8.560  10.896  67.291  1.00  0.00    -0.128 A  
HETATM   11  C   UNL     1     -10.476  10.705  65.845  1.00  0.00    -0.243 A  
HETATM   12  C   UNL     1      -9.666  12.885  66.496  1.00  0.00    -0.257 A  
HETATM   13  C   UNL     1      -8.654  12.290  67.239  1.00  0.00    -0.183 A  
HETATM   14 BR   UNL     1      -9.815  14.768  66.452  1.00  0.00    -0.316 Br 
HETATM   15  C   UNL     1     -10.575  12.100  65.792  1.00  0.00    -0.295 A  
ENDBRANCH   2   9
BRANCH   8  16
HETATM   16  C   UNL     1      -9.784   6.644  69.828  1.00  0.00    -0.159 C  
BRANCH  16  17
HETATM   17  C   UNL     1     -10.997   6.010  70.516  1.00  0.00    -0.388 C  
BRANCH  17  18
HETATM   18  C   UNL     1     -12.122   7.013  70.768  1.00  0.00    -0.374 C  
BRANCH  18  19
HETATM   19  C   UNL     1     -11.666   8.135  71.679  1.00  0.00    -0.287 C  
HETATM   20  O   UNL     1     -11.140   7.935  72.772  1.00  0.00    -0.357 OA 
BRANCH  19  21
HETATM   21  C   UNL     1     -11.910   9.538  71.245  1.00  0.00    -0.450 A  
HETATM   22  C   UNL     1     -11.201  10.015  70.134  1.00  0.00    -0.367 A  
HETATM   23  C   UNL     1     -11.382  11.327  69.697  1.00  0.00    -0.359 A  
HETATM   24  C   UNL     1     -12.278  12.152  70.365  1.00  0.00    -0.294 A  
HETATM   25  F   UNL     1     -12.452  13.413  69.944  1.00  0.00    -0.333 F  
HETATM   26  C   UNL     1     -13.000  11.690  71.461  1.00  0.00    -0.463 A  
HETATM   27  C   UNL     1     -12.817  10.379  71.905  1.00  0.00    -0.519 A  
ENDBRANCH  19  21
ENDBRANCH  18  19
ENDBRANCH  17  18
ENDBRANCH  16  17
ENDBRANCH   8  16
TORSDOF 6
ENDMDL
MODEL       34
REMARK 921   NORMALIZED FREE ENERGY PREDICTED BY IDOCK:   -6.19 KCAL/MOL
REMARK 922        TOTAL FREE ENERGY PREDICTED BY IDOCK:   -9.57 KCAL/MOL
REMARK 923 INTER-LIGAND FREE ENERGY PREDICTED BY IDOCK:   -8.12 KCAL/MOL
REMARK 924 INTRA-LIGAND FREE ENERGY PREDICTED BY IDOCK:   -1.45 KCAL/MOL
REMARK 927      BINDING AFFINITY PREDICTED BY RF-SCORE:    0.00 PKD
ROOT
HETATM    1  O   UNL     1     -10.442   8.878  66.861  1.00  0.00    -0.271 OA 
HETATM    2  C   UNL     1     -10.191   9.894  67.848  1.00  0.00    -0.193 C  
HETATM    3  H   UNL     1     -11.295   8.501  67.044  1.00  0.00     0.000 HD 
HETATM    4  C   UNL     1      -8.808  10.505  67.552  1.00  0.00    -0.131 C  
HETATM    5  C   UNL     1     -11.315  10.944  67.742  1.00  0.00    -0.366 C  
HETATM    6  C   UNL     1      -8.829  11.366  66.287  1.00  0.00    -0.195 C  
HETATM    7  C   UNL     1     -11.194  11.801  66.480  1.00  0.00    -0.321 C  
HETATM    8  N   UNL     1      -9.866  12.407  66.300  1.00  0.00    -0.243 NA 
ENDROOT
BRANCH   2   9
HETATM    9  C   UNL     1     -10.215   9.227  69.231  1.00  0.00    -0.211 A  
HETATM   10  C   UNL     1      -9.646   7.958  69.439  1.00  0.00    -0.160 A  
HETATM   11  C   UNL     1     -10.833   9.855  70.331  1.00  0.00    -0.380 A  
HETATM   12  C   UNL     1     -10.340   7.963  71.748  1.00  0.00    -0.209 A  
HETATM   13  C   UNL     1      -9.707   7.328  70.685  1.00  0.00    -0.175 A  
HETATM   14 BR   UNL     1     -10.451   7.098  73.425  1.00  0.00    -0.423 Br 
HETATM   15  C   UNL     1     -10.897   9.227  71.580  1.00  0.00    -0.442 A  
ENDBRANCH   2   9
BRANCH   8  16
HETATM   16  C   UNL     1      -9.624  13.480  67.282  1.00  0.00    -0.235 C  
BRANCH  16  17
HETATM   17  C   UNL     1     -10.214  14.839  66.889  1.00  0.00    -0.257 C  
BRANCH  17  18
HETATM   18  C   UNL     1     -11.608  15.067  67.473  1.00  0.00    -0.315 C  
BRANCH  18  19
HETATM   19  C   UNL     1     -11.532  15.665  68.864  1.00  0.00    -0.361 C  
HETATM   20  O   UNL     1     -10.870  16.667  69.124  1.00  0.00    -0.320 OA 
BRANCH  19  21
HETATM   21  C   UNL     1     -12.259  14.977  69.966  1.00  0.00    -0.373 A  
HETATM   22  C   UNL     1     -12.165  13.581  70.044  1.00  0.00    -0.381 A  
HETATM   23  C   UNL     1     -12.840  12.888  71.049  1.00  0.00    -0.268 A  
HETATM   24  C   UNL     1     -13.597  13.594  71.976  1.00  0.00    -0.495 A  
HETATM   25  F   UNL     1     -14.244  12.928  72.942  1.00  0.00    -0.378 F  
HETATM   26  C   UNL     1     -13.688  14.982  71.921  1.00  0.00    -0.548 A  
HETATM   27  C   UNL     1     -13.019  15.678  70.913  1.00  0.00    -0.471 A  
ENDBRANCH  19  21
ENDBRANCH  18  19
ENDBRANCH  17  18
ENDBRANCH  16  17
ENDBRANCH   8  16
TORSDOF 6
ENDMDL
MODEL       35
REMARK 921   NORMALIZED FREE ENERGY PREDICTED BY IDOCK:   -6.18 KCAL/MOL
REMARK 922        TOTAL FREE ENERGY PREDICTED BY IDOCK:   -9.56 KCAL/MOL
REMARK 923 INTER-LIGAND FREE ENERGY PREDICTED BY IDOCK:   -8.72 KCAL/MOL
REMARK 924 INTRA-LIGAND FREE ENERGY PREDICTED BY IDOCK:   -0.84 KCAL/MOL
REMARK 927      BINDING AFFINITY PREDICTED BY RF-SCORE:    0.00 PKD
ROOT
HETATM    1  O   UNL     1      -9.965  10.702  70.122  1.00  0.00    -0.364 OA 
HETATM    2  C   UNL     1     -10.102  10.393  68.724  1.00  0.00    -0.187 C  
HETATM    3  H   UNL     1      -9.098  10.424  70.397  1.00  0.00     0.000 HD 
HETATM    4  C   UNL     1     -11.507  10.844  68.279  1.00  0.00    -0.376 C  
HETATM    5  C   UNL     1      -8.992  11.146  67.962  1.00  0.00    -0.149 C  
HETATM    6  C   UNL     1     -11.621  12.369  68.224  1.00  0.00    -0.333 C  
HETATM    7  C   UNL     1      -9.246  12.654  67.901  1.00  0.00    -0.201 C  
HETATM    8  N   UNL     1     -10.584  13.008  67.402  1.00  0.00    -0.233 NA 
ENDROOT
BRANCH   2   9
HETATM    9  C   UNL     1      -9.929   8.878  68.554  1.00  0.00    -0.195 A  
HETATM   10  C   UNL     1     -10.410   8.211  67.413  1.00  0.00    -0.351 A  
HETATM   11  C   UNL     1      -9.304   8.100  69.549  1.00  0.00    -0.155 A  
HETATM   12  C   UNL     1      -9.690   6.081  68.283  1.00  0.00    -0.124 A  
HETATM   13  C   UNL     1     -10.295   6.825  67.276  1.00  0.00    -0.311 A  
HETATM   14 BR   UNL     1      -9.563   4.203  68.113  1.00  0.00    -0.161 Br 
HETATM   15  C   UNL     1      -9.187   6.712  69.417  1.00  0.00    -0.142 A  
ENDBRANCH   2   9
BRANCH   8  16
HETATM   16  C   UNL     1     -10.712  12.736  65.959  1.00  0.00    -0.272 C  
BRANCH  16  17
HETATM   17  C   UNL     1     -11.001  13.975  65.105  1.00  0.00    -0.357 C  
BRANCH  17  18
HETATM   18  C   UNL     1     -10.013  15.112  65.365  1.00  0.00    -0.365 C  
BRANCH  18  19
HETATM   19  C   UNL     1     -10.668  16.466  65.170  1.00  0.00    -0.291 C  
HETATM   20  O   UNL     1     -11.291  16.765  64.154  1.00  0.00    -1.194 OA 
BRANCH  19  21
HETATM   21  C   UNL     1     -10.508  17.486  66.243  1.00  0.00    -0.283 A  
HETATM   22  C   UNL     1     -10.389  17.036  67.565  1.00  0.00    -0.329 A  
HETATM   23  C   UNL     1     -10.254  17.952  68.607  1.00  0.00    -0.387 A  
HETATM   24  C   UNL     1     -10.226  19.312  68.322  1.00  0.00    -0.418 A  
HETATM   25  F   UNL     1     -10.095  20.192  69.325  1.00  0.00    -0.442 F  
HETATM   26  C   UNL     1     -10.329  19.774  67.014  1.00  0.00    -0.593 A  
HETATM   27  C   UNL     1     -10.472  18.860  65.969  1.00  0.00    -0.507 A  
ENDBRANCH  19  21
ENDBRANCH  18  19
ENDBRANCH  17  18
ENDBRANCH  16  17
ENDBRANCH   8  16
TORSDOF 6
ENDMDL
MODEL       36
REMARK 921   NORMALIZED FREE ENERGY PREDICTED BY IDOCK:   -6.18 KCAL/MOL
REMARK 922        TOTAL FREE ENERGY PREDICTED BY IDOCK:   -9.56 KCAL/MOL
REMARK 923 INTER-LIGAND FREE ENERGY PREDICTED BY IDOCK:   -8.10 KCAL/MOL
REMARK 924 INTRA-LIGAND FREE ENERGY PREDICTED BY IDOCK:   -1.46 KCAL/MOL
REMARK 927      BINDING AFFINITY PREDICTED BY RF-SCORE:    0.00 PKD
ROOT
HETATM    1  O   UNL     1      -9.764  13.915  69.204  1.00  0.00    -0.416 OA 
HETATM    2  C   UNL     1     -10.710  13.061  68.536  1.00  0.00    -0.255 C  
HETATM    3  H   UNL     1      -8.962  13.419  69.328  1.00  0.00     0.000 HD 
HETATM    4  C   UNL     1     -12.009  13.864  68.336  1.00  0.00    -0.391 C  
HETATM    5  C   UNL     1     -10.090  12.630  67.191  1.00  0.00    -0.224 C  
HETATM    6  C   UNL     1     -11.843  14.953  67.273  1.00  0.00    -0.219 C  
HETATM    7  C   UNL     1     -10.044  13.776  66.177  1.00  0.00    -0.307 C  
HETATM    8  N   UNL     1     -11.337  14.451  65.989  1.00  0.00    -0.330 NA 
ENDROOT
BRANCH   2   9
HETATM    9  C   UNL     1     -10.950  11.834  69.426  1.00  0.00    -0.185 A  
HETATM   10  C   UNL     1     -12.098  11.731  70.233  1.00  0.00    -0.426 A  
HETATM   11  C   UNL     1     -10.015  10.781  69.485  1.00  0.00    -0.087 A  
HETATM   12  C   UNL     1     -11.350   9.623  71.130  1.00  0.00    -0.386 A  
HETATM   13  C   UNL     1     -12.299  10.637  71.079  1.00  0.00    -0.507 A  
HETATM   14 BR   UNL     1     -11.604   8.159  72.298  1.00  0.00    -0.462 Br 
HETATM   15  C   UNL     1     -10.211   9.685  70.332  1.00  0.00    -0.348 A  
ENDBRANCH   2   9
BRANCH   8  16
HETATM   16  C   UNL     1     -12.293  13.594  65.263  1.00  0.00    -0.465 C  
BRANCH  16  17
HETATM   17  C   UNL     1     -11.837  13.189  63.857  1.00  0.00    -0.533 C  
BRANCH  17  18
HETATM   18  C   UNL     1     -11.704  11.675  63.694  1.00  0.00    -0.406 C  
BRANCH  18  19
HETATM   19  C   UNL     1     -10.254  11.264  63.532  1.00  0.00    -0.403 C  
HETATM   20  O   UNL     1      -9.506  11.772  62.700  1.00  0.00    -0.283 OA 
BRANCH  19  21
HETATM   21  C   UNL     1      -9.734  10.164  64.390  1.00  0.00    -0.345 A  
HETATM   22  C   UNL     1     -10.360   9.942  65.624  1.00  0.00    -0.115 A  
HETATM   23  C   UNL     1      -9.900   8.935  66.472  1.00  0.00    -0.344 A  
HETATM   24  C   UNL     1      -8.825   8.148  66.079  1.00  0.00    -0.172 A  
HETATM   25  F   UNL     1      -8.384   7.179  66.894  1.00  0.00    -0.111 F  
HETATM   26  C   UNL     1      -8.201   8.346  64.851  1.00  0.00    -0.155 A  
HETATM   27  C   UNL     1      -8.655   9.358  64.002  1.00  0.00    -0.222 A  
ENDBRANCH  19  21
ENDBRANCH  18  19
ENDBRANCH  17  18
ENDBRANCH  16  17
ENDBRANCH   8  16
TORSDOF 6
ENDMDL
MODEL       37
REMARK 921   NORMALIZED FREE ENERGY PREDICTED BY IDOCK:   -6.15 KCAL/MOL
REMARK 922        TOTAL FREE ENERGY PREDICTED BY IDOCK:   -9.52 KCAL/MOL
REMARK 923 INTER-LIGAND FREE ENERGY PREDICTED BY IDOCK:   -8.66 KCAL/MOL
REMARK 924 INTRA-LIGAND FREE ENERGY PREDICTED BY IDOCK:   -0.86 KCAL/MOL
REMARK 927      BINDING AFFINITY PREDICTED BY RF-SCORE:    0.00 PKD
ROOT
HETATM    1  O   UNL     1      -9.974   6.126  71.635  1.00  0.00    -0.176 OA 
HETATM    2  C   UNL     1     -10.678   6.840  70.603  1.00  0.00    -0.235 C  
HETATM    3  H   UNL     1      -9.059   6.079  71.382  1.00  0.00     0.000 HD 
HETATM    4  C   UNL     1     -12.161   6.916  71.013  1.00  0.00    -0.427 C  
HETATM    5  C   UNL     1     -10.046   8.241  70.481  1.00  0.00    -0.210 C  
HETATM    6  C   UNL     1     -12.375   7.874  72.188  1.00  0.00    -0.291 C  
HETATM    7  C   UNL     1     -10.388   9.141  71.671  1.00  0.00    -0.318 C  
HETATM    8  N   UNL     1     -11.828   9.218  71.960  1.00  0.00    -0.346 NA 
ENDROOT
BRANCH   2   9
HETATM    9  C   UNL     1     -10.508   6.064  69.290  1.00  0.00    -0.328 A  
HETATM   10  C   UNL     1      -9.746   4.883  69.234  1.00  0.00    -0.258 A  
HETATM   11  C   UNL     1     -11.087   6.525  68.091  1.00  0.00    -0.332 A  
HETATM   12  C   UNL     1     -10.119   4.687  66.860  1.00  0.00    -0.191 A  
HETATM   13  C   UNL     1      -9.551   4.199  68.031  1.00  0.00    -0.200 A  
HETATM   14 BR   UNL     1      -9.827   3.781  65.227  1.00  0.00    -0.106 Br 
HETATM   15  C   UNL     1     -10.892   5.843  66.884  1.00  0.00    -0.376 A  
ENDBRANCH   2   9
BRANCH   8  16
HETATM   16  C   UNL     1     -12.545   9.989  70.927  1.00  0.00    -0.332 C  
BRANCH  16  17
HETATM   17  C   UNL     1     -11.789  11.222  70.422  1.00  0.00    -0.443 C  
BRANCH  17  18
HETATM   18  C   UNL     1     -11.613  11.224  68.903  1.00  0.00    -0.386 C  
BRANCH  18  19
HETATM   19  C   UNL     1     -11.511  12.636  68.362  1.00  0.00    -0.310 C  
HETATM   20  O   UNL     1     -11.307  13.613  69.081  1.00  0.00    -0.261 OA 
BRANCH  19  21
HETATM   21  C   UNL     1     -11.712  12.847  66.903  1.00  0.00    -0.445 A  
HETATM   22  C   UNL     1     -11.210  11.878  66.023  1.00  0.00    -0.377 A  
HETATM   23  C   UNL     1     -11.359  12.037  64.646  1.00  0.00    -0.377 A  
HETATM   24  C   UNL     1     -12.018  13.157  64.154  1.00  0.00    -0.436 A  
HETATM   25  F   UNL     1     -12.162  13.309  62.830  1.00  0.00    -0.592 F  
HETATM   26  C   UNL     1     -12.535  14.121  65.014  1.00  0.00    -0.434 A  
HETATM   27  C   UNL     1     -12.382  13.969  66.394  1.00  0.00    -0.468 A  
ENDBRANCH  19  21
ENDBRANCH  18  19
ENDBRANCH  17  18
ENDBRANCH  16  17
ENDBRANCH   8  16
TORSDOF 6
ENDMDL
MODEL       38
REMARK 921   NORMALIZED FREE ENERGY PREDICTED BY IDOCK:   -6.09 KCAL/MOL
REMARK 922        TOTAL FREE ENERGY PREDICTED BY IDOCK:   -9.44 KCAL/MOL
REMARK 923 INTER-LIGAND FREE ENERGY PREDICTED BY IDOCK:   -8.11 KCAL/MOL
REMARK 924 INTRA-LIGAND FREE ENERGY PREDICTED BY IDOCK:   -1.33 KCAL/MOL
REMARK 927      BINDING AFFINITY PREDICTED BY RF-SCORE:    0.00 PKD
ROOT
HETATM    1  O   UNL     1     -12.595  14.275  64.697  1.00  0.00    -0.627 OA 
HETATM    2  C   UNL     1     -11.413  13.993  65.466  1.00  0.00    -0.318 C  
HETATM    3  H   UNL     1     -12.387  14.980  64.094  1.00  0.00     0.000 HD 
HETATM    4  C   UNL     1     -11.750  12.851  66.444  1.00  0.00    -0.454 C  
HETATM    5  C   UNL     1     -10.294  13.591  64.483  1.00  0.00    -0.381 C  
HETATM    6  C   UNL     1     -11.918  11.515  65.719  1.00  0.00     0.691 C  
HETATM    7  C   UNL     1     -10.522  12.205  63.875  1.00  0.00    -0.409 C  
HETATM    8  N   UNL     1     -10.770  11.155  64.875  1.00  0.00    -0.283 NA 
ENDROOT
BRANCH   2   9
HETATM    9  C   UNL     1     -11.022  15.270  66.222  1.00  0.00    -0.300 A  
HETATM   10  C   UNL     1     -11.319  15.430  67.587  1.00  0.00    -0.292 A  
HETATM   11  C   UNL     1     -10.377  16.336  65.565  1.00  0.00    -0.363 A  
HETATM   12  C   UNL     1     -10.386  17.653  67.589  1.00  0.00    -0.368 A  
HETATM   13  C   UNL     1     -11.006  16.610  68.267  1.00  0.00    -0.341 A  
HETATM   14 BR   UNL     1      -9.992  19.262  68.499  1.00  0.00    -0.533 Br 
HETATM   15  C   UNL     1     -10.063  17.521  66.242  1.00  0.00    -0.341 A  
ENDBRANCH   2   9
BRANCH   8  16
HETATM   16  C   UNL     1      -9.548  10.830  65.632  1.00  0.00    -0.216 C  
BRANCH  16  17
HETATM   17  C   UNL     1      -9.747   9.787  66.736  1.00  0.00    -0.248 C  
BRANCH  17  18
HETATM   18  C   UNL     1      -9.662  10.389  68.138  1.00  0.00    -0.165 C  
BRANCH  18  19
HETATM   19  C   UNL     1     -10.522   9.619  69.121  1.00  0.00    -0.214 C  
HETATM   20  O   UNL     1     -10.504   8.393  69.205  1.00  0.00    -0.220 OA 
BRANCH  19  21
HETATM   21  C   UNL     1     -11.458  10.386  69.988  1.00  0.00    -0.382 A  
HETATM   22  C   UNL     1     -11.459  11.783  69.880  1.00  0.00    -0.285 A  
HETATM   23  C   UNL     1     -12.306  12.547  70.682  1.00  0.00    -0.369 A  
HETATM   24  C   UNL     1     -13.156  11.912  71.580  1.00  0.00    -0.275 A  
HETATM   25  F   UNL     1     -13.970  12.647  72.349  1.00  0.00    -0.545 F  
HETATM   26  C   UNL     1     -13.177  10.525  71.689  1.00  0.00    -0.493 A  
HETATM   27  C   UNL     1     -12.326   9.757  70.892  1.00  0.00    -0.379 A  
ENDBRANCH  19  21
ENDBRANCH  18  19
ENDBRANCH  17  18
ENDBRANCH  16  17
ENDBRANCH   8  16
TORSDOF 6
ENDMDL
MODEL       39
REMARK 921   NORMALIZED FREE ENERGY PREDICTED BY IDOCK:   -6.09 KCAL/MOL
REMARK 922        TOTAL FREE ENERGY PREDICTED BY IDOCK:   -9.44 KCAL/MOL
REMARK 923 INTER-LIGAND FREE ENERGY PREDICTED BY IDOCK:   -8.20 KCAL/MOL
REMARK 924 INTRA-LIGAND FREE ENERGY PREDICTED BY IDOCK:   -1.24 KCAL/MOL
REMARK 927      BINDING AFFINITY PREDICTED BY RF-SCORE:    0.00 PKD
ROOT
HETATM    1  O   UNL     1     -11.298  16.008  63.950  1.00  0.00    -1.143 OA 
HETATM    2  C   UNL     1     -10.955  15.299  65.154  1.00  0.00    -0.416 C  
HETATM    3  H   UNL     1     -10.489  16.228  63.502  1.00  0.00     0.000 HD 
HETATM    4  C   UNL     1     -12.266  14.942  65.879  1.00  0.00     0.082 C  
HETATM    5  C   UNL     1     -10.164  14.038  64.749  1.00  0.00    -0.332 C  
HETATM    6  C   UNL     1     -13.042  13.849  65.142  1.00  0.00    -0.088 C  
HETATM    7  C   UNL     1     -11.051  12.979  64.091  1.00  0.00    -0.401 C  
HETATM    8  N   UNL     1     -12.249  12.641  64.875  1.00  0.00    -0.449 NA 
ENDROOT
BRANCH   2   9
HETATM    9  C   UNL     1     -10.080  16.221  66.014  1.00  0.00    -0.377 A  
HETATM   10  C   UNL     1      -8.677  16.117  66.001  1.00  0.00    -0.282 A  
HETATM   11  C   UNL     1     -10.655  17.185  66.864  1.00  0.00    -0.209 A  
HETATM   12  C   UNL     1      -8.476  17.854  67.660  1.00  0.00    -0.234 A  
HETATM   13  C   UNL     1      -7.880  16.924  66.817  1.00  0.00    -0.279 A  
HETATM   14 BR   UNL     1      -7.401  18.923  68.788  1.00  0.00    -0.352 Br 
HETATM   15  C   UNL     1      -9.861  17.994  67.684  1.00  0.00    -0.305 A  
ENDBRANCH   2   9
BRANCH   8  16
HETATM   16  C   UNL     1     -11.903  11.873  66.086  1.00  0.00    -0.028 C  
BRANCH  16  17
HETATM   17  C   UNL     1     -10.648  11.005  65.945  1.00  0.00    -0.270 C  
BRANCH  17  18
HETATM   18  C   UNL     1      -9.878  10.867  67.258  1.00  0.00    -0.202 C  
BRANCH  18  19
HETATM   19  C   UNL     1      -9.951  12.141  68.076  1.00  0.00    -0.203 C  
HETATM   20  O   UNL     1      -9.180  13.084  67.911  1.00  0.00    -0.192 OA 
BRANCH  19  21
HETATM   21  C   UNL     1     -10.974  12.228  69.154  1.00  0.00    -0.217 A  
HETATM   22  C   UNL     1     -11.490  13.492  69.471  1.00  0.00    -0.318 A  
HETATM   23  C   UNL     1     -12.438  13.628  70.483  1.00  0.00    -0.394 A  
HETATM   24  C   UNL     1     -12.875  12.500  71.168  1.00  0.00    -0.211 A  
HETATM   25  F   UNL     1     -13.787  12.632  72.141  1.00  0.00    -0.510 F  
HETATM   26  C   UNL     1     -12.383  11.236  70.857  1.00  0.00    -0.490 A  
HETATM   27  C   UNL     1     -11.428  11.097  69.847  1.00  0.00    -0.386 A  
ENDBRANCH  19  21
ENDBRANCH  18  19
ENDBRANCH  17  18
ENDBRANCH  16  17
ENDBRANCH   8  16
TORSDOF 6
ENDMDL
MODEL       40
REMARK 921   NORMALIZED FREE ENERGY PREDICTED BY IDOCK:   -6.08 KCAL/MOL
REMARK 922        TOTAL FREE ENERGY PREDICTED BY IDOCK:   -9.43 KCAL/MOL
REMARK 923 INTER-LIGAND FREE ENERGY PREDICTED BY IDOCK:   -8.68 KCAL/MOL
REMARK 924 INTRA-LIGAND FREE ENERGY PREDICTED BY IDOCK:   -0.75 KCAL/MOL
REMARK 927      BINDING AFFINITY PREDICTED BY RF-SCORE:    0.00 PKD
ROOT
HETATM    1  O   UNL     1     -10.338   5.812  71.610  1.00  0.00    -0.200 OA 
HETATM    2  C   UNL     1     -10.857   6.636  70.550  1.00  0.00    -0.261 C  
HETATM    3  H   UNL     1      -9.404   5.712  71.468  1.00  0.00     0.000 HD 
HETATM    4  C   UNL     1     -12.372   6.799  70.780  1.00  0.00    -0.289 C  
HETATM    5  C   UNL     1     -10.122   7.991  70.603  1.00  0.00    -0.203 C  
HETATM    6  C   UNL     1     -12.669   7.698  71.982  1.00  0.00    -0.232 C  
HETATM    7  C   UNL     1     -10.552   8.842  71.801  1.00  0.00    -0.347 C  
HETATM    8  N   UNL     1     -12.009   9.009  71.915  1.00  0.00    -0.360 NA 
ENDROOT
BRANCH   2   9
HETATM    9  C   UNL     1     -10.573   5.930  69.218  1.00  0.00    -0.379 A  
HETATM   10  C   UNL     1      -9.809   4.749  69.166  1.00  0.00    -0.254 A  
HETATM   11  C   UNL     1     -11.047   6.454  67.999  1.00  0.00    -0.365 A  
HETATM   12  C   UNL     1      -9.975   4.679  66.762  1.00  0.00    -0.225 A  
HETATM   13  C   UNL     1      -9.510   4.128  67.951  1.00  0.00    -0.219 A  
HETATM   14 BR   UNL     1      -9.543   3.858  65.116  1.00  0.00    -0.189 Br 
HETATM   15  C   UNL     1     -10.748   5.836  66.780  1.00  0.00    -0.369 A  
ENDBRANCH   2   9
BRANCH   8  16
HETATM   16  C   UNL     1     -12.536   9.891  70.858  1.00  0.00    -0.302 C  
BRANCH  16  17
HETATM   17  C   UNL     1     -11.669  11.122  70.572  1.00  0.00    -0.392 C  
BRANCH  17  18
HETATM   18  C   UNL     1     -12.129  11.892  69.334  1.00  0.00    -0.277 C  
BRANCH  18  19
HETATM   19  C   UNL     1     -11.696  13.343  69.396  1.00  0.00    -0.325 C  
HETATM   20  O   UNL     1     -10.917  13.841  68.586  1.00  0.00    -0.249 OA 
BRANCH  19  21
HETATM   21  C   UNL     1     -12.205  14.183  70.515  1.00  0.00    -0.431 A  
HETATM   22  C   UNL     1     -13.516  13.963  70.958  1.00  0.00    -0.132 A  
HETATM   23  C   UNL     1     -14.045  14.734  71.992  1.00  0.00    -0.604 A  
HETATM   24  C   UNL     1     -13.258  15.713  72.586  1.00  0.00    -0.502 A  
HETATM   25  F   UNL     1     -13.767  16.453  73.581  1.00  0.00    -0.571 F  
HETATM   26  C   UNL     1     -11.950  15.935  72.168  1.00  0.00    -0.612 A  
HETATM   27  C   UNL     1     -11.419  15.169  71.128  1.00  0.00    -0.387 A  
ENDBRANCH  19  21
ENDBRANCH  18  19
ENDBRANCH  17  18
ENDBRANCH  16  17
ENDBRANCH   8  16
TORSDOF 6
ENDMDL
MODEL       41
REMARK 921   NORMALIZED FREE ENERGY PREDICTED BY IDOCK:   -6.06 KCAL/MOL
REMARK 922        TOTAL FREE ENERGY PREDICTED BY IDOCK:   -9.40 KCAL/MOL
REMARK 923 INTER-LIGAND FREE ENERGY PREDICTED BY IDOCK:   -7.21 KCAL/MOL
REMARK 924 INTRA-LIGAND FREE ENERGY PREDICTED BY IDOCK:   -2.19 KCAL/MOL
REMARK 927      BINDING AFFINITY PREDICTED BY RF-SCORE:    0.00 PKD
ROOT
HETATM    1  O   UNL     1     -12.863   8.348  72.898  1.00  0.00    -0.659 OA 
HETATM    2  C   UNL     1     -11.769   8.396  71.965  1.00  0.00    -0.352 C  
HETATM    3  H   UNL     1     -13.671   8.412  72.401  1.00  0.00     0.000 HD 
HETATM    4  C   UNL     1     -10.460   8.293  72.770  1.00  0.00    -0.329 C  
HETATM    5  C   UNL     1     -11.932   7.215  70.986  1.00  0.00    -0.387 C  
HETATM    6  C   UNL     1     -10.256   6.889  73.344  1.00  0.00    -0.284 C  
HETATM    7  C   UNL     1     -11.629   5.867  71.643  1.00  0.00    -0.119 C  
HETATM    8  N   UNL     1     -10.331   5.824  72.334  1.00  0.00    -0.194 NA 
ENDROOT
BRANCH   2   9
HETATM    9  C   UNL     1     -11.849   9.728  71.208  1.00  0.00    -0.481 A  
HETATM   10  C   UNL     1     -11.029   9.986  70.095  1.00  0.00    -0.368 A  
HETATM   11  C   UNL     1     -12.729  10.748  71.620  1.00  0.00    -0.520 A  
HETATM   12  C   UNL     1     -11.932  12.210  69.872  1.00  0.00    -0.309 A  
HETATM   13  C   UNL     1     -11.067  11.215  69.431  1.00  0.00    -0.314 A  
HETATM   14 BR   UNL     1     -11.960  13.884  68.996  1.00  0.00    -0.385 Br 
HETATM   15  C   UNL     1     -12.769  11.981  70.960  1.00  0.00    -0.337 A  
ENDBRANCH   2   9
BRANCH   8  16
HETATM   16  C   UNL     1      -9.209   5.825  71.378  1.00  0.00    -0.143 C  
BRANCH  16  17
HETATM   17  C   UNL     1      -9.333   4.788  70.257  1.00  0.00    -0.217 C  
BRANCH  17  18
HETATM   18  C   UNL     1      -8.829   5.311  68.912  1.00  0.00    -0.102 C  
BRANCH  18  19
HETATM   19  C   UNL     1      -9.890   6.135  68.209  1.00  0.00    -0.125 C  
HETATM   20  O   UNL     1     -11.025   5.716  67.991  1.00  0.00    -0.172 OA 
BRANCH  19  21
HETATM   21  C   UNL     1      -9.520   7.494  67.727  1.00  0.00    -0.157 A  
HETATM   22  C   UNL     1     -10.398   8.141  66.847  1.00  0.00    -0.401 A  
HETATM   23  C   UNL     1     -10.089   9.408  66.354  1.00  0.00    -0.332 A  
HETATM   24  C   UNL     1      -8.909  10.027  66.750  1.00  0.00    -0.132 A  
HETATM   25  F   UNL     1      -8.613  11.245  66.276  1.00  0.00    -0.163 F  
HETATM   26  C   UNL     1      -8.033   9.404  67.633  1.00  0.00    -0.099 A  
HETATM   27  C   UNL     1      -8.337   8.132  68.124  1.00  0.00    -0.129 A  
ENDBRANCH  19  21
ENDBRANCH  18  19
ENDBRANCH  17  18
ENDBRANCH  16  17
ENDBRANCH   8  16
TORSDOF 6
ENDMDL
MODEL       42
REMARK 921   NORMALIZED FREE ENERGY PREDICTED BY IDOCK:   -6.01 KCAL/MOL
REMARK 922        TOTAL FREE ENERGY PREDICTED BY IDOCK:   -9.33 KCAL/MOL
REMARK 923 INTER-LIGAND FREE ENERGY PREDICTED BY IDOCK:   -8.50 KCAL/MOL
REMARK 924 INTRA-LIGAND FREE ENERGY PREDICTED BY IDOCK:   -0.83 KCAL/MOL
REMARK 927      BINDING AFFINITY PREDICTED BY RF-SCORE:    0.00 PKD
ROOT
HETATM    1  O   UNL     1      -8.076   9.474  67.629  1.00  0.00    -0.109 OA 
HETATM    2  C   UNL     1      -9.434   9.909  67.823  1.00  0.00    -0.140 C  
HETATM    3  H   UNL     1      -8.099   8.563  67.357  1.00  0.00     0.000 HD 
HETATM    4  C   UNL     1      -9.396  11.384  68.265  1.00  0.00    -0.187 C  
HETATM    5  C   UNL     1     -10.182   9.731  66.486  1.00  0.00    -0.289 C  
HETATM    6  C   UNL     1      -8.985  12.308  67.117  1.00  0.00    -0.192 C  
HETATM    7  C   UNL     1      -9.749  10.755  65.435  1.00  0.00    -0.245 C  
HETATM    8  N   UNL     1      -9.804  12.148  65.908  1.00  0.00    -0.245 NA 
ENDROOT
BRANCH   2   9
HETATM    9  C   UNL     1     -10.065   9.024  68.906  1.00  0.00    -0.207 A  
HETATM   10  C   UNL     1     -10.298   9.513  70.204  1.00  0.00    -0.300 A  
HETATM   11  C   UNL     1     -10.407   7.683  68.643  1.00  0.00    -0.220 A  
HETATM   12  C   UNL     1     -11.141   7.372  70.922  1.00  0.00    -0.263 A  
HETATM   13  C   UNL     1     -10.830   8.697  71.206  1.00  0.00    -0.327 A  
HETATM   14 BR   UNL     1     -11.829   6.258  72.285  1.00  0.00    -0.269 Br 
HETATM   15  C   UNL     1     -10.938   6.861  69.644  1.00  0.00    -0.298 A  
ENDBRANCH   2   9
BRANCH   8  16
HETATM   16  C   UNL     1     -11.196  12.610  66.062  1.00  0.00    -0.306 C  
BRANCH  16  17
HETATM   17  C   UNL     1     -11.568  13.799  65.170  1.00  0.00    -0.341 C  
BRANCH  17  18
HETATM   18  C   UNL     1     -10.416  14.788  64.996  1.00  0.00    -0.443 C  
BRANCH  18  19
HETATM   19  C   UNL     1     -10.921  16.217  64.935  1.00  0.00    -0.349 C  
HETATM   20  O   UNL     1     -11.510  16.675  63.958  1.00  0.00    -1.192 OA 
BRANCH  19  21
HETATM   21  C   UNL     1     -10.650  17.109  66.094  1.00  0.00    -0.201 A  
HETATM   22  C   UNL     1     -10.395  16.514  67.337  1.00  0.00    -0.290 A  
HETATM   23  C   UNL     1     -10.150  17.307  68.458  1.00  0.00    -0.341 A  
HETATM   24  C   UNL     1     -10.151  18.690  68.329  1.00  0.00    -0.389 A  
HETATM   25  F   UNL     1      -9.915  19.452  69.407  1.00  0.00    -0.456 F  
HETATM   26  C   UNL     1     -10.388  19.297  67.100  1.00  0.00    -0.533 A  
HETATM   27  C   UNL     1     -10.640  18.506  65.977  1.00  0.00    -0.368 A  
ENDBRANCH  19  21
ENDBRANCH  18  19
ENDBRANCH  17  18
ENDBRANCH  16  17
ENDBRANCH   8  16
TORSDOF 6
ENDMDL
MODEL       43
REMARK 921   NORMALIZED FREE ENERGY PREDICTED BY IDOCK:   -6.01 KCAL/MOL
REMARK 922        TOTAL FREE ENERGY PREDICTED BY IDOCK:   -9.33 KCAL/MOL
REMARK 923 INTER-LIGAND FREE ENERGY PREDICTED BY IDOCK:   -7.18 KCAL/MOL
REMARK 924 INTRA-LIGAND FREE ENERGY PREDICTED BY IDOCK:   -2.15 KCAL/MOL
REMARK 927      BINDING AFFINITY PREDICTED BY RF-SCORE:    0.00 PKD
ROOT
HETATM    1  O   UNL     1     -10.323  13.656  69.226  1.00  0.00    -0.434 OA 
HETATM    2  C   UNL     1     -10.619  12.469  68.468  1.00  0.00    -0.243 C  
HETATM    3  H   UNL     1      -9.482  13.527  69.650  1.00  0.00     0.000 HD 
HETATM    4  C   UNL     1     -11.982  12.679  67.782  1.00  0.00    -0.303 C  
HETATM    5  C   UNL     1      -9.486  12.270  67.441  1.00  0.00    -0.181 C  
HETATM    6  C   UNL     1     -11.894  13.701  66.647  1.00  0.00    -0.409 C  
HETATM    7  C   UNL     1      -9.539  13.298  66.308  1.00  0.00    -0.235 C  
HETATM    8  N   UNL     1     -10.855  13.392  65.656  1.00  0.00    -0.280 NA 
ENDROOT
BRANCH   2   9
HETATM    9  C   UNL     1     -10.667  11.285  69.443  1.00  0.00    -0.188 A  
HETATM   10  C   UNL     1      -9.551  10.449  69.631  1.00  0.00    -0.142 A  
HETATM   11  C   UNL     1     -11.839  10.980  70.162  1.00  0.00    -0.441 A  
HETATM   12  C   UNL     1     -10.782   9.055  71.165  1.00  0.00    -0.288 A  
HETATM   13  C   UNL     1      -9.605   9.342  70.482  1.00  0.00    -0.330 A  
HETATM   14 BR   UNL     1     -10.866   7.540  72.292  1.00  0.00    -0.334 Br 
HETATM   15  C   UNL     1     -11.898   9.872  71.015  1.00  0.00    -0.463 A  
ENDBRANCH   2   9
BRANCH   8  16
HETATM   16  C   UNL     1     -11.140  12.197  64.841  1.00  0.00    -0.319 C  
BRANCH  16  17
HETATM   17  C   UNL     1     -10.073  11.881  63.787  1.00  0.00    -0.423 C  
BRANCH  17  18
HETATM   18  C   UNL     1      -9.756  10.389  63.699  1.00  0.00    -0.338 C  
BRANCH  18  19
HETATM   19  C   UNL     1      -8.795   9.964  64.791  1.00  0.00    -0.202 C  
HETATM   20  O   UNL     1      -7.730  10.539  65.004  1.00  0.00    -0.128 OA 
BRANCH  19  21
HETATM   21  C   UNL     1      -9.143   8.769  65.609  1.00  0.00    -0.247 A  
HETATM   22  C   UNL     1     -10.269   8.845  66.439  1.00  0.00    -0.273 A  
HETATM   23  C   UNL     1     -10.627   7.759  67.237  1.00  0.00    -0.376 A  
HETATM   24  C   UNL     1      -9.865   6.598  67.192  1.00  0.00    -0.151 A  
HETATM   25  F   UNL     1     -10.210   5.553  67.958  1.00  0.00    -0.171 F  
HETATM   26  C   UNL     1      -8.752   6.500  66.362  1.00  0.00    -0.142 A  
HETATM   27  C   UNL     1      -8.387   7.589  65.567  1.00  0.00    -0.137 A  
ENDBRANCH  19  21
ENDBRANCH  18  19
ENDBRANCH  17  18
ENDBRANCH  16  17
ENDBRANCH   8  16
TORSDOF 6
ENDMDL
MODEL       44
REMARK 921   NORMALIZED FREE ENERGY PREDICTED BY IDOCK:   -6.01 KCAL/MOL
REMARK 922        TOTAL FREE ENERGY PREDICTED BY IDOCK:   -9.33 KCAL/MOL
REMARK 923 INTER-LIGAND FREE ENERGY PREDICTED BY IDOCK:   -8.26 KCAL/MOL
REMARK 924 INTRA-LIGAND FREE ENERGY PREDICTED BY IDOCK:   -1.07 KCAL/MOL
REMARK 927      BINDING AFFINITY PREDICTED BY RF-SCORE:    0.00 PKD
ROOT
HETATM    1  O   UNL     1     -11.081  15.349  67.080  1.00  0.00    -0.327 OA 
HETATM    2  C   UNL     1     -11.156  14.146  67.866  1.00  0.00    -0.268 C  
HETATM    3  H   UNL     1     -10.398  15.895  67.452  1.00  0.00     0.000 HD 
HETATM    4  C   UNL     1     -12.264  13.260  67.265  1.00  0.00    -0.258 C  
HETATM    5  C   UNL     1      -9.778  13.457  67.808  1.00  0.00    -0.216 C  
HETATM    6  C   UNL     1     -11.846  12.668  65.917  1.00  0.00    -0.444 C  
HETATM    7  C   UNL     1      -9.495  12.832  66.440  1.00  0.00    -0.229 C  
HETATM    8  N   UNL     1     -10.567  11.945  65.962  1.00  0.00    -0.256 NA 
ENDROOT
BRANCH   2   9
HETATM    9  C   UNL     1     -11.491  14.544  69.310  1.00  0.00    -0.322 A  
HETATM   10  C   UNL     1     -12.105  13.638  70.194  1.00  0.00    -0.431 A  
HETATM   11  C   UNL     1     -11.215  15.839  69.791  1.00  0.00    -0.330 A  
HETATM   12  C   UNL     1     -12.186  15.302  71.936  1.00  0.00    -0.361 A  
HETATM   13  C   UNL     1     -12.452  14.011  71.495  1.00  0.00    -0.407 A  
HETATM   14 BR   UNL     1     -12.685  15.818  73.684  1.00  0.00    -0.783 Br 
HETATM   15  C   UNL     1     -11.563  16.217  71.093  1.00  0.00    -0.376 A  
ENDBRANCH   2   9
BRANCH   8  16
HETATM   16  C   UNL     1     -10.615  10.691  66.737  1.00  0.00    -0.237 C  
BRANCH  16  17
HETATM   17  C   UNL     1      -9.803   9.542  66.130  1.00  0.00    -0.343 C  
BRANCH  17  18
HETATM   18  C   UNL     1      -9.069   8.718  67.187  1.00  0.00    -0.155 C  
BRANCH  18  19
HETATM   19  C   UNL     1      -9.886   7.513  67.611  1.00  0.00    -0.161 C  
HETATM   20  O   UNL     1     -10.067   6.540  66.882  1.00  0.00    -0.166 OA 
BRANCH  19  21
HETATM   21  C   UNL     1     -10.531   7.537  68.952  1.00  0.00    -0.214 A  
HETATM   22  C   UNL     1     -10.369   8.686  69.739  1.00  0.00    -0.212 A  
HETATM   23  C   UNL     1     -10.940   8.751  71.009  1.00  0.00    -0.328 A  
HETATM   24  C   UNL     1     -11.678   7.674  71.483  1.00  0.00    -0.281 A  
HETATM   25  F   UNL     1     -12.227   7.739  72.705  1.00  0.00    -0.299 F  
HETATM   26  C   UNL     1     -11.861   6.532  70.709  1.00  0.00    -0.394 A  
HETATM   27  C   UNL     1     -11.285   6.461  69.439  1.00  0.00    -0.459 A  
ENDBRANCH  19  21
ENDBRANCH  18  19
ENDBRANCH  17  18
ENDBRANCH  16  17
ENDBRANCH   8  16
TORSDOF 6
ENDMDL
MODEL       45
REMARK 921   NORMALIZED FREE ENERGY PREDICTED BY IDOCK:   -6.01 KCAL/MOL
REMARK 922        TOTAL FREE ENERGY PREDICTED BY IDOCK:   -9.32 KCAL/MOL
REMARK 923 INTER-LIGAND FREE ENERGY PREDICTED BY IDOCK:   -7.46 KCAL/MOL
REMARK 924 INTRA-LIGAND FREE ENERGY PREDICTED BY IDOCK:   -1.86 KCAL/MOL
REMARK 927      BINDING AFFINITY PREDICTED BY RF-SCORE:    0.00 PKD
ROOT
HETATM    1  O   UNL     1     -12.739   8.286  72.999  1.00  0.00    -0.694 OA 
HETATM    2  C   UNL     1     -11.600   8.093  72.142  1.00  0.00    -0.357 C  
HETATM    3  H   UNL     1     -13.515   8.305  72.450  1.00  0.00     0.000 HD 
HETATM    4  C   UNL     1     -10.342   8.062  73.031  1.00  0.00    -0.351 C  
HETATM    5  C   UNL     1     -11.797   6.764  71.384  1.00  0.00    -0.385 C  
HETATM    6  C   UNL     1     -10.267   6.779  73.861  1.00  0.00    -0.367 C  
HETATM    7  C   UNL     1     -11.624   5.545  72.292  1.00  0.00    -0.111 C  
HETATM    8  N   UNL     1     -10.368   5.552  73.059  1.00  0.00    -0.191 NA 
ENDROOT
BRANCH   2   9
HETATM    9  C   UNL     1     -11.548   9.265  71.152  1.00  0.00    -0.397 A  
HETATM   10  C   UNL     1     -12.418  10.363  71.275  1.00  0.00    -0.521 A  
HETATM   11  C   UNL     1     -10.643   9.268  70.073  1.00  0.00    -0.256 A  
HETATM   12  C   UNL     1     -11.514  11.377  69.284  1.00  0.00    -0.303 A  
HETATM   13  C   UNL     1     -12.405  11.411  70.350  1.00  0.00    -0.404 A  
HETATM   14 BR   UNL     1     -11.518  12.776  68.014  1.00  0.00    -0.389 Br 
HETATM   15  C   UNL     1     -10.627  10.314  69.143  1.00  0.00    -0.254 A  
ENDBRANCH   2   9
BRANCH   8  16
HETATM   16  C   UNL     1      -9.203   5.308  72.189  1.00  0.00    -0.139 C  
BRANCH  16  17
HETATM   17  C   UNL     1      -9.367   4.122  71.232  1.00  0.00    -0.218 C  
BRANCH  17  18
HETATM   18  C   UNL     1      -8.379   4.166  70.066  1.00  0.00    -0.079 C  
BRANCH  18  19
HETATM   19  C   UNL     1      -9.099   4.140  68.732  1.00  0.00    -0.133 C  
HETATM   20  O   UNL     1      -9.427   3.097  68.171  1.00  0.00    -0.197 OA 
BRANCH  19  21
HETATM   21  C   UNL     1      -9.379   5.438  68.059  1.00  0.00    -0.127 A  
HETATM   22  C   UNL     1     -10.713   5.751  67.763  1.00  0.00    -0.306 A  
HETATM   23  C   UNL     1     -11.026   6.947  67.118  1.00  0.00    -0.427 A  
HETATM   24  C   UNL     1     -10.007   7.829  66.782  1.00  0.00    -0.261 A  
HETATM   25  F   UNL     1     -10.308   8.980  66.164  1.00  0.00    -0.360 F  
HETATM   26  C   UNL     1      -8.679   7.541  67.082  1.00  0.00    -0.121 A  
HETATM   27  C   UNL     1      -8.361   6.341  67.722  1.00  0.00    -0.117 A  
ENDBRANCH  19  21
ENDBRANCH  18  19
ENDBRANCH  17  18
ENDBRANCH  16  17
ENDBRANCH   8  16
TORSDOF 6
ENDMDL
MODEL       46
REMARK 921   NORMALIZED FREE ENERGY PREDICTED BY IDOCK:   -5.98 KCAL/MOL
REMARK 922        TOTAL FREE ENERGY PREDICTED BY IDOCK:   -9.29 KCAL/MOL
REMARK 923 INTER-LIGAND FREE ENERGY PREDICTED BY IDOCK:   -7.75 KCAL/MOL
REMARK 924 INTRA-LIGAND FREE ENERGY PREDICTED BY IDOCK:   -1.54 KCAL/MOL
REMARK 927      BINDING AFFINITY PREDICTED BY RF-SCORE:    0.00 PKD
ROOT
HETATM    1  O   UNL     1      -9.864   7.568  70.572  1.00  0.00    -0.183 OA 
HETATM    2  C   UNL     1     -10.187   8.489  69.516  1.00  0.00    -0.206 C  
HETATM    3  H   UNL     1     -10.680   7.211  70.905  1.00  0.00     0.000 HD 
HETATM    4  C   UNL     1      -8.866   9.069  68.977  1.00  0.00    -0.136 C  
HETATM    5  C   UNL     1     -10.955   7.711  68.428  1.00  0.00     0.100 C  
HETATM    6  C   UNL     1      -8.072   8.028  68.185  1.00  0.00    -0.129 C  
HETATM    7  C   UNL     1     -10.050   6.756  67.646  1.00  0.00    -0.161 C  
HETATM    8  N   UNL     1      -8.842   7.397  67.105  1.00  0.00    -0.124 NA 
ENDROOT
BRANCH   2   9
HETATM    9  C   UNL     1     -11.075   9.594  70.105  1.00  0.00    -0.314 A  
HETATM   10  C   UNL     1     -11.121  10.878  69.532  1.00  0.00    -0.326 A  
HETATM   11  C   UNL     1     -11.855   9.365  71.256  1.00  0.00    -0.435 A  
HETATM   12  C   UNL     1     -12.638  11.649  71.239  1.00  0.00    -0.320 A  
HETATM   13  C   UNL     1     -11.893  11.898  70.092  1.00  0.00    -0.390 A  
HETATM   14 BR   UNL     1     -13.656  13.038  72.017  1.00  0.00    -0.455 Br 
HETATM   15  C   UNL     1     -12.629  10.385  71.821  1.00  0.00    -0.468 A  
ENDBRANCH   2   9
BRANCH   8  16
HETATM   16  C   UNL     1      -9.166   8.306  65.990  1.00  0.00    -0.166 C  
BRANCH  16  17
HETATM   17  C   UNL     1      -7.946   8.961  65.334  1.00  0.00    -0.110 C  
BRANCH  17  18
HETATM   18  C   UNL     1      -8.187  10.427  64.975  1.00  0.00    -0.152 C  
BRANCH  18  19
HETATM   19  C   UNL     1      -9.370  10.577  64.038  1.00  0.00    -0.267 C  
HETATM   20  O   UNL     1      -9.454   9.978  62.968  1.00  0.00    -0.297 OA 
BRANCH  19  21
HETATM   21  C   UNL     1     -10.451  11.528  64.417  1.00  0.00    -0.380 A  
HETATM   22  C   UNL     1     -10.777  11.645  65.775  1.00  0.00    -0.331 A  
HETATM   23  C   UNL     1     -11.793  12.510  66.180  1.00  0.00    -0.459 A  
HETATM   24  C   UNL     1     -12.471  13.262  65.227  1.00  0.00    -0.489 A  
HETATM   25  F   UNL     1     -13.447  14.093  65.618  1.00  0.00    -0.483 F  
HETATM   26  C   UNL     1     -12.149  13.168  63.877  1.00  0.00    -0.536 A  
HETATM   27  C   UNL     1     -11.137  12.298  63.467  1.00  0.00    -0.533 A  
ENDBRANCH  19  21
ENDBRANCH  18  19
ENDBRANCH  17  18
ENDBRANCH  16  17
ENDBRANCH   8  16
TORSDOF 6
ENDMDL
MODEL       47
REMARK 921   NORMALIZED FREE ENERGY PREDICTED BY IDOCK:   -5.97 KCAL/MOL
REMARK 922        TOTAL FREE ENERGY PREDICTED BY IDOCK:   -9.28 KCAL/MOL
REMARK 923 INTER-LIGAND FREE ENERGY PREDICTED BY IDOCK:   -7.31 KCAL/MOL
REMARK 924 INTRA-LIGAND FREE ENERGY PREDICTED BY IDOCK:   -1.96 KCAL/MOL
REMARK 927      BINDING AFFINITY PREDICTED BY RF-SCORE:    0.00 PKD
ROOT
HETATM    1  O   UNL     1      -7.406  14.288  69.760  1.00  0.00    -0.364 OA 
HETATM    2  C   UNL     1      -7.811  14.069  68.396  1.00  0.00    -0.144 C  
HETATM    3  H   UNL     1      -8.184  14.502  70.262  1.00  0.00     0.000 HD 
HETATM    4  C   UNL     1      -6.550  13.723  67.582  1.00  0.00    -0.181 C  
HETATM    5  C   UNL     1      -8.833  12.914  68.387  1.00  0.00    -0.120 C  
HETATM    6  C   UNL     1      -6.019  12.330  67.925  1.00  0.00    -0.083 C  
HETATM    7  C   UNL     1      -8.182  11.558  68.665  1.00  0.00    -0.124 C  
HETATM    8  N   UNL     1      -7.026  11.268  67.802  1.00  0.00    -0.072 NA 
ENDROOT
BRANCH   2   9
HETATM    9  C   UNL     1      -8.464  15.360  67.883  1.00  0.00    -0.150 A  
HETATM   10  C   UNL     1      -9.197  15.380  66.683  1.00  0.00    -0.303 A  
HETATM   11  C   UNL     1      -8.328  16.574  68.584  1.00  0.00    -0.235 A  
HETATM   12  C   UNL     1      -9.588  17.749  66.893  1.00  0.00    -0.288 A  
HETATM   13  C   UNL     1      -9.755  16.562  66.189  1.00  0.00    -0.344 A  
HETATM   14 BR   UNL     1     -10.313  19.355  66.209  1.00  0.00    -0.612 Br 
HETATM   15  C   UNL     1      -8.883  17.761  68.092  1.00  0.00    -0.267 A  
ENDBRANCH   2   9
BRANCH   8  16
HETATM   16  C   UNL     1      -7.444  10.997  66.414  1.00  0.00    -0.131 C  
BRANCH  16  17
HETATM   17  C   UNL     1      -8.069   9.614  66.201  1.00  0.00    -0.108 C  
BRANCH  17  18
HETATM   18  C   UNL     1      -9.376   9.674  65.410  1.00  0.00    -0.320 C  
BRANCH  18  19
HETATM   19  C   UNL     1     -10.474  10.346  66.211  1.00  0.00    -0.159 C  
HETATM   20  O   UNL     1     -10.909   9.884  67.263  1.00  0.00    -0.267 OA 
BRANCH  19  21
HETATM   21  C   UNL     1     -11.077  11.594  65.669  1.00  0.00    -0.308 A  
HETATM   22  C   UNL     1     -10.992  11.821  64.289  1.00  0.00    -0.419 A  
HETATM   23  C   UNL     1     -11.527  12.983  63.735  1.00  0.00    -0.486 A  
HETATM   24  C   UNL     1     -12.154  13.908  64.561  1.00  0.00    -0.443 A  
HETATM   25  F   UNL     1     -12.668  15.025  64.027  1.00  0.00    -0.432 F  
HETATM   26  C   UNL     1     -12.259  13.692  65.931  1.00  0.00    -0.502 A  
HETATM   27  C   UNL     1     -11.718  12.533  66.490  1.00  0.00    -0.454 A  
ENDBRANCH  19  21
ENDBRANCH  18  19
ENDBRANCH  17  18
ENDBRANCH  16  17
ENDBRANCH   8  16
TORSDOF 6
ENDMDL
MODEL       48
REMARK 921   NORMALIZED FREE ENERGY PREDICTED BY IDOCK:   -5.97 KCAL/MOL
REMARK 922        TOTAL FREE ENERGY PREDICTED BY IDOCK:   -9.28 KCAL/MOL
REMARK 923 INTER-LIGAND FREE ENERGY PREDICTED BY IDOCK:   -7.09 KCAL/MOL
REMARK 924 INTRA-LIGAND FREE ENERGY PREDICTED BY IDOCK:   -2.19 KCAL/MOL
REMARK 927      BINDING AFFINITY PREDICTED BY RF-SCORE:    0.00 PKD
ROOT
HETATM    1  O   UNL     1     -12.184   8.934  70.459  1.00  0.00    -0.488 OA 
HETATM    2  C   UNL     1     -11.439  10.049  69.936  1.00  0.00    -0.215 C  
HETATM    3  H   UNL     1     -13.081   9.018  70.157  1.00  0.00     0.000 HD 
HETATM    4  C   UNL     1      -9.985   9.913  70.424  1.00  0.00    -0.222 C  
HETATM    5  C   UNL     1     -11.533  10.000  68.397  1.00  0.00    -0.011 C  
HETATM    6  C   UNL     1      -9.258   8.761  69.726  1.00  0.00    -0.155 C  
HETATM    7  C   UNL     1     -10.708   8.858  67.799  1.00  0.00    -0.137 C  
HETATM    8  N   UNL     1      -9.311   8.834  68.259  1.00  0.00    -0.137 NA 
ENDROOT
BRANCH   2   9
HETATM    9  C   UNL     1     -12.082  11.338  70.466  1.00  0.00    -0.481 A  
HETATM   10  C   UNL     1     -11.798  12.587  69.885  1.00  0.00    -0.373 A  
HETATM   11  C   UNL     1     -12.958  11.315  71.569  1.00  0.00    -0.520 A  
HETATM   12  C   UNL     1     -13.192  13.717  71.495  1.00  0.00    -0.331 A  
HETATM   13  C   UNL     1     -12.345  13.768  70.394  1.00  0.00    -0.423 A  
HETATM   14 BR   UNL     1     -13.906  15.316  72.204  1.00  0.00    -0.680 Br 
HETATM   15  C   UNL     1     -13.507  12.495  72.082  1.00  0.00    -0.523 A  
ENDBRANCH   2   9
BRANCH   8  16
HETATM   16  C   UNL     1      -8.534   9.949  67.687  1.00  0.00    -0.114 C  
BRANCH  16  17
HETATM   17  C   UNL     1      -8.623  10.063  66.162  1.00  0.00    -0.142 C  
BRANCH  17  18
HETATM   18  C   UNL     1      -8.595  11.512  65.677  1.00  0.00     0.120 C  
BRANCH  18  19
HETATM   19  C   UNL     1      -9.926  12.198  65.916  1.00  0.00    -0.245 C  
HETATM   20  O   UNL     1     -10.986  11.776  65.457  1.00  0.00    -0.291 OA 
BRANCH  19  21
HETATM   21  C   UNL     1      -9.935  13.461  66.704  1.00  0.00    -0.277 A  
HETATM   22  C   UNL     1      -8.999  13.598  67.737  1.00  0.00    -0.196 A  
HETATM   23  C   UNL     1      -8.978  14.755  68.515  1.00  0.00    -0.182 A  
HETATM   24  C   UNL     1      -9.884  15.774  68.249  1.00  0.00    -0.213 A  
HETATM   25  F   UNL     1      -9.862  16.886  68.997  1.00  0.00    -0.239 F  
HETATM   26  C   UNL     1     -10.811  15.660  67.218  1.00  0.00    -0.298 A  
HETATM   27  C   UNL     1     -10.840  14.500  66.441  1.00  0.00    -0.318 A  
ENDBRANCH  19  21
ENDBRANCH  18  19
ENDBRANCH  17  18
ENDBRANCH  16  17
ENDBRANCH   8  16
TORSDOF 6
ENDMDL
MODEL       49
REMARK 921   NORMALIZED FREE ENERGY PREDICTED BY IDOCK:   -5.96 KCAL/MOL
REMARK 922        TOTAL FREE ENERGY PREDICTED BY IDOCK:   -9.27 KCAL/MOL
REMARK 923 INTER-LIGAND FREE ENERGY PREDICTED BY IDOCK:   -8.28 KCAL/MOL
REMARK 924 INTRA-LIGAND FREE ENERGY PREDICTED BY IDOCK:   -0.99 KCAL/MOL
REMARK 927      BINDING AFFINITY PREDICTED BY RF-SCORE:    0.00 PKD
ROOT
HETATM    1  O   UNL     1     -10.523   5.858  71.697  1.00  0.00    -0.218 OA 
HETATM    2  C   UNL     1     -10.940   6.689  70.599  1.00  0.00    -0.280 C  
HETATM    3  H   UNL     1      -9.583   5.739  71.629  1.00  0.00     0.000 HD 
HETATM    4  C   UNL     1     -12.464   6.882  70.707  1.00  0.00    -0.251 C  
HETATM    5  C   UNL     1     -10.185   8.030  70.708  1.00  0.00    -0.209 C  
HETATM    6  C   UNL     1     -12.838   7.790  71.881  1.00  0.00    -0.292 C  
HETATM    7  C   UNL     1     -10.691   8.891  71.868  1.00  0.00    -0.356 C  
HETATM    8  N   UNL     1     -12.149   9.087  71.866  1.00  0.00    -0.359 NA 
ENDROOT
BRANCH   2   9
HETATM    9  C   UNL     1     -10.565   5.974  69.294  1.00  0.00    -0.366 A  
HETATM   10  C   UNL     1     -11.023   6.440  68.048  1.00  0.00    -0.400 A  
HETATM   11  C   UNL     1      -9.770   4.811  69.303  1.00  0.00    -0.266 A  
HETATM   12  C   UNL     1      -9.951   4.609  66.904  1.00  0.00    -0.211 A  
HETATM   13  C   UNL     1     -10.721   5.765  66.862  1.00  0.00    -0.381 A  
HETATM   14 BR   UNL     1      -9.570   3.678  65.304  1.00  0.00    -0.138 Br 
HETATM   15  C   UNL     1      -9.467   4.131  68.118  1.00  0.00    -0.215 A  
ENDBRANCH   2   9
BRANCH   8  16
HETATM   16  C   UNL     1     -12.573   9.977  70.769  1.00  0.00    -0.285 C  
BRANCH  16  17
HETATM   17  C   UNL     1     -11.842  11.323  70.731  1.00  0.00    -0.288 C  
BRANCH  17  18
HETATM   18  C   UNL     1     -12.141  12.120  69.461  1.00  0.00    -0.263 C  
BRANCH  18  19
HETATM   19  C   UNL     1     -11.107  11.850  68.386  1.00  0.00    -0.244 C  
HETATM   20  O   UNL     1     -10.018  11.332  68.623  1.00  0.00    -0.196 OA 
BRANCH  19  21
HETATM   21  C   UNL     1     -11.414  12.274  66.992  1.00  0.00    -0.419 A  
HETATM   22  C   UNL     1     -12.157  13.448  66.810  1.00  0.00    -0.419 A  
HETATM   23  C   UNL     1     -12.484  13.879  65.526  1.00  0.00    -0.541 A  
HETATM   24  C   UNL     1     -12.058  13.141  64.428  1.00  0.00    -0.410 A  
HETATM   25  F   UNL     1     -12.372  13.557  63.193  1.00  0.00    -0.600 F  
HETATM   26  C   UNL     1     -11.307  11.981  64.590  1.00  0.00    -0.377 A  
HETATM   27  C   UNL     1     -10.983  11.543  65.876  1.00  0.00    -0.301 A  
ENDBRANCH  19  21
ENDBRANCH  18  19
ENDBRANCH  17  18
ENDBRANCH  16  17
ENDBRANCH   8  16
TORSDOF 6
ENDMDL
MODEL       50
REMARK 921   NORMALIZED FREE ENERGY PREDICTED BY IDOCK:   -5.96 KCAL/MOL
REMARK 922        TOTAL FREE ENERGY PREDICTED BY IDOCK:   -9.26 KCAL/MOL
REMARK 923 INTER-LIGAND FREE ENERGY PREDICTED BY IDOCK:   -7.61 KCAL/MOL
REMARK 924 INTRA-LIGAND FREE ENERGY PREDICTED BY IDOCK:   -1.65 KCAL/MOL
REMARK 927      BINDING AFFINITY PREDICTED BY RF-SCORE:    0.00 PKD
ROOT
HETATM    1  O   UNL     1      -9.647   8.399  66.563  1.00  0.00    -0.199 OA 
HETATM    2  C   UNL     1      -9.756   9.510  67.472  1.00  0.00    -0.155 C  
HETATM    3  H   UNL     1     -10.474   7.930  66.580  1.00  0.00     0.000 HD 
HETATM    4  C   UNL     1      -8.416  10.270  67.446  1.00  0.00    -0.125 C  
HETATM    5  C   UNL     1     -10.926  10.396  66.998  1.00  0.00    -0.222 C  
HETATM    6  C   UNL     1      -8.220  11.026  66.129  1.00  0.00    -0.155 C  
HETATM    7  C   UNL     1     -10.593  11.165  65.717  1.00  0.00    -0.227 C  
HETATM    8  N   UNL     1      -9.334  11.922  65.792  1.00  0.00    -0.199 NA 
ENDROOT
BRANCH   2   9
HETATM    9  C   UNL     1     -10.046   8.950  68.871  1.00  0.00    -0.209 A  
HETATM   10  C   UNL     1      -9.847   9.730  70.025  1.00  0.00    -0.295 A  
HETATM   11  C   UNL     1     -10.497   7.627  69.048  1.00  0.00    -0.214 A  
HETATM   12  C   UNL     1     -10.494   7.895  71.447  1.00  0.00    -0.206 A  
HETATM   13  C   UNL     1     -10.067   9.210  71.303  1.00  0.00    -0.388 A  
HETATM   14 BR   UNL     1     -10.759   7.179  73.176  1.00  0.00    -0.403 Br 
HETATM   15  C   UNL     1     -10.716   7.101  70.326  1.00  0.00    -0.258 A  
ENDBRANCH   2   9
BRANCH   8  16
HETATM   16  C   UNL     1      -9.457  13.087  66.687  1.00  0.00    -0.256 C  
BRANCH  16  17
HETATM   17  C   UNL     1     -10.183  14.286  66.066  1.00  0.00    -0.327 C  
BRANCH  17  18
HETATM   18  C   UNL     1     -11.431  14.689  66.850  1.00  0.00    -0.372 C  
BRANCH  18  19
HETATM   19  C   UNL     1     -11.078  15.140  68.254  1.00  0.00    -0.291 C  
HETATM   20  O   UNL     1     -10.259  16.027  68.483  1.00  0.00    -0.225 OA 
BRANCH  19  21
HETATM   21  C   UNL     1     -11.723  14.443  69.400  1.00  0.00    -0.362 A  
HETATM   22  C   UNL     1     -12.378  15.225  70.362  1.00  0.00    -0.422 A  
HETATM   23  C   UNL     1     -12.983  14.620  71.462  1.00  0.00    -0.410 A  
HETATM   24  C   UNL     1     -12.943  13.237  71.592  1.00  0.00    -0.349 A  
HETATM   25  F   UNL     1     -13.526  12.657  72.650  1.00  0.00    -0.593 F  
HETATM   26  C   UNL     1     -12.310  12.445  70.638  1.00  0.00    -0.367 A  
HETATM   27  C   UNL     1     -11.696  13.048  69.538  1.00  0.00    -0.381 A  
ENDBRANCH  19  21
ENDBRANCH  18  19
ENDBRANCH  17  18
ENDBRANCH  16  17
ENDBRANCH   8  16
TORSDOF 6
ENDMDL
MODEL       51
REMARK 921   NORMALIZED FREE ENERGY PREDICTED BY IDOCK:   -5.93 KCAL/MOL
REMARK 922        TOTAL FREE ENERGY PREDICTED BY IDOCK:   -9.22 KCAL/MOL
REMARK 923 INTER-LIGAND FREE ENERGY PREDICTED BY IDOCK:   -8.34 KCAL/MOL
REMARK 924 INTRA-LIGAND FREE ENERGY PREDICTED BY IDOCK:   -0.88 KCAL/MOL
REMARK 927      BINDING AFFINITY PREDICTED BY RF-SCORE:    0.00 PKD
ROOT
HETATM    1  O   UNL     1      -9.136   6.653  70.618  1.00  0.00    -0.154 OA 
HETATM    2  C   UNL     1     -10.131   7.482  69.990  1.00  0.00    -0.199 C  
HETATM    3  H   UNL     1      -8.312   7.126  70.599  1.00  0.00     0.000 HD 
HETATM    4  C   UNL     1     -11.467   6.716  70.020  1.00  0.00    -0.434 C  
HETATM    5  C   UNL     1     -10.212   8.804  70.779  1.00  0.00    -0.262 C  
HETATM    6  C   UNL     1     -12.045   6.640  71.435  1.00  0.00    -0.347 C  
HETATM    7  C   UNL     1     -10.875   8.627  72.147  1.00  0.00    -0.354 C  
HETATM    8  N   UNL     1     -12.180   7.949  72.088  1.00  0.00    -0.316 NA 
ENDROOT
BRANCH   2   9
HETATM    9  C   UNL     1      -9.681   7.751  68.548  1.00  0.00    -0.165 A  
HETATM   10  C   UNL     1      -8.530   7.140  68.016  1.00  0.00    -0.122 A  
HETATM   11  C   UNL     1     -10.391   8.640  67.717  1.00  0.00    -0.303 A  
HETATM   12  C   UNL     1      -8.802   8.315  65.928  1.00  0.00    -0.160 A  
HETATM   13  C   UNL     1      -8.092   7.418  66.718  1.00  0.00    -0.123 A  
HETATM   14 BR   UNL     1      -8.191   8.716  64.186  1.00  0.00    -0.131 Br 
HETATM   15  C   UNL     1      -9.954   8.923  66.417  1.00  0.00    -0.354 A  
ENDBRANCH   2   9
BRANCH   8  16
HETATM   16  C   UNL     1     -13.211   8.814  71.487  1.00  0.00    -0.314 C  
BRANCH  16  17
HETATM   17  C   UNL     1     -13.310  10.209  72.113  1.00  0.00    -0.431 C  
BRANCH  17  18
HETATM   18  C   UNL     1     -12.891  11.318  71.149  1.00  0.00    -0.452 C  
BRANCH  18  19
HETATM   19  C   UNL     1     -13.160  12.689  71.738  1.00  0.00    -0.360 C  
HETATM   20  O   UNL     1     -13.936  12.873  72.673  1.00  0.00    -0.589 OA 
BRANCH  19  21
HETATM   21  C   UNL     1     -12.486  13.865  71.121  1.00  0.00    -0.450 A  
HETATM   22  C   UNL     1     -12.154  13.794  69.761  1.00  0.00    -0.400 A  
HETATM   23  C   UNL     1     -11.507  14.861  69.141  1.00  0.00    -0.324 A  
HETATM   24  C   UNL     1     -11.205  16.000  69.878  1.00  0.00    -0.361 A  
HETATM   25  F   UNL     1     -10.584  17.026  69.281  1.00  0.00    -0.299 F  
HETATM   26  C   UNL     1     -11.540  16.092  71.226  1.00  0.00    -0.506 A  
HETATM   27  C   UNL     1     -12.182  15.022  71.852  1.00  0.00    -0.427 A  
ENDBRANCH  19  21
ENDBRANCH  18  19
ENDBRANCH  17  18
ENDBRANCH  16  17
ENDBRANCH   8  16
TORSDOF 6
ENDMDL
MODEL       52
REMARK 921   NORMALIZED FREE ENERGY PREDICTED BY IDOCK:   -5.92 KCAL/MOL
REMARK 922        TOTAL FREE ENERGY PREDICTED BY IDOCK:   -9.21 KCAL/MOL
REMARK 923 INTER-LIGAND FREE ENERGY PREDICTED BY IDOCK:   -8.17 KCAL/MOL
REMARK 924 INTRA-LIGAND FREE ENERGY PREDICTED BY IDOCK:   -1.04 KCAL/MOL
REMARK 927      BINDING AFFINITY PREDICTED BY RF-SCORE:    0.00 PKD
ROOT
HETATM    1  O   UNL     1     -11.948   7.558  69.985  1.00  0.00    -0.469 OA 
HETATM    2  C   UNL     1     -10.853   8.453  70.250  1.00  0.00    -0.239 C  
HETATM    3  H   UNL     1     -12.405   7.408  70.805  1.00  0.00     0.000 HD 
HETATM    4  C   UNL     1     -10.112   8.696  68.922  1.00  0.00    -0.213 C  
HETATM    5  C   UNL     1     -11.440   9.759  70.824  1.00  0.00    -0.417 C  
HETATM    6  C   UNL     1     -10.934   9.561  67.964  1.00  0.00    -0.096 C  
HETATM    7  C   UNL     1     -12.174  10.584  69.764  1.00  0.00    -0.181 C  
HETATM    8  N   UNL     1     -11.377  10.832  68.552  1.00  0.00    -0.279 NA 
ENDROOT
BRANCH   2   9
HETATM    9  C   UNL     1      -9.934   7.786  71.282  1.00  0.00    -0.199 A  
HETATM   10  C   UNL     1      -9.466   6.472  71.101  1.00  0.00    -0.173 A  
HETATM   11  C   UNL     1      -9.549   8.459  72.458  1.00  0.00    -0.358 A  
HETATM   12  C   UNL     1      -8.319   6.526  73.220  1.00  0.00    -0.116 A  
HETATM   13  C   UNL     1      -8.666   5.844  72.059  1.00  0.00    -0.137 A  
HETATM   14 BR   UNL     1      -7.265   5.667  74.532  1.00  0.00    -0.084 Br 
HETATM   15  C   UNL     1      -8.750   7.833  73.422  1.00  0.00    -0.283 A  
ENDBRANCH   2   9
BRANCH   8  16
HETATM   16  C   UNL     1     -10.283  11.786  68.811  1.00  0.00    -0.160 C  
BRANCH  16  17
HETATM   17  C   UNL     1     -10.437  13.133  68.096  1.00  0.00    -0.255 C  
BRANCH  17  18
HETATM   18  C   UNL     1     -11.846  13.712  68.226  1.00  0.00    -0.404 C  
BRANCH  18  19
HETATM   19  C   UNL     1     -11.828  15.047  68.945  1.00  0.00    -0.307 C  
HETATM   20  O   UNL     1     -11.574  16.106  68.376  1.00  0.00    -0.355 OA 
BRANCH  19  21
HETATM   21  C   UNL     1     -12.085  15.060  70.411  1.00  0.00    -0.384 A  
HETATM   22  C   UNL     1     -12.766  13.970  70.969  1.00  0.00    -0.431 A  
HETATM   23  C   UNL     1     -13.046  13.943  72.334  1.00  0.00    -0.532 A  
HETATM   24  C   UNL     1     -12.635  14.999  73.138  1.00  0.00    -0.469 A  
HETATM   25  F   UNL     1     -12.904  14.972  74.451  1.00  0.00    -0.504 F  
HETATM   26  C   UNL     1     -11.946  16.083  72.602  1.00  0.00    -0.646 A  
HETATM   27  C   UNL     1     -11.670  16.117  71.234  1.00  0.00    -0.480 A  
ENDBRANCH  19  21
ENDBRANCH  18  19
ENDBRANCH  17  18
ENDBRANCH  16  17
ENDBRANCH   8  16
TORSDOF 6
ENDMDL
MODEL       53
REMARK 921   NORMALIZED FREE ENERGY PREDICTED BY IDOCK:   -5.91 KCAL/MOL
REMARK 922        TOTAL FREE ENERGY PREDICTED BY IDOCK:   -9.19 KCAL/MOL
REMARK 923 INTER-LIGAND FREE ENERGY PREDICTED BY IDOCK:   -8.17 KCAL/MOL
REMARK 924 INTRA-LIGAND FREE ENERGY PREDICTED BY IDOCK:   -1.03 KCAL/MOL
REMARK 927      BINDING AFFINITY PREDICTED BY RF-SCORE:    0.00 PKD
ROOT
HETATM    1  O   UNL     1     -12.727  13.979  66.302  1.00  0.00    -0.488 OA 
HETATM    2  C   UNL     1     -11.351  14.006  66.723  1.00  0.00    -0.334 C  
HETATM    3  H   UNL     1     -12.797  14.497  65.508  1.00  0.00     0.000 HD 
HETATM    4  C   UNL     1     -11.237  13.167  68.010  1.00  0.00    -0.308 C  
HETATM    5  C   UNL     1     -10.496  13.421  65.581  1.00  0.00    -0.293 C  
HETATM    6  C   UNL     1     -11.396  11.672  67.726  1.00  0.00    -0.288 C  
HETATM    7  C   UNL     1     -10.673  11.908  65.436  1.00  0.00    -0.283 C  
HETATM    8  N   UNL     1     -10.481  11.167  66.693  1.00  0.00    -0.241 NA 
ENDROOT
BRANCH   2   9
HETATM    9  C   UNL     1     -10.964  15.469  66.981  1.00  0.00    -0.283 A  
HETATM   10  C   UNL     1     -10.404  16.266  65.966  1.00  0.00    -0.363 A  
HETATM   11  C   UNL     1     -11.134  16.054  68.251  1.00  0.00    -0.351 A  
HETATM   12  C   UNL     1     -10.170  18.128  67.478  1.00  0.00    -0.371 A  
HETATM   13  C   UNL     1     -10.008  17.583  66.210  1.00  0.00    -0.316 A  
HETATM   14 BR   UNL     1      -9.604  19.899  67.817  1.00  0.00    -0.517 Br 
HETATM   15  C   UNL     1     -10.737  17.373  68.500  1.00  0.00    -0.279 A  
ENDBRANCH   2   9
BRANCH   8  16
HETATM   16  C   UNL     1      -9.065  11.155  67.101  1.00  0.00    -0.147 C  
BRANCH  16  17
HETATM   17  C   UNL     1      -8.568   9.800  67.617  1.00  0.00    -0.125 C  
BRANCH  17  18
HETATM   18  C   UNL     1      -8.821   9.610  69.112  1.00  0.00    -0.157 C  
BRANCH  18  19
HETATM   19  C   UNL     1      -9.664   8.378  69.376  1.00  0.00    -0.177 C  
HETATM   20  O   UNL     1      -9.457   7.298  68.826  1.00  0.00    -0.143 OA 
BRANCH  19  21
HETATM   21  C   UNL     1     -10.816   8.500  70.310  1.00  0.00    -0.249 A  
HETATM   22  C   UNL     1     -11.172   9.782  70.751  1.00  0.00    -0.419 A  
HETATM   23  C   UNL     1     -12.234   9.948  71.639  1.00  0.00    -0.482 A  
HETATM   24  C   UNL     1     -12.943   8.834  72.073  1.00  0.00    -0.390 A  
HETATM   25  F   UNL     1     -13.965   8.995  72.926  1.00  0.00    -0.468 F  
HETATM   26  C   UNL     1     -12.612   7.556  71.634  1.00  0.00    -0.376 A  
HETATM   27  C   UNL     1     -11.545   7.386  70.750  1.00  0.00    -0.317 A  
ENDBRANCH  19  21
ENDBRANCH  18  19
ENDBRANCH  17  18
ENDBRANCH  16  17
ENDBRANCH   8  16
TORSDOF 6
ENDMDL
MODEL       54
REMARK 921   NORMALIZED FREE ENERGY PREDICTED BY IDOCK:   -5.90 KCAL/MOL
REMARK 922        TOTAL FREE ENERGY PREDICTED BY IDOCK:   -9.18 KCAL/MOL
REMARK 923 INTER-LIGAND FREE ENERGY PREDICTED BY IDOCK:   -7.95 KCAL/MOL
REMARK 924 INTRA-LIGAND FREE ENERGY PREDICTED BY IDOCK:   -1.22 KCAL/MOL
REMARK 927      BINDING AFFINITY PREDICTED BY RF-SCORE:    0.00 PKD
ROOT
HETATM    1  O   UNL     1      -8.068  10.715  69.897  1.00  0.00    -0.365 OA 
HETATM    2  C   UNL     1      -9.057  10.008  69.127  1.00  0.00    -0.184 C  
HETATM    3  H   UNL     1      -7.401  10.089  70.156  1.00  0.00     0.000 HD 
HETATM    4  C   UNL     1     -10.138  11.022  68.707  1.00  0.00    -0.214 C  
HETATM    5  C   UNL     1      -8.350   9.387  67.906  1.00  0.00    -0.115 C  
HETATM    6  C   UNL     1      -9.621  11.992  67.642  1.00  0.00    -0.188 C  
HETATM    7  C   UNL     1      -7.945  10.437  66.869  1.00  0.00    -0.114 C  
HETATM    8  N   UNL     1      -9.047  11.325  66.466  1.00  0.00    -0.178 NA 
ENDROOT
BRANCH   2   9
HETATM    9  C   UNL     1      -9.649   8.906  70.016  1.00  0.00    -0.190 A  
HETATM   10  C   UNL     1     -10.244   9.207  71.254  1.00  0.00    -0.400 A  
HETATM   11  C   UNL     1      -9.594   7.552  69.631  1.00  0.00    -0.159 A  
HETATM   12  C   UNL     1     -10.658   6.873  71.689  1.00  0.00    -0.209 A  
HETATM   13  C   UNL     1     -10.743   8.202  72.087  1.00  0.00    -0.360 A  
HETATM   14 BR   UNL     1     -11.303   5.510  72.829  1.00  0.00    -0.328 Br 
HETATM   15  C   UNL     1     -10.092   6.542  70.462  1.00  0.00    -0.213 A  
ENDBRANCH   2   9
BRANCH   8  16
HETATM   16  C   UNL     1     -10.038  10.614  65.638  1.00  0.00    -0.272 C  
BRANCH  16  17
HETATM   17  C   UNL     1     -10.537  11.410  64.427  1.00  0.00    -0.403 C  
BRANCH  17  18
HETATM   18  C   UNL     1     -11.991  11.857  64.576  1.00  0.00    -0.281 C  
BRANCH  18  19
HETATM   19  C   UNL     1     -12.137  13.346  64.330  1.00  0.00    -0.424 C  
HETATM   20  O   UNL     1     -12.639  13.807  63.307  1.00  0.00    -0.830 OA 
BRANCH  19  21
HETATM   21  C   UNL     1     -11.606  14.284  65.357  1.00  0.00    -0.346 A  
HETATM   22  C   UNL     1     -12.112  14.187  66.660  1.00  0.00    -0.480 A  
HETATM   23  C   UNL     1     -11.659  15.053  67.654  1.00  0.00    -0.327 A  
HETATM   24  C   UNL     1     -10.695  16.005  67.344  1.00  0.00    -0.306 A  
HETATM   25  F   UNL     1     -10.259  16.837  68.300  1.00  0.00    -0.247 F  
HETATM   26  C   UNL     1     -10.172  16.106  66.058  1.00  0.00    -0.374 A  
HETATM   27  C   UNL     1     -10.629  15.244  65.059  1.00  0.00    -0.444 A  
ENDBRANCH  19  21
ENDBRANCH  18  19
ENDBRANCH  17  18
ENDBRANCH  16  17
ENDBRANCH   8  16
TORSDOF 6
ENDMDL
MODEL       55
REMARK 921   NORMALIZED FREE ENERGY PREDICTED BY IDOCK:   -5.89 KCAL/MOL
REMARK 922        TOTAL FREE ENERGY PREDICTED BY IDOCK:   -9.16 KCAL/MOL
REMARK 923 INTER-LIGAND FREE ENERGY PREDICTED BY IDOCK:   -7.91 KCAL/MOL
REMARK 924 INTRA-LIGAND FREE ENERGY PREDICTED BY IDOCK:   -1.25 KCAL/MOL
REMARK 927      BINDING AFFINITY PREDICTED BY RF-SCORE:    0.00 PKD
ROOT
HETATM    1  O   UNL     1      -8.149  11.221  65.221  1.00  0.00    -0.354 OA 
HETATM    2  C   UNL     1      -9.178  11.228  66.227  1.00  0.00    -0.200 C  
HETATM    3  H   UNL     1      -8.384  10.569  64.571  1.00  0.00     0.000 HD 
HETATM    4  C   UNL     1      -8.798  12.285  67.281  1.00  0.00    -0.190 C  
HETATM    5  C   UNL     1     -10.514  11.565  65.534  1.00  0.00    -0.327 C  
HETATM    6  C   UNL     1      -8.953  13.707  66.738  1.00  0.00    -0.181 C  
HETATM    7  C   UNL     1     -10.592  13.031  65.101  1.00  0.00    -0.312 C  
HETATM    8  N   UNL     1     -10.283  13.983  66.179  1.00  0.00    -0.293 NA 
ENDROOT
BRANCH   2   9
HETATM    9  C   UNL     1      -9.242   9.826  66.848  1.00  0.00    -0.174 A  
HETATM   10  C   UNL     1      -8.207   9.344  67.671  1.00  0.00    -0.114 A  
HETATM   11  C   UNL     1     -10.327   8.965  66.594  1.00  0.00    -0.294 A  
HETATM   12  C   UNL     1      -9.315   7.218  67.918  1.00  0.00    -0.129 A  
HETATM   13  C   UNL     1      -8.240   8.052  68.201  1.00  0.00    -0.126 A  
HETATM   14 BR   UNL     1      -9.344   5.458  68.607  1.00  0.00    -0.159 Br 
HETATM   15  C   UNL     1     -10.363   7.669  67.122  1.00  0.00    -0.385 A  
ENDBRANCH   2   9
BRANCH   8  16
HETATM   16  C   UNL     1     -11.359  14.026  67.187  1.00  0.00    -0.331 C  
BRANCH  16  17
HETATM   17  C   UNL     1     -10.872  13.913  68.635  1.00  0.00    -0.278 C  
BRANCH  17  18
HETATM   18  C   UNL     1     -11.874  13.196  69.539  1.00  0.00    -0.383 C  
BRANCH  18  19
HETATM   19  C   UNL     1     -12.033  11.741  69.141  1.00  0.00    -0.293 C  
HETATM   20  O   UNL     1     -12.354  11.392  68.007  1.00  0.00    -0.444 OA 
BRANCH  19  21
HETATM   21  C   UNL     1     -11.831  10.700  70.185  1.00  0.00    -0.421 A  
HETATM   22  C   UNL     1     -12.908  10.401  71.031  1.00  0.00    -0.494 A  
HETATM   23  C   UNL     1     -12.765   9.444  72.036  1.00  0.00    -0.483 A  
HETATM   24  C   UNL     1     -11.552   8.783  72.183  1.00  0.00    -0.364 A  
HETATM   25  F   UNL     1     -11.416   7.863  73.148  1.00  0.00    -0.450 F  
HETATM   26  C   UNL     1     -10.478   9.058  71.342  1.00  0.00    -0.395 A  
HETATM   27  C   UNL     1     -10.615  10.020  70.340  1.00  0.00    -0.343 A  
ENDBRANCH  19  21
ENDBRANCH  18  19
ENDBRANCH  17  18
ENDBRANCH  16  17
ENDBRANCH   8  16
TORSDOF 6
ENDMDL
MODEL       56
REMARK 921   NORMALIZED FREE ENERGY PREDICTED BY IDOCK:   -5.88 KCAL/MOL
REMARK 922        TOTAL FREE ENERGY PREDICTED BY IDOCK:   -9.16 KCAL/MOL
REMARK 923 INTER-LIGAND FREE ENERGY PREDICTED BY IDOCK:   -8.11 KCAL/MOL
REMARK 924 INTRA-LIGAND FREE ENERGY PREDICTED BY IDOCK:   -1.05 KCAL/MOL
REMARK 927      BINDING AFFINITY PREDICTED BY RF-SCORE:    0.00 PKD
ROOT
HETATM    1  O   UNL     1     -12.546  14.645  68.073  1.00  0.00    -0.457 OA 
HETATM    2  C   UNL     1     -11.191  14.192  67.898  1.00  0.00    -0.279 C  
HETATM    3  H   UNL     1     -12.706  15.333  67.438  1.00  0.00     0.000 HD 
HETATM    4  C   UNL     1     -10.932  13.077  68.928  1.00  0.00    -0.271 C  
HETATM    5  C   UNL     1     -11.048  13.679  66.451  1.00  0.00    -0.307 C  
HETATM    6  C   UNL     1     -11.685  11.793  68.575  1.00  0.00    -0.330 C  
HETATM    7  C   UNL     1     -11.776  12.351  66.229  1.00  0.00    -0.395 C  
HETATM    8  N   UNL     1     -11.425  11.313  67.211  1.00  0.00    -0.510 NA 
ENDROOT
BRANCH   2   9
HETATM    9  C   UNL     1     -10.259  15.389  68.132  1.00  0.00    -0.230 A  
HETATM   10  C   UNL     1     -10.708  16.710  67.957  1.00  0.00    -0.350 A  
HETATM   11  C   UNL     1      -8.913  15.201  68.505  1.00  0.00    -0.186 A  
HETATM   12  C   UNL     1      -8.522  17.584  68.474  1.00  0.00    -0.280 A  
HETATM   13  C   UNL     1      -9.850  17.800  68.124  1.00  0.00    -0.326 A  
HETATM   14 BR   UNL     1      -7.352  19.055  68.668  1.00  0.00    -0.363 Br 
HETATM   15  C   UNL     1      -8.050  16.290  68.672  1.00  0.00    -0.213 A  
ENDBRANCH   2   9
BRANCH   8  16
HETATM   16  C   UNL     1     -10.053  10.815  67.004  1.00  0.00    -0.208 C  
BRANCH  16  17
HETATM   17  C   UNL     1      -9.967   9.521  66.187  1.00  0.00    -0.342 C  
BRANCH  17  18
HETATM   18  C   UNL     1      -9.382   8.358  66.987  1.00  0.00    -0.202 C  
BRANCH  18  19
HETATM   19  C   UNL     1     -10.472   7.553  67.666  1.00  0.00    -0.250 C  
HETATM   20  O   UNL     1     -11.252   6.832  67.048  1.00  0.00    -0.393 OA 
BRANCH  19  21
HETATM   21  C   UNL     1     -10.627   7.682  69.141  1.00  0.00    -0.195 A  
HETATM   22  C   UNL     1     -11.373   6.704  69.812  1.00  0.00    -0.412 A  
HETATM   23  C   UNL     1     -11.561   6.789  71.191  1.00  0.00    -0.377 A  
HETATM   24  C   UNL     1     -10.993   7.845  71.895  1.00  0.00    -0.256 A  
HETATM   25  F   UNL     1     -11.173   7.925  73.221  1.00  0.00    -0.449 F  
HETATM   26  C   UNL     1     -10.237   8.816  71.246  1.00  0.00    -0.332 A  
HETATM   27  C   UNL     1     -10.053   8.738  69.864  1.00  0.00    -0.197 A  
ENDBRANCH  19  21
ENDBRANCH  18  19
ENDBRANCH  17  18
ENDBRANCH  16  17
ENDBRANCH   8  16
TORSDOF 6
ENDMDL
MODEL       57
REMARK 921   NORMALIZED FREE ENERGY PREDICTED BY IDOCK:   -5.88 KCAL/MOL
REMARK 922        TOTAL FREE ENERGY PREDICTED BY IDOCK:   -9.16 KCAL/MOL
REMARK 923 INTER-LIGAND FREE ENERGY PREDICTED BY IDOCK:   -7.54 KCAL/MOL
REMARK 924 INTRA-LIGAND FREE ENERGY PREDICTED BY IDOCK:   -1.62 KCAL/MOL
REMARK 927      BINDING AFFINITY PREDICTED BY RF-SCORE:    0.00 PKD
ROOT
HETATM    1  O   UNL     1     -12.694  14.515  66.842  1.00  0.00    -0.418 OA 
HETATM    2  C   UNL     1     -11.416  14.495  66.180  1.00  0.00    -0.357 C  
HETATM    3  H   UNL     1     -13.119  15.337  66.627  1.00  0.00     0.000 HD 
HETATM    4  C   UNL     1     -10.727  13.162  66.529  1.00  0.00    -0.288 C  
HETATM    5  C   UNL     1     -11.669  14.629  64.664  1.00  0.00    -0.431 C  
HETATM    6  C   UNL     1     -11.402  11.977  65.835  1.00  0.00    -0.337 C  
HETATM    7  C   UNL     1     -12.273  13.359  64.060  1.00  0.00    -0.405 C  
HETATM    8  N   UNL     1     -11.521  12.136  64.380  1.00  0.00    -0.336 NA 
ENDROOT
BRANCH   2   9
HETATM    9  C   UNL     1     -10.599  15.690  66.689  1.00  0.00    -0.307 A  
HETATM   10  C   UNL     1      -9.500  16.185  65.965  1.00  0.00    -0.374 A  
HETATM   11  C   UNL     1     -10.909  16.315  67.913  1.00  0.00    -0.330 A  
HETATM   12  C   UNL     1      -9.043  17.828  67.669  1.00  0.00    -0.246 A  
HETATM   13  C   UNL     1      -8.726  17.243  66.448  1.00  0.00    -0.285 A  
HETATM   14 BR   UNL     1      -7.978  19.238  68.338  1.00  0.00    -0.385 Br 
HETATM   15  C   UNL     1     -10.136  17.374  68.402  1.00  0.00    -0.347 A  
ENDBRANCH   2   9
BRANCH   8  16
HETATM   16  C   UNL     1     -10.232  12.091  63.665  1.00  0.00    -0.444 C  
BRANCH  16  17
HETATM   17  C   UNL     1      -9.796  10.687  63.235  1.00  0.00    -0.364 C  
BRANCH  17  18
HETATM   18  C   UNL     1      -8.346  10.380  63.608  1.00  0.00    -0.153 C  
BRANCH  18  19
HETATM   19  C   UNL     1      -8.261   9.216  64.575  1.00  0.00    -0.152 C  
HETATM   20  O   UNL     1      -7.801   8.120  64.262  1.00  0.00    -0.124 OA 
BRANCH  19  21
HETATM   21  C   UNL     1      -8.799   9.403  65.951  1.00  0.00    -0.193 A  
HETATM   22  C   UNL     1      -9.882   8.607  66.347  1.00  0.00    -0.341 A  
HETATM   23  C   UNL     1     -10.433   8.755  67.619  1.00  0.00    -0.310 A  
HETATM   24  C   UNL     1      -9.893   9.690  68.493  1.00  0.00    -0.157 A  
HETATM   25  F   UNL     1     -10.423   9.831  69.716  1.00  0.00    -0.201 F  
HETATM   26  C   UNL     1      -8.809  10.479  68.121  1.00  0.00    -0.134 A  
HETATM   27  C   UNL     1      -8.259  10.338  66.845  1.00  0.00    -0.123 A  
ENDBRANCH  19  21
ENDBRANCH  18  19
ENDBRANCH  17  18
ENDBRANCH  16  17
ENDBRANCH   8  16
TORSDOF 6
ENDMDL
MODEL       58
REMARK 921   NORMALIZED FREE ENERGY PREDICTED BY IDOCK:   -5.87 KCAL/MOL
REMARK 922        TOTAL FREE ENERGY PREDICTED BY IDOCK:   -9.14 KCAL/MOL
REMARK 923 INTER-LIGAND FREE ENERGY PREDICTED BY IDOCK:   -8.23 KCAL/MOL
REMARK 924 INTRA-LIGAND FREE ENERGY PREDICTED BY IDOCK:   -0.92 KCAL/MOL
REMARK 927      BINDING AFFINITY PREDICTED BY RF-SCORE:    0.00 PKD
ROOT
HETATM    1  O   UNL     1     -11.103   8.652  67.478  1.00  0.00    -0.457 OA 
HETATM    2  C   UNL     1     -10.455   9.460  68.477  1.00  0.00    -0.208 C  
HETATM    3  H   UNL     1     -11.976   8.446  67.794  1.00  0.00     0.000 HD 
HETATM    4  C   UNL     1      -9.041   9.794  67.966  1.00  0.00    -0.127 C  
HETATM    5  C   UNL     1     -11.305  10.731  68.681  1.00  0.00    -0.356 C  
HETATM    6  C   UNL     1      -9.079  10.791  66.806  1.00  0.00    -0.154 C  
HETATM    7  C   UNL     1     -11.208  11.693  67.495  1.00  0.00    -0.293 C  
HETATM    8  N   UNL     1      -9.826  12.019  67.108  1.00  0.00    -0.195 NA 
ENDROOT
BRANCH   2   9
HETATM    9  C   UNL     1     -10.395   8.647  69.778  1.00  0.00    -0.212 A  
HETATM   10  C   UNL     1     -10.597   7.255  69.778  1.00  0.00    -0.247 A  
HETATM   11  C   UNL     1     -10.161   9.273  71.018  1.00  0.00    -0.384 A  
HETATM   12  C   UNL     1     -10.375   7.165  72.177  1.00  0.00    -0.195 A  
HETATM   13  C   UNL     1     -10.589   6.518  70.965  1.00  0.00    -0.275 A  
HETATM   14 BR   UNL     1     -10.396   6.175  73.786  1.00  0.00    -0.310 Br 
HETATM   15  C   UNL     1     -10.154   8.539  72.209  1.00  0.00    -0.386 A  
ENDBRANCH   2   9
BRANCH   8  16
HETATM   16  C   UNL     1      -9.176  12.885  68.108  1.00  0.00    -0.212 C  
BRANCH  16  17
HETATM   17  C   UNL     1      -8.743  14.254  67.572  1.00  0.00    -0.204 C  
BRANCH  17  18
HETATM   18  C   UNL     1      -9.790  14.885  66.655  1.00  0.00    -0.272 C  
BRANCH  18  19
HETATM   19  C   UNL     1     -10.727  15.790  67.429  1.00  0.00    -0.317 C  
HETATM   20  O   UNL     1     -11.737  15.377  67.997  1.00  0.00    -0.336 OA 
BRANCH  19  21
HETATM   21  C   UNL     1     -10.430  17.248  67.463  1.00  0.00    -0.356 A  
HETATM   22  C   UNL     1     -10.600  17.981  66.280  1.00  0.00    -0.262 A  
HETATM   23  C   UNL     1     -10.319  19.347  66.255  1.00  0.00    -0.584 A  
HETATM   24  C   UNL     1      -9.880  19.976  67.414  1.00  0.00    -0.422 A  
HETATM   25  F   UNL     1      -9.611  21.288  67.389  1.00  0.00    -0.583 F  
HETATM   26  C   UNL     1      -9.719  19.265  68.600  1.00  0.00    -0.494 A  
HETATM   27  C   UNL     1      -9.993  17.897  68.627  1.00  0.00    -0.387 A  
ENDBRANCH  19  21
ENDBRANCH  18  19
ENDBRANCH  17  18
ENDBRANCH  16  17
ENDBRANCH   8  16
TORSDOF 6
ENDMDL
MODEL       59
REMARK 921   NORMALIZED FREE ENERGY PREDICTED BY IDOCK:   -5.83 KCAL/MOL
REMARK 922        TOTAL FREE ENERGY PREDICTED BY IDOCK:   -9.09 KCAL/MOL
REMARK 923 INTER-LIGAND FREE ENERGY PREDICTED BY IDOCK:   -7.11 KCAL/MOL
REMARK 924 INTRA-LIGAND FREE ENERGY PREDICTED BY IDOCK:   -1.98 KCAL/MOL
REMARK 927      BINDING AFFINITY PREDICTED BY RF-SCORE:    0.00 PKD
ROOT
HETATM    1  O   UNL     1     -10.604  14.385  69.457  1.00  0.00    -0.395 OA 
HETATM    2  C   UNL     1     -11.070  13.278  68.665  1.00  0.00    -0.268 C  
HETATM    3  H   UNL     1      -9.994  14.045  70.101  1.00  0.00     0.000 HD 
HETATM    4  C   UNL     1     -12.059  13.830  67.621  1.00  0.00    -0.333 C  
HETATM    5  C   UNL     1      -9.842  12.623  68.001  1.00  0.00    -0.218 C  
HETATM    6  C   UNL     1     -11.345  14.643  66.540  1.00  0.00    -0.353 C  
HETATM    7  C   UNL     1      -9.255  13.487  66.882  1.00  0.00    -0.249 C  
HETATM    8  N   UNL     1     -10.247  13.919  65.885  1.00  0.00    -0.306 NA 
ENDROOT
BRANCH   2   9
HETATM    9  C   UNL     1     -11.760  12.280  69.606  1.00  0.00    -0.386 A  
HETATM   10  C   UNL     1     -12.464  12.716  70.743  1.00  0.00    -0.357 A  
HETATM   11  C   UNL     1     -11.688  10.892  69.376  1.00  0.00    -0.397 A  
HETATM   12  C   UNL     1     -12.951  10.444  71.384  1.00  0.00    -0.443 A  
HETATM   13  C   UNL     1     -13.054  11.809  71.627  1.00  0.00    -0.443 A  
HETATM   14 BR   UNL     1     -13.720   9.215  72.596  1.00  0.00    -0.288 Br 
HETATM   15  C   UNL     1     -12.276   9.980  70.259  1.00  0.00    -0.186 A  
ENDBRANCH   2   9
BRANCH   8  16
HETATM   16  C   UNL     1     -10.691  12.794  65.042  1.00  0.00    -0.296 C  
BRANCH  16  17
HETATM   17  C   UNL     1      -9.623  11.720  64.809  1.00  0.00    -0.110 C  
BRANCH  17  18
HETATM   18  C   UNL     1     -10.094  10.323  65.214  1.00  0.00    -0.359 C  
BRANCH  18  19
HETATM   19  C   UNL     1      -8.997   9.555  65.923  1.00  0.00    -0.173 C  
HETATM   20  O   UNL     1      -7.835   9.529  65.523  1.00  0.00    -0.104 OA 
BRANCH  19  21
HETATM   21  C   UNL     1      -9.359   8.766  67.132  1.00  0.00    -0.188 A  
HETATM   22  C   UNL     1      -8.580   8.934  68.285  1.00  0.00    -0.134 A  
HETATM   23  C   UNL     1      -8.869   8.206  69.438  1.00  0.00    -0.143 A  
HETATM   24  C   UNL     1      -9.940   7.321  69.438  1.00  0.00    -0.170 A  
HETATM   25  F   UNL     1     -10.217   6.622  70.548  1.00  0.00    -0.193 F  
HETATM   26  C   UNL     1     -10.732   7.152  68.306  1.00  0.00    -0.202 A  
HETATM   27  C   UNL     1     -10.442   7.875  67.148  1.00  0.00    -0.414 A  
ENDBRANCH  19  21
ENDBRANCH  18  19
ENDBRANCH  17  18
ENDBRANCH  16  17
ENDBRANCH   8  16
TORSDOF 6
ENDMDL
MODEL       60
REMARK 921   NORMALIZED FREE ENERGY PREDICTED BY IDOCK:   -5.83 KCAL/MOL
REMARK 922        TOTAL FREE ENERGY PREDICTED BY IDOCK:   -9.09 KCAL/MOL
REMARK 923 INTER-LIGAND FREE ENERGY PREDICTED BY IDOCK:   -7.94 KCAL/MOL
REMARK 924 INTRA-LIGAND FREE ENERGY PREDICTED BY IDOCK:   -1.14 KCAL/MOL
REMARK 927      BINDING AFFINITY PREDICTED BY RF-SCORE:    0.00 PKD
ROOT
HETATM    1  O   UNL     1     -11.368   7.934  70.049  1.00  0.00    -0.436 OA 
HETATM    2  C   UNL     1     -10.822   9.101  70.689  1.00  0.00    -0.264 C  
HETATM    3  H   UNL     1     -11.689   7.353  70.729  1.00  0.00     0.000 HD 
HETATM    4  C   UNL     1     -10.301  10.042  69.587  1.00  0.00    -0.274 C  
HETATM    5  C   UNL     1     -11.948   9.756  71.515  1.00  0.00    -0.488 C  
HETATM    6  C   UNL     1     -11.447  10.684  68.802  1.00  0.00    -0.262 C  
HETATM    7  C   UNL     1     -12.999  10.435  70.633  1.00  0.00    -0.283 C  
HETATM    8  N   UNL     1     -12.430  11.371  69.651  1.00  0.00    -0.142 NA 
ENDROOT
BRANCH   2   9
HETATM    9  C   UNL     1      -9.683   8.646  71.612  1.00  0.00    -0.348 A  
HETATM   10  C   UNL     1      -9.946   8.089  72.877  1.00  0.00    -0.360 A  
HETATM   11  C   UNL     1      -8.335   8.795  71.232  1.00  0.00    -0.225 A  
HETATM   12  C   UNL     1      -7.589   7.892  73.343  1.00  0.00    -0.144 A  
HETATM   13  C   UNL     1      -8.911   7.716  73.738  1.00  0.00    -0.305 A  
HETATM   14 BR   UNL     1      -6.189   7.419  74.520  1.00  0.00    -0.082 Br 
HETATM   15  C   UNL     1      -7.295   8.424  72.092  1.00  0.00    -0.127 A  
ENDBRANCH   2   9
BRANCH   8  16
HETATM   16  C   UNL     1     -11.913  12.589  70.301  1.00  0.00    -0.283 C  
BRANCH  16  17
HETATM   17  C   UNL     1     -12.149  13.878  69.507  1.00  0.00    -0.393 C  
BRANCH  17  18
HETATM   18  C   UNL     1     -10.862  14.441  68.903  1.00  0.00    -0.266 C  
BRANCH  18  19
HETATM   19  C   UNL     1     -11.098  14.972  67.503  1.00  0.00    -0.317 C  
HETATM   20  O   UNL     1     -11.147  16.172  67.244  1.00  0.00    -0.231 OA 
BRANCH  19  21
HETATM   21  C   UNL     1     -11.324  13.990  66.407  1.00  0.00    -0.338 A  
HETATM   22  C   UNL     1     -10.229  13.233  65.966  1.00  0.00    -0.291 A  
HETATM   23  C   UNL     1     -10.385  12.312  64.932  1.00  0.00    -0.319 A  
HETATM   24  C   UNL     1     -11.636  12.143  64.349  1.00  0.00    -0.350 A  
HETATM   25  F   UNL     1     -11.785  11.256  63.355  1.00  0.00    -0.446 F  
HETATM   26  C   UNL     1     -12.736  12.876  64.785  1.00  0.00    -0.442 A  
HETATM   27  C   UNL     1     -12.582  13.804  65.816  1.00  0.00    -0.525 A  
ENDBRANCH  19  21
ENDBRANCH  18  19
ENDBRANCH  17  18
ENDBRANCH  16  17
ENDBRANCH   8  16
TORSDOF 6
ENDMDL
MODEL       61
REMARK 921   NORMALIZED FREE ENERGY PREDICTED BY IDOCK:   -5.81 KCAL/MOL
REMARK 922        TOTAL FREE ENERGY PREDICTED BY IDOCK:   -9.06 KCAL/MOL
REMARK 923 INTER-LIGAND FREE ENERGY PREDICTED BY IDOCK:   -6.95 KCAL/MOL
REMARK 924 INTRA-LIGAND FREE ENERGY PREDICTED BY IDOCK:   -2.11 KCAL/MOL
REMARK 927      BINDING AFFINITY PREDICTED BY RF-SCORE:    0.00 PKD
ROOT
HETATM    1  O   UNL     1      -9.499  13.699  65.544  1.00  0.00    -0.504 OA 
HETATM    2  C   UNL     1      -9.945  12.434  66.064  1.00  0.00    -0.255 C  
HETATM    3  H   UNL     1      -9.779  13.755  64.637  1.00  0.00     0.000 HD 
HETATM    4  C   UNL     1      -9.491  12.344  67.534  1.00  0.00    -0.187 C  
HETATM    5  C   UNL     1     -11.482  12.387  65.936  1.00  0.00    -0.422 C  
HETATM    6  C   UNL     1     -10.287  13.294  68.432  1.00  0.00    -0.251 C  
HETATM    7  C   UNL     1     -12.179  13.316  66.933  1.00  0.00    -0.257 C  
HETATM    8  N   UNL     1     -11.743  13.124  68.325  1.00  0.00    -0.330 NA 
ENDROOT
BRANCH   2   9
HETATM    9  C   UNL     1      -9.308  11.323  65.220  1.00  0.00    -0.225 A  
HETATM   10  C   UNL     1      -9.888  10.901  64.010  1.00  0.00    -0.377 A  
HETATM   11  C   UNL     1      -8.133  10.670  65.642  1.00  0.00    -0.146 A  
HETATM   12  C   UNL     1      -8.186   9.220  63.712  1.00  0.00    -0.166 A  
HETATM   13  C   UNL     1      -9.336   9.859  63.261  1.00  0.00    -0.221 A  
HETATM   14 BR   UNL     1      -7.457   7.789  62.717  1.00  0.00    -0.117 Br 
HETATM   15  C   UNL     1      -7.577   9.624  64.896  1.00  0.00    -0.117 A  
ENDBRANCH   2   9
BRANCH   8  16
HETATM   16  C   UNL     1     -12.239  11.849  68.875  1.00  0.00    -0.006 C  
BRANCH  16  17
HETATM   17  C   UNL     1     -11.811  11.576  70.321  1.00  0.00    -0.431 C  
BRANCH  17  18
HETATM   18  C   UNL     1     -11.756  10.084  70.647  1.00  0.00    -0.421 C  
BRANCH  18  19
HETATM   19  C   UNL     1     -10.472   9.457  70.141  1.00  0.00    -0.240 C  
HETATM   20  O   UNL     1      -9.360   9.806  70.531  1.00  0.00    -0.219 OA 
BRANCH  19  21
HETATM   21  C   UNL     1     -10.569   8.405  69.092  1.00  0.00    -0.177 A  
HETATM   22  C   UNL     1     -10.869   7.097  69.498  1.00  0.00    -0.244 A  
HETATM   23  C   UNL     1     -10.955   6.073  68.556  1.00  0.00    -0.350 A  
HETATM   24  C   UNL     1     -10.753   6.362  67.212  1.00  0.00    -0.353 A  
HETATM   25  F   UNL     1     -10.837   5.376  66.307  1.00  0.00    -0.315 F  
HETATM   26  C   UNL     1     -10.469   7.657  66.790  1.00  0.00    -0.319 A  
HETATM   27  C   UNL     1     -10.375   8.684  67.732  1.00  0.00    -0.303 A  
ENDBRANCH  19  21
ENDBRANCH  18  19
ENDBRANCH  17  18
ENDBRANCH  16  17
ENDBRANCH   8  16
TORSDOF 6
ENDMDL
MODEL       62
REMARK 921   NORMALIZED FREE ENERGY PREDICTED BY IDOCK:   -5.77 KCAL/MOL
REMARK 922        TOTAL FREE ENERGY PREDICTED BY IDOCK:   -9.00 KCAL/MOL
REMARK 923 INTER-LIGAND FREE ENERGY PREDICTED BY IDOCK:   -7.76 KCAL/MOL
REMARK 924 INTRA-LIGAND FREE ENERGY PREDICTED BY IDOCK:   -1.24 KCAL/MOL
REMARK 927      BINDING AFFINITY PREDICTED BY RF-SCORE:    0.00 PKD
ROOT
HETATM    1  O   UNL     1     -12.611  14.365  66.732  1.00  0.00    -0.540 OA 
HETATM    2  C   UNL     1     -11.306  14.313  66.129  1.00  0.00    -0.342 C  
HETATM    3  H   UNL     1     -12.993  15.210  66.523  1.00  0.00     0.000 HD 
HETATM    4  C   UNL     1     -10.687  12.943  66.468  1.00  0.00    -0.285 C  
HETATM    5  C   UNL     1     -11.481  14.501  64.608  1.00  0.00    -0.389 C  
HETATM    6  C   UNL     1     -11.374  11.807  65.707  1.00  0.00    -0.250 C  
HETATM    7  C   UNL     1     -12.106  13.275  63.937  1.00  0.00    -0.468 C  
HETATM    8  N   UNL     1     -11.418  12.013  64.253  1.00  0.00    -0.353 NA 
ENDROOT
BRANCH   2   9
HETATM    9  C   UNL     1     -10.468  15.458  66.713  1.00  0.00    -0.299 A  
HETATM   10  C   UNL     1     -10.856  16.119  67.892  1.00  0.00    -0.332 A  
HETATM   11  C   UNL     1      -9.294  15.902  66.072  1.00  0.00    -0.385 A  
HETATM   12  C   UNL     1      -8.977  17.620  67.738  1.00  0.00    -0.247 A  
HETATM   13  C   UNL     1     -10.120  17.192  68.402  1.00  0.00    -0.314 A  
HETATM   14 BR   UNL     1      -7.999  19.092  68.408  1.00  0.00    -0.387 Br 
HETATM   15  C   UNL     1      -8.555  16.977  66.578  1.00  0.00    -0.305 A  
ENDBRANCH   2   9
BRANCH   8  16
HETATM   16  C   UNL     1     -10.100  11.937  63.597  1.00  0.00    -0.426 C  
BRANCH  16  17
HETATM   17  C   UNL     1      -9.574  10.512  63.401  1.00  0.00    -0.376 C  
BRANCH  17  18
HETATM   18  C   UNL     1      -8.216  10.288  64.067  1.00  0.00    -0.151 C  
BRANCH  18  19
HETATM   19  C   UNL     1      -8.369  10.028  65.553  1.00  0.00    -0.148 C  
HETATM   20  O   UNL     1      -7.944  10.797  66.412  1.00  0.00    -0.139 OA 
BRANCH  19  21
HETATM   21  C   UNL     1      -9.023   8.761  65.981  1.00  0.00    -0.235 A  
HETATM   22  C   UNL     1      -8.508   7.555  65.486  1.00  0.00    -0.129 A  
HETATM   23  C   UNL     1      -9.096   6.343  65.845  1.00  0.00    -0.074 A  
HETATM   24  C   UNL     1     -10.187   6.340  66.706  1.00  0.00    -0.202 A  
HETATM   25  F   UNL     1     -10.750   5.173  67.051  1.00  0.00    -0.267 F  
HETATM   26  C   UNL     1     -10.701   7.527  67.217  1.00  0.00    -0.365 A  
HETATM   27  C   UNL     1     -10.119   8.744  66.855  1.00  0.00    -0.348 A  
ENDBRANCH  19  21
ENDBRANCH  18  19
ENDBRANCH  17  18
ENDBRANCH  16  17
ENDBRANCH   8  16
TORSDOF 6
ENDMDL
MODEL       63
REMARK 921   NORMALIZED FREE ENERGY PREDICTED BY IDOCK:   -5.75 KCAL/MOL
REMARK 922        TOTAL FREE ENERGY PREDICTED BY IDOCK:   -8.98 KCAL/MOL
REMARK 923 INTER-LIGAND FREE ENERGY PREDICTED BY IDOCK:   -7.41 KCAL/MOL
REMARK 924 INTRA-LIGAND FREE ENERGY PREDICTED BY IDOCK:   -1.57 KCAL/MOL
REMARK 927      BINDING AFFINITY PREDICTED BY RF-SCORE:    0.00 PKD
ROOT
HETATM    1  O   UNL     1     -13.088  10.738  72.573  1.00  0.00    -0.395 OA 
HETATM    2  C   UNL     1     -12.559  10.180  71.356  1.00  0.00    -0.422 C  
HETATM    3  H   UNL     1     -13.878  11.216  72.352  1.00  0.00     0.000 HD 
HETATM    4  C   UNL     1     -11.277   9.404  71.713  1.00  0.00    -0.359 C  
HETATM    5  C   UNL     1     -13.637   9.256  70.753  1.00  0.00     0.164 C  
HETATM    6  C   UNL     1     -11.588   8.117  72.479  1.00  0.00    -0.404 C  
HETATM    7  C   UNL     1     -13.812   7.964  71.554  1.00  0.00    -0.342 C  
HETATM    8  N   UNL     1     -12.552   7.243  71.796  1.00  0.00    -0.340 NA 
ENDROOT
BRANCH   2   9
HETATM    9  C   UNL     1     -12.255  11.338  70.397  1.00  0.00    -0.453 A  
HETATM   10  C   UNL     1     -12.379  12.678  70.808  1.00  0.00    -0.372 A  
HETATM   11  C   UNL     1     -11.866  11.098  69.064  1.00  0.00    -0.418 A  
HETATM   12  C   UNL     1     -11.784  13.468  68.610  1.00  0.00    -0.354 A  
HETATM   13  C   UNL     1     -12.147  13.735  69.924  1.00  0.00    -0.412 A  
HETATM   14 BR   UNL     1     -11.502  14.897  67.405  1.00  0.00    -0.332 Br 
HETATM   15  C   UNL     1     -11.635  12.154  68.175  1.00  0.00    -0.397 A  
ENDBRANCH   2   9
BRANCH   8  16
HETATM   16  C   UNL     1     -12.033   6.631  70.559  1.00  0.00    -0.316 C  
BRANCH  16  17
HETATM   17  C   UNL     1     -10.568   6.192  70.638  1.00  0.00    -0.307 C  
BRANCH  17  18
HETATM   18  C   UNL     1     -10.040   5.659  69.306  1.00  0.00    -0.281 C  
BRANCH  18  19
HETATM   19  C   UNL     1     -10.406   6.582  68.160  1.00  0.00    -0.187 C  
HETATM   20  O   UNL     1     -11.201   6.266  67.277  1.00  0.00    -0.332 OA 
BRANCH  19  21
HETATM   21  C   UNL     1      -9.736   7.909  68.083  1.00  0.00    -0.177 A  
HETATM   22  C   UNL     1      -9.902   8.663  66.913  1.00  0.00    -0.305 A  
HETATM   23  C   UNL     1      -9.281   9.905  66.786  1.00  0.00    -0.176 A  
HETATM   24  C   UNL     1      -8.508  10.393  67.832  1.00  0.00    -0.114 A  
HETATM   25  F   UNL     1      -7.913  11.588  67.709  1.00  0.00    -0.111 F  
HETATM   26  C   UNL     1      -8.345   9.664  69.006  1.00  0.00    -0.122 A  
HETATM   27  C   UNL     1      -8.959   8.417  69.134  1.00  0.00    -0.147 A  
ENDBRANCH  19  21
ENDBRANCH  18  19
ENDBRANCH  17  18
ENDBRANCH  16  17
ENDBRANCH   8  16
TORSDOF 6
ENDMDL
MODEL       64
REMARK 921   NORMALIZED FREE ENERGY PREDICTED BY IDOCK:   -5.73 KCAL/MOL
REMARK 922        TOTAL FREE ENERGY PREDICTED BY IDOCK:   -8.95 KCAL/MOL
REMARK 923 INTER-LIGAND FREE ENERGY PREDICTED BY IDOCK:   -8.08 KCAL/MOL
REMARK 924 INTRA-LIGAND FREE ENERGY PREDICTED BY IDOCK:   -0.87 KCAL/MOL
REMARK 927      BINDING AFFINITY PREDICTED BY RF-SCORE:    0.00 PKD
ROOT
HETATM    1  O   UNL     1      -7.252  18.623  69.225  1.00  0.00    -0.239 OA 
HETATM    2  C   UNL     1      -7.816  18.080  68.018  1.00  0.00    -0.256 C  
HETATM    3  H   UNL     1      -7.440  19.554  69.239  1.00  0.00     0.000 HD 
HETATM    4  C   UNL     1      -7.511  16.570  67.994  1.00  0.00    -0.162 C  
HETATM    5  C   UNL     1      -9.334  18.357  68.039  1.00  0.00    -0.304 C  
HETATM    6  C   UNL     1      -8.336  15.809  69.035  1.00  0.00    -0.236 C  
HETATM    7  C   UNL     1     -10.070  17.487  69.061  1.00  0.00    -0.291 C  
HETATM    8  N   UNL     1      -9.781  16.050  68.932  1.00  0.00    -0.220 NA 
ENDROOT
BRANCH   2   9
HETATM    9  C   UNL     1      -7.164  18.795  66.827  1.00  0.00    -0.228 A  
HETATM   10  C   UNL     1      -7.292  20.184  66.649  1.00  0.00    -0.304 A  
HETATM   11  C   UNL     1      -6.435  18.078  65.857  1.00  0.00    -0.305 A  
HETATM   12  C   UNL     1      -6.040  20.096  64.591  1.00  0.00    -0.270 A  
HETATM   13  C   UNL     1      -6.737  20.832  65.542  1.00  0.00    -0.146 A  
HETATM   14 BR   UNL     1      -5.318  20.965  63.077  1.00  0.00    -0.257 Br 
HETATM   15  C   UNL     1      -5.880  18.722  64.746  1.00  0.00    -0.290 A  
ENDBRANCH   2   9
BRANCH   8  16
HETATM   16  C   UNL     1     -10.398  15.482  67.719  1.00  0.00    -0.263 C  
BRANCH  16  17
HETATM   17  C   UNL     1     -11.839  14.996  67.912  1.00  0.00    -0.243 C  
BRANCH  17  18
HETATM   18  C   UNL     1     -12.024  13.531  67.517  1.00  0.00    -0.385 C  
BRANCH  18  19
HETATM   19  C   UNL     1     -12.187  13.382  66.017  1.00  0.00    -0.437 C  
HETATM   20  O   UNL     1     -13.007  14.027  65.368  1.00  0.00    -0.726 OA 
BRANCH  19  21
HETATM   21  C   UNL     1     -11.344  12.375  65.315  1.00  0.00    -0.374 A  
HETATM   22  C   UNL     1     -11.191  12.498  63.927  1.00  0.00    -0.496 A  
HETATM   23  C   UNL     1     -10.425  11.572  63.222  1.00  0.00    -0.421 A  
HETATM   24  C   UNL     1      -9.806  10.533  63.906  1.00  0.00    -0.310 A  
HETATM   25  F   UNL     1      -9.069   9.644  63.227  1.00  0.00    -0.239 F  
HETATM   26  C   UNL     1      -9.935  10.405  65.286  1.00  0.00    -0.376 A  
HETATM   27  C   UNL     1     -10.707  11.327  65.995  1.00  0.00    -0.301 A  
ENDBRANCH  19  21
ENDBRANCH  18  19
ENDBRANCH  17  18
ENDBRANCH  16  17
ENDBRANCH   8  16
TORSDOF 6
ENDMDL
MODEL       65
REMARK 921   NORMALIZED FREE ENERGY PREDICTED BY IDOCK:   -5.71 KCAL/MOL
REMARK 922        TOTAL FREE ENERGY PREDICTED BY IDOCK:   -8.92 KCAL/MOL
REMARK 923 INTER-LIGAND FREE ENERGY PREDICTED BY IDOCK:   -7.41 KCAL/MOL
REMARK 924 INTRA-LIGAND FREE ENERGY PREDICTED BY IDOCK:   -1.52 KCAL/MOL
REMARK 927      BINDING AFFINITY PREDICTED BY RF-SCORE:    0.00 PKD
ROOT
HETATM    1  O   UNL     1      -7.232   8.544  67.456  1.00  0.00    -0.082 OA 
HETATM    2  C   UNL     1      -8.604   8.951  67.306  1.00  0.00    -0.118 C  
HETATM    3  H   UNL     1      -7.224   7.608  67.621  1.00  0.00     0.000 HD 
HETATM    4  C   UNL     1      -8.618  10.468  67.039  1.00  0.00    -0.127 C  
HETATM    5  C   UNL     1      -9.205   8.158  66.127  1.00  0.00    -0.230 C  
HETATM    6  C   UNL     1      -8.089  10.803  65.643  1.00  0.00    -0.112 C  
HETATM    7  C   UNL     1      -8.665   8.627  64.774  1.00  0.00    -0.063 C  
HETATM    8  N   UNL     1      -8.775  10.079  64.564  1.00  0.00    -0.179 NA 
ENDROOT
BRANCH   2   9
HETATM    9  C   UNL     1      -9.344   8.611  68.606  1.00  0.00    -0.142 A  
HETATM   10  C   UNL     1      -9.739   9.618  69.506  1.00  0.00    -0.216 A  
HETATM   11  C   UNL     1      -9.630   7.276  68.955  1.00  0.00    -0.143 A  
HETATM   12  C   UNL     1     -10.624   7.982  71.039  1.00  0.00    -0.213 A  
HETATM   13  C   UNL     1     -10.373   9.309  70.712  1.00  0.00    -0.348 A  
HETATM   14 BR   UNL     1     -11.451   7.561  72.685  1.00  0.00    -0.350 Br 
HETATM   15  C   UNL     1     -10.262   6.963  70.163  1.00  0.00    -0.208 A  
ENDBRANCH   2   9
BRANCH   8  16
HETATM   16  C   UNL     1     -10.176  10.491  64.363  1.00  0.00    -0.267 C  
BRANCH  16  17
HETATM   17  C   UNL     1     -10.366  11.593  63.316  1.00  0.00    -0.444 C  
BRANCH  17  18
HETATM   18  C   UNL     1     -10.873  12.901  63.923  1.00  0.00    -0.402 C  
BRANCH  18  19
HETATM   19  C   UNL     1     -12.100  12.670  64.783  1.00  0.00    -0.436 C  
HETATM   20  O   UNL     1     -13.180  12.311  64.320  1.00  0.00    -0.785 OA 
BRANCH  19  21
HETATM   21  C   UNL     1     -11.995  12.935  66.244  1.00  0.00    -0.472 A  
HETATM   22  C   UNL     1     -12.022  14.268  66.674  1.00  0.00    -0.454 A  
HETATM   23  C   UNL     1     -11.911  14.569  68.031  1.00  0.00    -0.350 A  
HETATM   24  C   UNL     1     -11.784  13.536  68.952  1.00  0.00    -0.339 A  
HETATM   25  F   UNL     1     -11.679  13.827  70.257  1.00  0.00    -0.331 F  
HETATM   26  C   UNL     1     -11.770  12.207  68.543  1.00  0.00    -0.382 A  
HETATM   27  C   UNL     1     -11.875  11.902  67.184  1.00  0.00    -0.216 A  
ENDBRANCH  19  21
ENDBRANCH  18  19
ENDBRANCH  17  18
ENDBRANCH  16  17
ENDBRANCH   8  16
TORSDOF 6
ENDMDL
MODEL       66
REMARK 921   NORMALIZED FREE ENERGY PREDICTED BY IDOCK:   -5.70 KCAL/MOL
REMARK 922        TOTAL FREE ENERGY PREDICTED BY IDOCK:   -8.91 KCAL/MOL
REMARK 923 INTER-LIGAND FREE ENERGY PREDICTED BY IDOCK:   -8.23 KCAL/MOL
REMARK 924 INTRA-LIGAND FREE ENERGY PREDICTED BY IDOCK:   -0.68 KCAL/MOL
REMARK 927      BINDING AFFINITY PREDICTED BY RF-SCORE:    0.00 PKD
ROOT
HETATM    1  O   UNL     1     -10.098  14.237  64.493  1.00  0.00    -0.628 OA 
HETATM    2  C   UNL     1     -10.458  14.210  65.886  1.00  0.00    -0.306 C  
HETATM    3  H   UNL     1      -9.230  14.618  64.426  1.00  0.00     0.000 HD 
HETATM    4  C   UNL     1     -11.866  13.594  65.995  1.00  0.00    -0.415 C  
HETATM    5  C   UNL     1      -9.404  13.365  66.630  1.00  0.00    -0.248 C  
HETATM    6  C   UNL     1     -11.851  12.093  65.698  1.00  0.00    -0.276 C  
HETATM    7  C   UNL     1      -9.530  11.872  66.320  1.00  0.00    -0.227 C  
HETATM    8  N   UNL     1     -10.888  11.340  66.513  1.00  0.00    -0.277 NA 
ENDROOT
BRANCH   2   9
HETATM    9  C   UNL     1     -10.445  15.654  66.407  1.00  0.00    -0.309 A  
HETATM   10  C   UNL     1     -10.377  16.748  65.525  1.00  0.00    -0.236 A  
HETATM   11  C   UNL     1     -10.475  15.930  67.788  1.00  0.00    -0.287 A  
HETATM   12  C   UNL     1     -10.331  18.303  67.366  1.00  0.00    -0.392 A  
HETATM   13  C   UNL     1     -10.319  18.062  65.997  1.00  0.00    -0.333 A  
HETATM   14 BR   UNL     1     -10.219  20.078  68.005  1.00  0.00    -0.493 Br 
HETATM   15  C   UNL     1     -10.416  17.245  68.265  1.00  0.00    -0.385 A  
ENDBRANCH   2   9
BRANCH   8  16
HETATM   16  C   UNL     1     -11.241  11.268  67.943  1.00  0.00    -0.290 C  
BRANCH  16  17
HETATM   17  C   UNL     1     -10.125  10.726  68.843  1.00  0.00    -0.217 C  
BRANCH  17  18
HETATM   18  C   UNL     1     -10.661  10.061  70.110  1.00  0.00    -0.350 C  
BRANCH  18  19
HETATM   19  C   UNL     1      -9.568   9.305  70.839  1.00  0.00    -0.269 C  
HETATM   20  O   UNL     1      -8.383   9.625  70.781  1.00  0.00    -0.264 OA 
BRANCH  19  21
HETATM   21  C   UNL     1      -9.949   8.097  71.621  1.00  0.00    -0.252 A  
HETATM   22  C   UNL     1     -10.253   6.925  70.915  1.00  0.00    -0.214 A  
HETATM   23  C   UNL     1     -10.631   5.772  71.600  1.00  0.00    -0.302 A  
HETATM   24  C   UNL     1     -10.694   5.791  72.989  1.00  0.00    -0.257 A  
HETATM   25  F   UNL     1     -11.057   4.681  73.647  1.00  0.00    -0.294 F  
HETATM   26  C   UNL     1     -10.382   6.942  73.706  1.00  0.00    -0.409 A  
HETATM   27  C   UNL     1     -10.009   8.101  73.022  1.00  0.00    -0.303 A  
ENDBRANCH  19  21
ENDBRANCH  18  19
ENDBRANCH  17  18
ENDBRANCH  16  17
ENDBRANCH   8  16
TORSDOF 6
ENDMDL
MODEL       67
REMARK 921   NORMALIZED FREE ENERGY PREDICTED BY IDOCK:   -5.68 KCAL/MOL
REMARK 922        TOTAL FREE ENERGY PREDICTED BY IDOCK:   -8.88 KCAL/MOL
REMARK 923 INTER-LIGAND FREE ENERGY PREDICTED BY IDOCK:   -8.24 KCAL/MOL
REMARK 924 INTRA-LIGAND FREE ENERGY PREDICTED BY IDOCK:   -0.64 KCAL/MOL
REMARK 927      BINDING AFFINITY PREDICTED BY RF-SCORE:    0.00 PKD
ROOT
HETATM    1  O   UNL     1     -13.160  14.918  69.887  1.00  0.00    -0.585 OA 
HETATM    2  C   UNL     1     -11.969  14.136  69.687  1.00  0.00    -0.336 C  
HETATM    3  H   UNL     1     -13.316  14.975  70.823  1.00  0.00     0.000 HD 
HETATM    4  C   UNL     1     -11.717  14.043  68.171  1.00  0.00    -0.387 C  
HETATM    5  C   UNL     1     -10.810  14.845  70.417  1.00  0.00    -0.111 C  
HETATM    6  C   UNL     1     -11.253  15.381  67.590  1.00  0.00    -0.311 C  
HETATM    7  C   UNL     1     -10.375  16.130  69.710  1.00  0.00    -0.244 C  
HETATM    8  N   UNL     1     -10.086  15.948  68.278  1.00  0.00    -0.221 NA 
ENDROOT
BRANCH   2   9
HETATM    9  C   UNL     1     -12.208  12.746  70.294  1.00  0.00    -0.351 A  
HETATM   10  C   UNL     1     -13.084  12.565  71.380  1.00  0.00    -0.303 A  
HETATM   11  C   UNL     1     -11.538  11.610  69.799  1.00  0.00    -0.389 A  
HETATM   12  C   UNL     1     -12.579  10.209  71.467  1.00  0.00    -0.434 A  
HETATM   13  C   UNL     1     -13.269  11.309  71.964  1.00  0.00    -0.437 A  
HETATM   14 BR   UNL     1     -12.804   8.517  72.278  1.00  0.00    -0.386 Br 
HETATM   15  C   UNL     1     -11.719  10.351  70.383  1.00  0.00    -0.419 A  
ENDBRANCH   2   9
BRANCH   8  16
HETATM   16  C   UNL     1      -8.840  15.186  68.072  1.00  0.00    -0.170 C  
BRANCH  16  17
HETATM   17  C   UNL     1      -7.580  16.052  67.969  1.00  0.00    -0.137 C  
BRANCH  17  18
HETATM   18  C   UNL     1      -7.193  16.359  66.522  1.00  0.00    -0.127 C  
BRANCH  18  19
HETATM   19  C   UNL     1      -7.492  17.802  66.167  1.00  0.00    -0.287 C  
HETATM   20  O   UNL     1      -6.993  18.367  65.196  1.00  0.00    -0.501 OA 
BRANCH  19  21
HETATM   21  C   UNL     1      -8.395  18.575  67.063  1.00  0.00    -0.259 A  
HETATM   22  C   UNL     1      -7.860  19.088  68.253  1.00  0.00    -0.350 A  
HETATM   23  C   UNL     1      -8.669  19.804  69.133  1.00  0.00     0.025 A  
HETATM   24  C   UNL     1     -10.006  20.016  68.816  1.00  0.00    -0.280 A  
HETATM   25  F   UNL     1     -10.782  20.706  69.663  1.00  0.00    -0.319 F  
HETATM   26  C   UNL     1     -10.549  19.526  67.632  1.00  0.00    -0.566 A  
HETATM   27  C   UNL     1      -9.743  18.802  66.751  1.00  0.00    -0.355 A  
ENDBRANCH  19  21
ENDBRANCH  18  19
ENDBRANCH  17  18
ENDBRANCH  16  17
ENDBRANCH   8  16
TORSDOF 6
ENDMDL
MODEL       68
REMARK 921   NORMALIZED FREE ENERGY PREDICTED BY IDOCK:   -5.67 KCAL/MOL
REMARK 922        TOTAL FREE ENERGY PREDICTED BY IDOCK:   -8.87 KCAL/MOL
REMARK 923 INTER-LIGAND FREE ENERGY PREDICTED BY IDOCK:   -7.99 KCAL/MOL
REMARK 924 INTRA-LIGAND FREE ENERGY PREDICTED BY IDOCK:   -0.88 KCAL/MOL
REMARK 927      BINDING AFFINITY PREDICTED BY RF-SCORE:    0.00 PKD
ROOT
HETATM    1  O   UNL     1     -10.727  16.388  65.079  1.00  0.00    -0.638 OA 
HETATM    2  C   UNL     1     -10.240  15.773  66.286  1.00  0.00    -0.303 C  
HETATM    3  H   UNL     1      -9.976  16.592  64.534  1.00  0.00     0.000 HD 
HETATM    4  C   UNL     1     -11.458  15.443  67.169  1.00  0.00    -0.133 C  
HETATM    5  C   UNL     1      -9.461  14.504  65.887  1.00  0.00    -0.219 C  
HETATM    6  C   UNL     1     -12.276  14.284  66.596  1.00  0.00    -0.381 C  
HETATM    7  C   UNL     1     -10.382  13.382  65.401  1.00  0.00    -0.312 C  
HETATM    8  N   UNL     1     -11.481  13.076  66.330  1.00  0.00    -0.324 NA 
ENDROOT
BRANCH   2   9
HETATM    9  C   UNL     1      -9.307  16.773  66.982  1.00  0.00    -0.244 A  
HETATM   10  C   UNL     1      -7.911  16.708  66.814  1.00  0.00    -0.284 A  
HETATM   11  C   UNL     1      -9.815  17.773  67.834  1.00  0.00    -0.306 A  
HETATM   12  C   UNL     1      -7.585  18.551  68.332  1.00  0.00    -0.292 A  
HETATM   13  C   UNL     1      -7.056  17.587  67.483  1.00  0.00    -0.184 A  
HETATM   14 BR   UNL     1      -6.426  19.719  69.263  1.00  0.00    -0.386 Br 
HETATM   15  C   UNL     1      -8.962  18.654  68.507  1.00  0.00    -0.364 A  
ENDBRANCH   2   9
BRANCH   8  16
HETATM   16  C   UNL     1     -10.989  12.404  67.547  1.00  0.00    -0.252 C  
BRANCH  16  17
HETATM   17  C   UNL     1     -11.298  10.904  67.609  1.00  0.00    -0.345 C  
BRANCH  17  18
HETATM   18  C   UNL     1     -10.036  10.047  67.701  1.00  0.00    -0.232 C  
BRANCH  18  19
HETATM   19  C   UNL     1      -9.706   9.706  69.141  1.00  0.00    -0.178 C  
HETATM   20  O   UNL     1      -8.687  10.101  69.702  1.00  0.00    -0.186 OA 
BRANCH  19  21
HETATM   21  C   UNL     1     -10.640   8.818  69.886  1.00  0.00    -0.230 A  
HETATM   22  C   UNL     1     -11.440   9.393  70.882  1.00  0.00    -0.382 A  
HETATM   23  C   UNL     1     -12.319   8.600  71.619  1.00  0.00    -0.384 A  
HETATM   24  C   UNL     1     -12.403   7.240  71.350  1.00  0.00    -0.368 A  
HETATM   25  F   UNL     1     -13.249   6.479  72.058  1.00  0.00    -0.358 F  
HETATM   26  C   UNL     1     -11.625   6.656  70.354  1.00  0.00    -0.457 A  
HETATM   27  C   UNL     1     -10.739   7.445  69.619  1.00  0.00    -0.245 A  
ENDBRANCH  19  21
ENDBRANCH  18  19
ENDBRANCH  17  18
ENDBRANCH  16  17
ENDBRANCH   8  16
TORSDOF 6
ENDMDL
MODEL       69
REMARK 921   NORMALIZED FREE ENERGY PREDICTED BY IDOCK:   -5.67 KCAL/MOL
REMARK 922        TOTAL FREE ENERGY PREDICTED BY IDOCK:   -8.86 KCAL/MOL
REMARK 923 INTER-LIGAND FREE ENERGY PREDICTED BY IDOCK:   -7.08 KCAL/MOL
REMARK 924 INTRA-LIGAND FREE ENERGY PREDICTED BY IDOCK:   -1.78 KCAL/MOL
REMARK 927      BINDING AFFINITY PREDICTED BY RF-SCORE:    0.00 PKD
ROOT
HETATM    1  O   UNL     1      -8.539  13.963  66.314  1.00  0.00    -0.387 OA 
HETATM    2  C   UNL     1      -9.514  13.153  66.996  1.00  0.00    -0.242 C  
HETATM    3  H   UNL     1      -8.624  13.795  65.382  1.00  0.00     0.000 HD 
HETATM    4  C   UNL     1      -9.377  13.424  68.506  1.00  0.00    -0.097 C  
HETATM    5  C   UNL     1     -10.908  13.547  66.467  1.00  0.00    -0.283 C  
HETATM    6  C   UNL     1      -9.887  14.818  68.879  1.00  0.00    -0.222 C  
HETATM    7  C   UNL     1     -11.352  14.925  66.964  1.00  0.00    -0.342 C  
HETATM    8  N   UNL     1     -11.258  15.085  68.424  1.00  0.00    -0.279 NA 
ENDROOT
BRANCH   2   9
HETATM    9  C   UNL     1      -9.218  11.683  66.669  1.00  0.00    -0.196 A  
HETATM   10  C   UNL     1     -10.202  10.847  66.110  1.00  0.00    -0.304 A  
HETATM   11  C   UNL     1      -7.959  11.114  66.944  1.00  0.00    -0.151 A  
HETATM   12  C   UNL     1      -8.704   8.959  66.153  1.00  0.00    -0.153 A  
HETATM   13  C   UNL     1      -9.951   9.497  65.854  1.00  0.00    -0.342 A  
HETATM   14 BR   UNL     1      -8.374   7.125  65.838  1.00  0.00    -0.148 Br 
HETATM   15  C   UNL     1      -7.703   9.762  66.691  1.00  0.00    -0.102 A  
ENDBRANCH   2   9
BRANCH   8  16
HETATM   16  C   UNL     1     -12.286  14.292  69.122  1.00  0.00    -0.237 C  
BRANCH  16  17
HETATM   17  C   UNL     1     -11.818  13.674  70.444  1.00  0.00    -0.308 C  
BRANCH  17  18
HETATM   18  C   UNL     1     -12.531  12.361  70.765  1.00  0.00    -0.356 C  
BRANCH  18  19
HETATM   19  C   UNL     1     -12.034  11.234  69.881  1.00  0.00    -0.365 C  
HETATM   20  O   UNL     1     -12.406  11.085  68.719  1.00  0.00    -0.533 OA 
BRANCH  19  21
HETATM   21  C   UNL     1     -11.089  10.244  70.467  1.00  0.00    -0.381 A  
HETATM   22  C   UNL     1     -11.494   9.548  71.614  1.00  0.00    -0.433 A  
HETATM   23  C   UNL     1     -10.638   8.622  72.210  1.00  0.00    -0.375 A  
HETATM   24  C   UNL     1      -9.388   8.388  71.651  1.00  0.00    -0.214 A  
HETATM   25  F   UNL     1      -8.567   7.497  72.224  1.00  0.00    -0.115 F  
HETATM   26  C   UNL     1      -8.977   9.060  70.504  1.00  0.00    -0.249 A  
HETATM   27  C   UNL     1      -9.828   9.993  69.908  1.00  0.00    -0.266 A  
ENDBRANCH  19  21
ENDBRANCH  18  19
ENDBRANCH  17  18
ENDBRANCH  16  17
ENDBRANCH   8  16
TORSDOF 6
ENDMDL
MODEL       70
REMARK 921   NORMALIZED FREE ENERGY PREDICTED BY IDOCK:   -5.63 KCAL/MOL
REMARK 922        TOTAL FREE ENERGY PREDICTED BY IDOCK:   -8.81 KCAL/MOL
REMARK 923 INTER-LIGAND FREE ENERGY PREDICTED BY IDOCK:   -7.91 KCAL/MOL
REMARK 924 INTRA-LIGAND FREE ENERGY PREDICTED BY IDOCK:   -0.90 KCAL/MOL
REMARK 927      BINDING AFFINITY PREDICTED BY RF-SCORE:    0.00 PKD
ROOT
HETATM    1  O   UNL     1     -10.463  17.889  68.520  1.00  0.00    -0.361 OA 
HETATM    2  C   UNL     1      -9.440  17.170  67.807  1.00  0.00    -0.253 C  
HETATM    3  H   UNL     1     -10.943  18.412  67.889  1.00  0.00     0.000 HD 
HETATM    4  C   UNL     1      -8.662  16.322  68.830  1.00  0.00    -0.244 C  
HETATM    5  C   UNL     1     -10.133  16.293  66.745  1.00  0.00    -0.281 C  
HETATM    6  C   UNL     1      -9.498  15.148  69.345  1.00  0.00    -0.183 C  
HETATM    7  C   UNL     1     -10.874  15.105  67.363  1.00  0.00    -0.302 C  
HETATM    8  N   UNL     1     -10.046  14.302  68.276  1.00  0.00    -0.232 NA 
ENDROOT
BRANCH   2   9
HETATM    9  C   UNL     1      -8.524  18.199  67.130  1.00  0.00    -0.247 A  
HETATM   10  C   UNL     1      -7.533  17.802  66.214  1.00  0.00    -0.328 A  
HETATM   11  C   UNL     1      -8.628  19.572  67.424  1.00  0.00    -0.346 A  
HETATM   12  C   UNL     1      -6.780  20.077  65.954  1.00  0.00    -0.251 A  
HETATM   13  C   UNL     1      -6.666  18.730  65.631  1.00  0.00    -0.311 A  
HETATM   14 BR   UNL     1      -5.588  21.329  65.191  1.00  0.00    -0.116 Br 
HETATM   15  C   UNL     1      -7.761  20.505  66.843  1.00  0.00    -0.323 A  
ENDBRANCH   2   9
BRANCH   8  16
HETATM   16  C   UNL     1      -9.028  13.528  67.542  1.00  0.00    -0.210 C  
BRANCH  16  17
HETATM   17  C   UNL     1      -9.572  12.291  66.821  1.00  0.00    -0.220 C  
BRANCH  17  18
HETATM   18  C   UNL     1      -9.791  11.108  67.764  1.00  0.00    -0.186 C  
BRANCH  18  19
HETATM   19  C   UNL     1     -11.224  11.056  68.258  1.00  0.00    -0.277 C  
HETATM   20  O   UNL     1     -12.155  11.594  67.663  1.00  0.00    -0.615 OA 
BRANCH  19  21
HETATM   21  C   UNL     1     -11.499  10.360  69.545  1.00  0.00    -0.311 A  
HETATM   22  C   UNL     1     -10.613   9.353  69.951  1.00  0.00    -0.258 A  
HETATM   23  C   UNL     1     -10.836   8.660  71.139  1.00  0.00    -0.320 A  
HETATM   24  C   UNL     1     -11.937   8.983  71.923  1.00  0.00    -0.375 A  
HETATM   25  F   UNL     1     -12.150   8.317  73.066  1.00  0.00    -0.424 F  
HETATM   26  C   UNL     1     -12.819   9.989  71.542  1.00  0.00    -0.537 A  
HETATM   27  C   UNL     1     -12.603  10.681  70.348  1.00  0.00    -0.395 A  
ENDBRANCH  19  21
ENDBRANCH  18  19
ENDBRANCH  17  18
ENDBRANCH  16  17
ENDBRANCH   8  16
TORSDOF 6
ENDMDL
MODEL       71
REMARK 921   NORMALIZED FREE ENERGY PREDICTED BY IDOCK:   -5.61 KCAL/MOL
REMARK 922        TOTAL FREE ENERGY PREDICTED BY IDOCK:   -8.79 KCAL/MOL
REMARK 923 INTER-LIGAND FREE ENERGY PREDICTED BY IDOCK:   -7.47 KCAL/MOL
REMARK 924 INTRA-LIGAND FREE ENERGY PREDICTED BY IDOCK:   -1.32 KCAL/MOL
REMARK 927      BINDING AFFINITY PREDICTED BY RF-SCORE:    0.00 PKD
ROOT
HETATM    1  O   UNL     1      -9.441  12.181  69.166  1.00  0.00    -0.352 OA 
HETATM    2  C   UNL     1     -10.472  11.278  68.729  1.00  0.00    -0.208 C  
HETATM    3  H   UNL     1      -9.536  12.989  68.675  1.00  0.00     0.000 HD 
HETATM    4  C   UNL     1     -10.318   9.968  69.524  1.00  0.00    -0.256 C  
HETATM    5  C   UNL     1     -11.834  11.951  68.995  1.00  0.00    -0.368 C  
HETATM    6  C   UNL     1     -10.725  10.143  70.989  1.00  0.00     0.150 C  
HETATM    7  C   UNL     1     -12.176  12.004  70.486  1.00  0.00    -0.325 C  
HETATM    8  N   UNL     1     -12.072  10.702  71.163  1.00  0.00    -0.353 NA 
ENDROOT
BRANCH   2   9
HETATM    9  C   UNL     1     -10.284  11.037  67.225  1.00  0.00    -0.234 A  
HETATM   10  C   UNL     1      -9.758   9.826  66.740  1.00  0.00    -0.248 A  
HETATM   11  C   UNL     1     -10.609  12.032  66.282  1.00  0.00    -0.287 A  
HETATM   12  C   UNL     1      -9.855  10.627  64.468  1.00  0.00    -0.327 A  
HETATM   13  C   UNL     1      -9.543   9.620  65.375  1.00  0.00    -0.361 A  
HETATM   14 BR   UNL     1      -9.534  10.362  62.625  1.00  0.00    -0.283 Br 
HETATM   15  C   UNL     1     -10.394  11.830  64.914  1.00  0.00    -0.334 A  
ENDBRANCH   2   9
BRANCH   8  16
HETATM   16  C   UNL     1     -13.156   9.791  70.751  1.00  0.00    -0.135 C  
BRANCH  16  17
HETATM   17  C   UNL     1     -13.774   8.984  71.898  1.00  0.00    -0.495 C  
BRANCH  17  18
HETATM   18  C   UNL     1     -13.497   7.485  71.780  1.00  0.00    -0.381 C  
BRANCH  18  19
HETATM   19  C   UNL     1     -12.032   7.176  72.018  1.00  0.00    -0.295 C  
HETATM   20  O   UNL     1     -11.406   7.613  72.981  1.00  0.00    -0.372 OA 
BRANCH  19  21
HETATM   21  C   UNL     1     -11.317   6.341  71.014  1.00  0.00    -0.378 A  
HETATM   22  C   UNL     1     -10.509   5.296  71.483  1.00  0.00    -0.279 A  
HETATM   23  C   UNL     1      -9.806   4.496  70.584  1.00  0.00    -0.292 A  
HETATM   24  C   UNL     1      -9.921   4.736  69.220  1.00  0.00    -0.184 A  
HETATM   25  F   UNL     1      -9.245   3.966  68.356  1.00  0.00    -0.142 F  
HETATM   26  C   UNL     1     -10.730   5.761  68.737  1.00  0.00    -0.318 A  
HETATM   27  C   UNL     1     -11.430   6.568  69.635  1.00  0.00    -0.417 A  
ENDBRANCH  19  21
ENDBRANCH  18  19
ENDBRANCH  17  18
ENDBRANCH  16  17
ENDBRANCH   8  16
TORSDOF 6
ENDMDL
MODEL       72
REMARK 921   NORMALIZED FREE ENERGY PREDICTED BY IDOCK:   -5.60 KCAL/MOL
REMARK 922        TOTAL FREE ENERGY PREDICTED BY IDOCK:   -8.78 KCAL/MOL
REMARK 923 INTER-LIGAND FREE ENERGY PREDICTED BY IDOCK:   -6.55 KCAL/MOL
REMARK 924 INTRA-LIGAND FREE ENERGY PREDICTED BY IDOCK:   -2.23 KCAL/MOL
REMARK 927      BINDING AFFINITY PREDICTED BY RF-SCORE:    0.00 PKD
ROOT
HETATM    1  O   UNL     1      -6.236  13.941  67.115  1.00  0.00    -0.387 OA 
HETATM    2  C   UNL     1      -7.512  13.465  67.581  1.00  0.00    -0.178 C  
HETATM    3  H   UNL     1      -6.109  13.611  66.233  1.00  0.00     0.000 HD 
HETATM    4  C   UNL     1      -7.719  14.000  69.011  1.00  0.00    -0.006 C  
HETATM    5  C   UNL     1      -8.593  13.986  66.613  1.00  0.00     0.020 C  
HETATM    6  C   UNL     1      -7.982  15.507  69.019  1.00  0.00    -0.205 C  
HETATM    7  C   UNL     1      -8.830  15.491  66.760  1.00  0.00    -0.265 C  
HETATM    8  N   UNL     1      -9.089  15.917  68.144  1.00  0.00    -0.181 NA 
ENDROOT
BRANCH   2   9
HETATM    9  C   UNL     1      -7.480  11.931  67.565  1.00  0.00    -0.136 A  
HETATM   10  C   UNL     1      -8.099  11.176  68.577  1.00  0.00    -0.146 A  
HETATM   11  C   UNL     1      -6.805  11.227  66.547  1.00  0.00    -0.101 A  
HETATM   12  C   UNL     1      -7.344   9.114  67.583  1.00  0.00    -0.087 A  
HETATM   13  C   UNL     1      -8.033   9.781  68.590  1.00  0.00    -0.089 A  
HETATM   14 BR   UNL     1      -7.226   7.228  67.618  1.00  0.00    -0.093 Br 
HETATM   15  C   UNL     1      -6.735   9.830  66.557  1.00  0.00    -0.079 A  
ENDBRANCH   2   9
BRANCH   8  16
HETATM   16  C   UNL     1     -10.416  15.470  68.607  1.00  0.00    -0.237 C  
BRANCH  16  17
HETATM   17  C   UNL     1     -11.482  15.412  67.509  1.00  0.00    -0.228 C  
BRANCH  17  18
HETATM   18  C   UNL     1     -12.155  14.043  67.413  1.00  0.00    -0.384 C  
BRANCH  18  19
HETATM   19  C   UNL     1     -12.399  13.649  65.969  1.00  0.00    -0.445 C  
HETATM   20  O   UNL     1     -13.284  14.152  65.281  1.00  0.00    -0.760 OA 
BRANCH  19  21
HETATM   21  C   UNL     1     -11.554  12.574  65.380  1.00  0.00    -0.416 A  
HETATM   22  C   UNL     1     -11.159  11.518  66.213  1.00  0.00    -0.321 A  
HETATM   23  C   UNL     1     -10.354  10.495  65.713  1.00  0.00    -0.270 A  
HETATM   24  C   UNL     1      -9.956  10.526  64.382  1.00  0.00    -0.343 A  
HETATM   25  F   UNL     1      -9.184   9.542  63.903  1.00  0.00    -0.277 F  
HETATM   26  C   UNL     1     -10.352  11.560  63.539  1.00  0.00    -0.484 A  
HETATM   27  C   UNL     1     -11.152  12.589  64.037  1.00  0.00    -0.449 A  
ENDBRANCH  19  21
ENDBRANCH  18  19
ENDBRANCH  17  18
ENDBRANCH  16  17
ENDBRANCH   8  16
TORSDOF 6
ENDMDL
MODEL       73
REMARK 921   NORMALIZED FREE ENERGY PREDICTED BY IDOCK:   -5.58 KCAL/MOL
REMARK 922        TOTAL FREE ENERGY PREDICTED BY IDOCK:   -8.75 KCAL/MOL
REMARK 923 INTER-LIGAND FREE ENERGY PREDICTED BY IDOCK:   -7.76 KCAL/MOL
REMARK 924 INTRA-LIGAND FREE ENERGY PREDICTED BY IDOCK:   -1.00 KCAL/MOL
REMARK 927      BINDING AFFINITY PREDICTED BY RF-SCORE:    0.00 PKD
ROOT
HETATM    1  O   UNL     1     -12.172   6.791  69.825  1.00  0.00    -0.610 OA 
HETATM    2  C   UNL     1     -10.774   6.601  69.543  1.00  0.00    -0.260 C  
HETATM    3  H   UNL     1     -12.240   7.278  70.638  1.00  0.00     0.000 HD 
HETATM    4  C   UNL     1     -10.663   5.811  68.226  1.00  0.00    -0.285 C  
HETATM    5  C   UNL     1     -10.122   7.994  69.431  1.00  0.00    -0.197 C  
HETATM    6  C   UNL     1     -11.061   6.663  67.019  1.00  0.00    -0.325 C  
HETATM    7  C   UNL     1     -10.528   8.727  68.150  1.00  0.00    -0.191 C  
HETATM    8  N   UNL     1     -10.329   7.934  66.927  1.00  0.00    -0.324 NA 
ENDROOT
BRANCH   2   9
HETATM    9  C   UNL     1     -10.157   5.819  70.711  1.00  0.00    -0.260 A  
HETATM   10  C   UNL     1     -10.227   6.301  72.030  1.00  0.00    -0.214 A  
HETATM   11  C   UNL     1      -9.478   4.604  70.495  1.00  0.00    -0.247 A  
HETATM   12  C   UNL     1      -8.947   4.427  72.844  1.00  0.00    -0.117 A  
HETATM   13  C   UNL     1      -9.627   5.614  73.089  1.00  0.00    -0.156 A  
HETATM   14 BR   UNL     1      -8.107   3.515  74.270  1.00  0.00    -0.074 Br 
HETATM   15  C   UNL     1      -8.874   3.914  71.553  1.00  0.00    -0.141 A  
ENDBRANCH   2   9
BRANCH   8  16
HETATM   16  C   UNL     1      -8.898   7.778  66.611  1.00  0.00    -0.148 C  
BRANCH  16  17
HETATM   17  C   UNL     1      -8.504   8.260  65.211  1.00  0.00    -0.179 C  
BRANCH  17  18
HETATM   18  C   UNL     1      -8.503   9.784  65.091  1.00  0.00    -0.157 C  
BRANCH  18  19
HETATM   19  C   UNL     1      -9.485  10.253  64.035  1.00  0.00    -0.300 C  
HETATM   20  O   UNL     1      -9.461   9.848  62.875  1.00  0.00    -0.276 OA 
BRANCH  19  21
HETATM   21  C   UNL     1     -10.490  11.283  64.417  1.00  0.00    -0.407 A  
HETATM   22  C   UNL     1     -10.755  11.469  65.781  1.00  0.00    -0.325 A  
HETATM   23  C   UNL     1     -11.700  12.409  66.189  1.00  0.00    -0.460 A  
HETATM   24  C   UNL     1     -12.367  13.168  65.234  1.00  0.00    -0.481 A  
HETATM   25  F   UNL     1     -13.274  14.073  65.628  1.00  0.00    -0.554 F  
HETATM   26  C   UNL     1     -12.105  13.006  63.877  1.00  0.00    -0.541 A  
HETATM   27  C   UNL     1     -11.165  12.060  63.464  1.00  0.00    -0.526 A  
ENDBRANCH  19  21
ENDBRANCH  18  19
ENDBRANCH  17  18
ENDBRANCH  16  17
ENDBRANCH   8  16
TORSDOF 6
ENDMDL
MODEL       74
REMARK 921   NORMALIZED FREE ENERGY PREDICTED BY IDOCK:   -5.57 KCAL/MOL
REMARK 922        TOTAL FREE ENERGY PREDICTED BY IDOCK:   -8.74 KCAL/MOL
REMARK 923 INTER-LIGAND FREE ENERGY PREDICTED BY IDOCK:   -8.03 KCAL/MOL
REMARK 924 INTRA-LIGAND FREE ENERGY PREDICTED BY IDOCK:   -0.71 KCAL/MOL
REMARK 927      BINDING AFFINITY PREDICTED BY RF-SCORE:    0.00 PKD
ROOT
HETATM    1  O   UNL     1      -9.128  12.683  65.935  1.00  0.00    -0.435 OA 
HETATM    2  C   UNL     1      -9.943  13.011  67.075  1.00  0.00    -0.242 C  
HETATM    3  H   UNL     1      -8.296  13.131  66.035  1.00  0.00     0.000 HD 
HETATM    4  C   UNL     1     -11.292  12.285  66.913  1.00  0.00    -0.392 C  
HETATM    5  C   UNL     1      -9.193  12.549  68.341  1.00  0.00    -0.139 C  
HETATM    6  C   UNL     1     -11.150  10.775  67.117  1.00  0.00    -0.227 C  
HETATM    7  C   UNL     1      -9.178  11.026  68.486  1.00  0.00    -0.177 C  
HETATM    8  N   UNL     1     -10.511  10.410  68.389  1.00  0.00    -0.178 NA 
ENDROOT
BRANCH   2   9
HETATM    9  C   UNL     1     -10.135  14.534  67.098  1.00  0.00    -0.252 A  
HETATM   10  C   UNL     1     -10.224  15.276  65.906  1.00  0.00    -0.353 A  
HETATM   11  C   UNL     1     -10.202  15.242  68.314  1.00  0.00    -0.226 A  
HETATM   12  C   UNL     1     -10.397  17.341  67.137  1.00  0.00    -0.321 A  
HETATM   13  C   UNL     1     -10.353  16.667  65.922  1.00  0.00    -0.355 A  
HETATM   14 BR   UNL     1     -10.537  19.225  67.160  1.00  0.00    -0.590 Br 
HETATM   15  C   UNL     1     -10.329  16.635  68.335  1.00  0.00    -0.299 A  
ENDBRANCH   2   9
BRANCH   8  16
HETATM   16  C   UNL     1     -11.331  10.706  69.578  1.00  0.00    -0.277 C  
BRANCH  16  17
HETATM   17  C   UNL     1     -11.129   9.732  70.744  1.00  0.00    -0.415 C  
BRANCH  17  18
HETATM   18  C   UNL     1     -12.407   9.509  71.552  1.00  0.00    -0.465 C  
BRANCH  18  19
HETATM   19  C   UNL     1     -12.907   8.085  71.410  1.00  0.00    -0.269 C  
HETATM   20  O   UNL     1     -14.078   7.766  71.602  1.00  0.00    -0.394 OA 
BRANCH  19  21
HETATM   21  C   UNL     1     -11.921   7.024  71.065  1.00  0.00    -0.406 A  
HETATM   22  C   UNL     1     -11.233   6.399  72.114  1.00  0.00    -0.319 A  
HETATM   23  C   UNL     1     -10.287   5.411  71.842  1.00  0.00    -0.270 A  
HETATM   24  C   UNL     1     -10.041   5.044  70.525  1.00  0.00    -0.253 A  
HETATM   25  F   UNL     1      -9.133   4.093  70.265  1.00  0.00    -0.117 F  
HETATM   26  C   UNL     1     -10.726   5.644  69.472  1.00  0.00    -0.380 A  
HETATM   27  C   UNL     1     -11.668   6.639  69.740  1.00  0.00    -0.279 A  
ENDBRANCH  19  21
ENDBRANCH  18  19
ENDBRANCH  17  18
ENDBRANCH  16  17
ENDBRANCH   8  16
TORSDOF 6
ENDMDL
MODEL       75
REMARK 921   NORMALIZED FREE ENERGY PREDICTED BY IDOCK:   -5.57 KCAL/MOL
REMARK 922        TOTAL FREE ENERGY PREDICTED BY IDOCK:   -8.74 KCAL/MOL
REMARK 923 INTER-LIGAND FREE ENERGY PREDICTED BY IDOCK:   -5.79 KCAL/MOL
REMARK 924 INTRA-LIGAND FREE ENERGY PREDICTED BY IDOCK:   -2.95 KCAL/MOL
REMARK 927      BINDING AFFINITY PREDICTED BY RF-SCORE:    0.00 PKD
ROOT
HETATM    1  O   UNL     1      -9.125   4.229  68.220  1.00  0.00    -0.115 OA 
HETATM    2  C   UNL     1      -9.175   5.454  68.973  1.00  0.00    -0.120 C  
HETATM    3  H   UNL     1      -8.380   4.281  67.632  1.00  0.00     0.000 HD 
HETATM    4  C   UNL     1     -10.383   5.370  69.926  1.00  0.00    -0.377 C  
HETATM    5  C   UNL     1      -7.846   5.589  69.745  1.00  0.00    -0.082 C  
HETATM    6  C   UNL     1     -10.140   4.373  71.061  1.00  0.00    -0.125 C  
HETATM    7  C   UNL     1      -7.743   4.597  70.905  1.00  0.00    -0.072 C  
HETATM    8  N   UNL     1      -8.902   4.623  71.811  1.00  0.00    -0.121 NA 
ENDROOT
BRANCH   2   9
HETATM    9  C   UNL     1      -9.333   6.614  67.981  1.00  0.00    -0.113 A  
HETATM   10  C   UNL     1      -8.214   7.217  67.378  1.00  0.00    -0.116 A  
HETATM   11  C   UNL     1     -10.604   7.131  67.661  1.00  0.00    -0.318 A  
HETATM   12  C   UNL     1      -9.617   8.804  66.227  1.00  0.00    -0.259 A  
HETATM   13  C   UNL     1      -8.351   8.303  66.510  1.00  0.00    -0.112 A  
HETATM   14 BR   UNL     1      -9.801  10.293  65.079  1.00  0.00    -0.396 Br 
HETATM   15  C   UNL     1     -10.746   8.220  66.793  1.00  0.00    -0.072 A  
ENDBRANCH   2   9
BRANCH   8  16
HETATM   16  C   UNL     1      -8.929   5.857  72.618  1.00  0.00    -0.131 C  
BRANCH  16  17
HETATM   17  C   UNL     1     -10.301   6.192  73.213  1.00  0.00    -0.242 C  
BRANCH  17  18
HETATM   18  C   UNL     1     -10.567   7.696  73.269  1.00  0.00    -0.411 C  
BRANCH  18  19
HETATM   19  C   UNL     1     -11.476   8.137  72.139  1.00  0.00    -0.350 C  
HETATM   20  O   UNL     1     -12.640   7.756  72.032  1.00  0.00    -0.303 OA 
BRANCH  19  21
HETATM   21  C   UNL     1     -10.914   9.035  71.093  1.00  0.00    -0.371 A  
HETATM   22  C   UNL     1      -9.537   8.971  70.842  1.00  0.00    -0.328 A  
HETATM   23  C   UNL     1      -8.959   9.803  69.884  1.00  0.00    -0.254 A  
HETATM   24  C   UNL     1      -9.762  10.686  69.172  1.00  0.00    -0.189 A  
HETATM   25  F   UNL     1      -9.206  11.485  68.250  1.00  0.00    -0.158 F  
HETATM   26  C   UNL     1     -11.133  10.752  69.399  1.00  0.00    -0.324 A  
HETATM   27  C   UNL     1     -11.714   9.926  70.362  1.00  0.00    -0.333 A  
ENDBRANCH  19  21
ENDBRANCH  18  19
ENDBRANCH  17  18
ENDBRANCH  16  17
ENDBRANCH   8  16
TORSDOF 6
ENDMDL
MODEL       76
REMARK 921   NORMALIZED FREE ENERGY PREDICTED BY IDOCK:   -5.55 KCAL/MOL
REMARK 922        TOTAL FREE ENERGY PREDICTED BY IDOCK:   -8.71 KCAL/MOL
REMARK 923 INTER-LIGAND FREE ENERGY PREDICTED BY IDOCK:   -7.57 KCAL/MOL
REMARK 924 INTRA-LIGAND FREE ENERGY PREDICTED BY IDOCK:   -1.15 KCAL/MOL
REMARK 927      BINDING AFFINITY PREDICTED BY RF-SCORE:    0.00 PKD
ROOT
HETATM    1  O   UNL     1      -9.332  17.288  68.799  1.00  0.00    -0.264 OA 
HETATM    2  C   UNL     1      -9.320  15.854  68.919  1.00  0.00    -0.233 C  
HETATM    3  H   UNL     1      -9.314  17.653  69.677  1.00  0.00     0.000 HD 
HETATM    4  C   UNL     1      -9.349  15.264  67.497  1.00  0.00    -0.204 C  
HETATM    5  C   UNL     1      -8.039  15.454  69.679  1.00  0.00    -0.134 C  
HETATM    6  C   UNL     1      -8.021  15.477  66.768  1.00  0.00    -0.179 C  
HETATM    7  C   UNL     1      -6.778  15.635  68.830  1.00  0.00    -0.123 C  
HETATM    8  N   UNL     1      -6.854  14.985  67.512  1.00  0.00    -0.180 NA 
ENDROOT
BRANCH   2   9
HETATM    9  C   UNL     1     -10.563  15.436  69.716  1.00  0.00    -0.304 A  
HETATM   10  C   UNL     1     -11.071  16.241  70.752  1.00  0.00    -0.217 A  
HETATM   11  C   UNL     1     -11.221  14.218  69.454  1.00  0.00    -0.313 A  
HETATM   12  C   UNL     1     -12.792  14.626  71.241  1.00  0.00    -0.335 A  
HETATM   13  C   UNL     1     -12.175  15.842  71.511  1.00  0.00    -0.513 A  
HETATM   14 BR   UNL     1     -14.264  14.070  72.288  1.00  0.00    -0.491 Br 
HETATM   15  C   UNL     1     -12.326  13.814  70.212  1.00  0.00    -0.407 A  
ENDBRANCH   2   9
BRANCH   8  16
HETATM   16  C   UNL     1      -6.795  13.516  67.630  1.00  0.00    -0.170 C  
BRANCH  16  17
HETATM   17  C   UNL     1      -7.928  12.779  66.910  1.00  0.00     0.042 C  
BRANCH  17  18
HETATM   18  C   UNL     1      -8.656  11.787  67.817  1.00  0.00    -0.151 C  
BRANCH  18  19
HETATM   19  C   UNL     1      -9.675  10.976  67.041  1.00  0.00    -0.182 C  
HETATM   20  O   UNL     1      -9.843   9.771  67.217  1.00  0.00    -0.165 OA 
BRANCH  19  21
HETATM   21  C   UNL     1     -10.471  11.667  65.990  1.00  0.00    -0.294 A  
HETATM   22  C   UNL     1     -10.108  11.466  64.651  1.00  0.00    -0.330 A  
HETATM   23  C   UNL     1     -10.812  12.104  63.631  1.00  0.00    -0.523 A  
HETATM   24  C   UNL     1     -11.883  12.930  63.951  1.00  0.00    -0.473 A  
HETATM   25  F   UNL     1     -12.560  13.541  62.970  1.00  0.00    -0.474 F  
HETATM   26  C   UNL     1     -12.266  13.128  65.274  1.00  0.00    -0.502 A  
HETATM   27  C   UNL     1     -11.558  12.496  66.299  1.00  0.00    -0.449 A  
ENDBRANCH  19  21
ENDBRANCH  18  19
ENDBRANCH  17  18
ENDBRANCH  16  17
ENDBRANCH   8  16
TORSDOF 6
ENDMDL
MODEL       77
REMARK 921   NORMALIZED FREE ENERGY PREDICTED BY IDOCK:   -5.55 KCAL/MOL
REMARK 922        TOTAL FREE ENERGY PREDICTED BY IDOCK:   -8.71 KCAL/MOL
REMARK 923 INTER-LIGAND FREE ENERGY PREDICTED BY IDOCK:   -6.86 KCAL/MOL
REMARK 924 INTRA-LIGAND FREE ENERGY PREDICTED BY IDOCK:   -1.85 KCAL/MOL
REMARK 927      BINDING AFFINITY PREDICTED BY RF-SCORE:    0.00 PKD
ROOT
HETATM    1  O   UNL     1     -10.023   8.864  65.725  1.00  0.00    -0.459 OA 
HETATM    2  C   UNL     1      -9.878   8.882  67.157  1.00  0.00    -0.207 C  
HETATM    3  H   UNL     1      -9.353   9.430  65.360  1.00  0.00     0.000 HD 
HETATM    4  C   UNL     1     -10.964   7.964  67.750  1.00  0.00     0.037 C  
HETATM    5  C   UNL     1      -8.459   8.381  67.495  1.00  0.00    -0.129 C  
HETATM    6  C   UNL     1     -10.670   6.488  67.475  1.00  0.00    -0.321 C  
HETATM    7  C   UNL     1      -8.299   6.878  67.256  1.00  0.00    -0.121 C  
HETATM    8  N   UNL     1      -9.333   6.062  67.910  1.00  0.00    -0.111 NA 
ENDROOT
BRANCH   2   9
HETATM    9  C   UNL     1     -10.058  10.330  67.633  1.00  0.00    -0.229 A  
HETATM   10  C   UNL     1     -11.181  10.716  68.388  1.00  0.00    -0.347 A  
HETATM   11  C   UNL     1      -9.117  11.326  67.308  1.00  0.00    -0.156 A  
HETATM   12  C   UNL     1     -10.435  13.008  68.432  1.00  0.00    -0.252 A  
HETATM   13  C   UNL     1     -11.371  12.042  68.784  1.00  0.00    -0.331 A  
HETATM   14 BR   UNL     1     -10.708  14.807  68.939  1.00  0.00    -0.263 Br 
HETATM   15  C   UNL     1      -9.304  12.656  67.701  1.00  0.00    -0.190 A  
ENDBRANCH   2   9
BRANCH   8  16
HETATM   16  C   UNL     1      -9.159   6.041  69.374  1.00  0.00    -0.133 C  
BRANCH  16  17
HETATM   17  C   UNL     1     -10.191   5.190  70.121  1.00  0.00    -0.348 C  
BRANCH  17  18
HETATM   18  C   UNL     1     -10.006   5.236  71.638  1.00  0.00    -0.236 C  
BRANCH  18  19
HETATM   19  C   UNL     1     -11.278   5.679  72.334  1.00  0.00    -0.280 C  
HETATM   20  O   UNL     1     -11.887   4.964  73.128  1.00  0.00    -0.279 OA 
BRANCH  19  21
HETATM   21  C   UNL     1     -11.830   7.021  72.004  1.00  0.00    -0.336 A  
HETATM   22  C   UNL     1     -13.163   7.096  71.576  1.00  0.00    -0.419 A  
HETATM   23  C   UNL     1     -13.722   8.328  71.239  1.00  0.00    -0.188 A  
HETATM   24  C   UNL     1     -12.952   9.480  71.342  1.00  0.00    -0.368 A  
HETATM   25  F   UNL     1     -13.491  10.664  71.019  1.00  0.00    -0.375 F  
HETATM   26  C   UNL     1     -11.632   9.424  71.780  1.00  0.00    -0.433 A  
HETATM   27  C   UNL     1     -11.066   8.192  72.112  1.00  0.00    -0.386 A  
ENDBRANCH  19  21
ENDBRANCH  18  19
ENDBRANCH  17  18
ENDBRANCH  16  17
ENDBRANCH   8  16
TORSDOF 6
ENDMDL
MODEL       78
REMARK 921   NORMALIZED FREE ENERGY PREDICTED BY IDOCK:   -5.55 KCAL/MOL
REMARK 922        TOTAL FREE ENERGY PREDICTED BY IDOCK:   -8.70 KCAL/MOL
REMARK 923 INTER-LIGAND FREE ENERGY PREDICTED BY IDOCK:   -6.43 KCAL/MOL
REMARK 924 INTRA-LIGAND FREE ENERGY PREDICTED BY IDOCK:   -2.27 KCAL/MOL
REMARK 927      BINDING AFFINITY PREDICTED BY RF-SCORE:    0.00 PKD
ROOT
HETATM    1  O   UNL     1      -9.746  11.984  69.091  1.00  0.00    -0.399 OA 
HETATM    2  C   UNL     1     -10.406  10.765  68.706  1.00  0.00    -0.192 C  
HETATM    3  H   UNL     1     -10.117  12.691  68.576  1.00  0.00     0.000 HD 
HETATM    4  C   UNL     1      -9.803   9.620  69.541  1.00  0.00    -0.219 C  
HETATM    5  C   UNL     1     -11.914  10.939  68.977  1.00  0.00    -0.322 C  
HETATM    6  C   UNL     1     -10.235   9.700  71.007  1.00  0.00    -0.182 C  
HETATM    7  C   UNL     1     -12.242  10.928  70.472  1.00  0.00    -0.367 C  
HETATM    8  N   UNL     1     -11.691   9.768  71.190  1.00  0.00    -0.354 NA 
ENDROOT
BRANCH   2   9
HETATM    9  C   UNL     1     -10.158  10.546  67.207  1.00  0.00    -0.242 A  
HETATM   10  C   UNL     1      -9.386   9.464  66.745  1.00  0.00    -0.202 A  
HETATM   11  C   UNL     1     -10.675  11.436  66.245  1.00  0.00    -0.322 A  
HETATM   12  C   UNL     1      -9.627  10.193  64.460  1.00  0.00    -0.311 A  
HETATM   13  C   UNL     1      -9.121   9.287  65.385  1.00  0.00    -0.277 A  
HETATM   14 BR   UNL     1      -9.241   9.973  62.624  1.00  0.00    -0.306 Br 
HETATM   15  C   UNL     1     -10.409  11.264  64.882  1.00  0.00    -0.362 A  
ENDBRANCH   2   9
BRANCH   8  16
HETATM   16  C   UNL     1     -12.398   8.524  70.831  1.00  0.00    -0.042 C  
BRANCH  16  17
HETATM   17  C   UNL     1     -11.948   7.291  71.622  1.00  0.00    -0.341 C  
BRANCH  17  18
HETATM   18  C   UNL     1     -11.637   6.096  70.722  1.00  0.00    -0.257 C  
BRANCH  18  19
HETATM   19  C   UNL     1     -10.165   6.045  70.364  1.00  0.00    -0.204 C  
HETATM   20  O   UNL     1      -9.271   6.127  71.203  1.00  0.00    -0.152 OA 
BRANCH  19  21
HETATM   21  C   UNL     1      -9.794   5.935  68.926  1.00  0.00    -0.183 A  
HETATM   22  C   UNL     1     -10.823   5.990  67.976  1.00  0.00    -0.374 A  
HETATM   23  C   UNL     1     -10.529   5.876  66.618  1.00  0.00    -0.310 A  
HETATM   24  C   UNL     1      -9.208   5.719  66.215  1.00  0.00    -0.158 A  
HETATM   25  F   UNL     1      -8.927   5.611  64.909  1.00  0.00    -0.137 F  
HETATM   26  C   UNL     1      -8.174   5.677  67.144  1.00  0.00    -0.101 A  
HETATM   27  C   UNL     1      -8.465   5.784  68.506  1.00  0.00    -0.110 A  
ENDBRANCH  19  21
ENDBRANCH  18  19
ENDBRANCH  17  18
ENDBRANCH  16  17
ENDBRANCH   8  16
TORSDOF 6
ENDMDL
MODEL       79
REMARK 921   NORMALIZED FREE ENERGY PREDICTED BY IDOCK:   -5.54 KCAL/MOL
REMARK 922        TOTAL FREE ENERGY PREDICTED BY IDOCK:   -8.70 KCAL/MOL
REMARK 923 INTER-LIGAND FREE ENERGY PREDICTED BY IDOCK:   -6.25 KCAL/MOL
REMARK 924 INTRA-LIGAND FREE ENERGY PREDICTED BY IDOCK:   -2.45 KCAL/MOL
REMARK 927      BINDING AFFINITY PREDICTED BY RF-SCORE:    0.00 PKD
ROOT
HETATM    1  O   UNL     1      -8.898   8.728  73.275  1.00  0.00    -0.280 OA 
HETATM    2  C   UNL     1      -9.634   7.970  72.297  1.00  0.00    -0.223 C  
HETATM    3  H   UNL     1      -9.496   9.355  73.666  1.00  0.00     0.000 HD 
HETATM    4  C   UNL     1      -8.665   6.954  71.663  1.00  0.00    -0.124 C  
HETATM    5  C   UNL     1     -10.802   7.271  73.023  1.00  0.00    -0.399 C  
HETATM    6  C   UNL     1      -8.298   5.836  72.641  1.00  0.00    -0.116 C  
HETATM    7  C   UNL     1     -10.329   6.119  73.913  1.00  0.00    -0.294 C  
HETATM    8  N   UNL     1      -9.463   5.153  73.220  1.00  0.00    -0.141 NA 
ENDROOT
BRANCH   2   9
HETATM    9  C   UNL     1     -10.173   8.950  71.246  1.00  0.00    -0.361 A  
HETATM   10  C   UNL     1      -9.362   9.411  70.194  1.00  0.00    -0.276 A  
HETATM   11  C   UNL     1     -11.492   9.441  71.316  1.00  0.00    -0.433 A  
HETATM   12  C   UNL     1     -11.134  10.819  69.366  1.00  0.00    -0.268 A  
HETATM   13  C   UNL     1      -9.835  10.338  69.261  1.00  0.00    -0.244 A  
HETATM   14 BR   UNL     1     -11.764  12.098  68.126  1.00  0.00    -0.373 Br 
HETATM   15  C   UNL     1     -11.969  10.371  70.385  1.00  0.00    -0.409 A  
ENDBRANCH   2   9
BRANCH   8  16
HETATM   16  C   UNL     1     -10.225   4.343  72.251  1.00  0.00    -0.188 C  
BRANCH  16  17
HETATM   17  C   UNL     1      -9.372   3.363  71.439  1.00  0.00    -0.207 C  
BRANCH  17  18
HETATM   18  C   UNL     1      -9.644   3.450  69.937  1.00  0.00    -0.198 C  
BRANCH  18  19
HETATM   19  C   UNL     1      -8.658   4.374  69.252  1.00  0.00    -0.082 C  
HETATM   20  O   UNL     1      -7.440   4.242  69.351  1.00  0.00    -0.054 OA 
BRANCH  19  21
HETATM   21  C   UNL     1      -9.195   5.517  68.463  1.00  0.00    -0.133 A  
HETATM   22  C   UNL     1      -8.284   6.315  67.757  1.00  0.00    -0.118 A  
HETATM   23  C   UNL     1      -8.735   7.406  67.016  1.00  0.00    -0.123 A  
HETATM   24  C   UNL     1     -10.095   7.688  66.974  1.00  0.00    -0.268 A  
HETATM   25  F   UNL     1     -10.529   8.737  66.261  1.00  0.00    -0.343 F  
HETATM   26  C   UNL     1     -11.014   6.898  67.657  1.00  0.00    -0.304 A  
HETATM   27  C   UNL     1     -10.565   5.808  68.406  1.00  0.00    -0.289 A  
ENDBRANCH  19  21
ENDBRANCH  18  19
ENDBRANCH  17  18
ENDBRANCH  16  17
ENDBRANCH   8  16
TORSDOF 6
ENDMDL
MODEL       80
REMARK 921   NORMALIZED FREE ENERGY PREDICTED BY IDOCK:   -5.54 KCAL/MOL
REMARK 922        TOTAL FREE ENERGY PREDICTED BY IDOCK:   -8.70 KCAL/MOL
REMARK 923 INTER-LIGAND FREE ENERGY PREDICTED BY IDOCK:   -7.15 KCAL/MOL
REMARK 924 INTRA-LIGAND FREE ENERGY PREDICTED BY IDOCK:   -1.55 KCAL/MOL
REMARK 927      BINDING AFFINITY PREDICTED BY RF-SCORE:    0.00 PKD
ROOT
HETATM    1  O   UNL     1     -13.594   7.908  71.329  1.00  0.00    -0.527 OA 
HETATM    2  C   UNL     1     -12.280   8.494  71.311  1.00  0.00    -0.277 C  
HETATM    3  H   UNL     1     -14.021   8.128  70.509  1.00  0.00     0.000 HD 
HETATM    4  C   UNL     1     -11.588   8.139  72.640  1.00  0.00    -0.441 C  
HETATM    5  C   UNL     1     -11.521   7.916  70.099  1.00  0.00    -0.025 C  
HETATM    6  C   UNL     1     -11.214   6.657  72.706  1.00  0.00    -0.227 C  
HETATM    7  C   UNL     1     -11.128   6.450  70.303  1.00  0.00    -0.354 C  
HETATM    8  N   UNL     1     -10.411   6.201  71.563  1.00  0.00    -0.215 NA 
ENDROOT
BRANCH   2   9
HETATM    9  C   UNL     1     -12.441  10.013  71.160  1.00  0.00    -0.480 A  
HETATM   10  C   UNL     1     -11.773  10.721  70.144  1.00  0.00    -0.425 A  
HETATM   11  C   UNL     1     -13.244  10.753  72.051  1.00  0.00    -0.466 A  
HETATM   12  C   UNL     1     -12.665  12.815  70.937  1.00  0.00    -0.192 A  
HETATM   13  C   UNL     1     -11.881  12.110  70.032  1.00  0.00    -0.383 A  
HETATM   14 BR   UNL     1     -12.785  14.697  70.806  1.00  0.00    -0.436 Br 
HETATM   15  C   UNL     1     -13.353  12.144  71.943  1.00  0.00    -0.421 A  
ENDBRANCH   2   9
BRANCH   8  16
HETATM   16  C   UNL     1      -9.047   6.760  71.528  1.00  0.00    -0.145 C  
BRANCH  16  17
HETATM   17  C   UNL     1      -8.271   6.453  70.244  1.00  0.00    -0.125 C  
BRANCH  17  18
HETATM   18  C   UNL     1      -7.275   7.553  69.880  1.00  0.00    -0.080 C  
BRANCH  18  19
HETATM   19  C   UNL     1      -7.949   8.910  69.824  1.00  0.00    -0.100 C  
HETATM   20  O   UNL     1      -8.013   9.663  70.793  1.00  0.00    -0.288 OA 
BRANCH  19  21
HETATM   21  C   UNL     1      -8.598   9.321  68.549  1.00  0.00    -0.128 A  
HETATM   22  C   UNL     1      -8.997   8.315  67.659  1.00  0.00    -0.140 A  
HETATM   23  C   UNL     1      -9.594   8.649  66.445  1.00  0.00    -0.316 A  
HETATM   24  C   UNL     1      -9.801   9.987  66.130  1.00  0.00    -0.246 A  
HETATM   25  F   UNL     1     -10.377  10.307  64.963  1.00  0.00    -0.387 F  
HETATM   26  C   UNL     1      -9.424  10.998  67.009  1.00  0.00    -0.191 A  
HETATM   27  C   UNL     1      -8.819  10.667  68.223  1.00  0.00    -0.139 A  
ENDBRANCH  19  21
ENDBRANCH  18  19
ENDBRANCH  17  18
ENDBRANCH  16  17
ENDBRANCH   8  16
TORSDOF 6
ENDMDL
MODEL       81
REMARK 921   NORMALIZED FREE ENERGY PREDICTED BY IDOCK:   -5.54 KCAL/MOL
REMARK 922        TOTAL FREE ENERGY PREDICTED BY IDOCK:   -8.69 KCAL/MOL
REMARK 923 INTER-LIGAND FREE ENERGY PREDICTED BY IDOCK:   -6.07 KCAL/MOL
REMARK 924 INTRA-LIGAND FREE ENERGY PREDICTED BY IDOCK:   -2.63 KCAL/MOL
REMARK 927      BINDING AFFINITY PREDICTED BY RF-SCORE:    0.00 PKD
ROOT
HETATM    1  O   UNL     1      -9.537   9.425  65.028  1.00  0.00    -0.437 OA 
HETATM    2  C   UNL     1      -9.729   9.395  66.453  1.00  0.00    -0.250 C  
HETATM    3  H   UNL     1     -10.226   8.903  64.632  1.00  0.00     0.000 HD 
HETATM    4  C   UNL     1      -8.612  10.239  67.096  1.00  0.00    -0.126 C  
HETATM    5  C   UNL     1     -11.127   9.971  66.754  1.00  0.00     0.117 C  
HETATM    6  C   UNL     1      -8.812  11.734  66.835  1.00  0.00    -0.191 C  
HETATM    7  C   UNL     1     -11.193  11.484  66.535  1.00  0.00    -0.259 C  
HETATM    8  N   UNL     1     -10.135  12.230  67.235  1.00  0.00    -0.203 NA 
ENDROOT
BRANCH   2   9
HETATM    9  C   UNL     1      -9.648   7.932  66.911  1.00  0.00    -0.263 A  
HETATM   10  C   UNL     1      -8.413   7.328  67.211  1.00  0.00    -0.118 A  
HETATM   11  C   UNL     1     -10.806   7.138  67.021  1.00  0.00    -0.382 A  
HETATM   12  C   UNL     1      -9.489   5.220  67.666  1.00  0.00    -0.123 A  
HETATM   13  C   UNL     1      -8.331   5.984  67.584  1.00  0.00    -0.108 A  
HETATM   14 BR   UNL     1      -9.376   3.393  68.138  1.00  0.00    -0.222 Br 
HETATM   15  C   UNL     1     -10.728   5.791  67.393  1.00  0.00    -0.332 A  
ENDBRANCH   2   9
BRANCH   8  16
HETATM   16  C   UNL     1     -10.356  12.240  68.693  1.00  0.00    -0.188 C  
BRANCH  16  17
HETATM   17  C   UNL     1     -11.812  12.011  69.113  1.00  0.00    -0.369 C  
BRANCH  17  18
HETATM   18  C   UNL     1     -11.942  11.581  70.574  1.00  0.00    -0.439 C  
BRANCH  18  19
HETATM   19  C   UNL     1     -12.493  10.173  70.686  1.00  0.00    -0.284 C  
HETATM   20  O   UNL     1     -13.695   9.931  70.762  1.00  0.00    -0.187 OA 
BRANCH  19  21
HETATM   21  C   UNL     1     -11.526   9.042  70.750  1.00  0.00    -0.331 A  
HETATM   22  C   UNL     1     -12.038   7.747  70.906  1.00  0.00    -0.199 A  
HETATM   23  C   UNL     1     -11.173   6.657  70.988  1.00  0.00    -0.349 A  
HETATM   24  C   UNL     1      -9.802   6.864  70.903  1.00  0.00    -0.185 A  
HETATM   25  F   UNL     1      -8.971   5.815  70.981  1.00  0.00    -0.135 F  
HETATM   26  C   UNL     1      -9.278   8.142  70.735  1.00  0.00    -0.165 A  
HETATM   27  C   UNL     1     -10.140   9.237  70.659  1.00  0.00    -0.339 A  
ENDBRANCH  19  21
ENDBRANCH  18  19
ENDBRANCH  17  18
ENDBRANCH  16  17
ENDBRANCH   8  16
TORSDOF 6
ENDMDL
MODEL       82
REMARK 921   NORMALIZED FREE ENERGY PREDICTED BY IDOCK:   -5.52 KCAL/MOL
REMARK 922        TOTAL FREE ENERGY PREDICTED BY IDOCK:   -8.67 KCAL/MOL
REMARK 923 INTER-LIGAND FREE ENERGY PREDICTED BY IDOCK:   -7.52 KCAL/MOL
REMARK 924 INTRA-LIGAND FREE ENERGY PREDICTED BY IDOCK:   -1.15 KCAL/MOL
REMARK 927      BINDING AFFINITY PREDICTED BY RF-SCORE:    0.00 PKD
ROOT
HETATM    1  O   UNL     1      -9.583  15.190  69.952  1.00  0.00    -0.457 OA 
HETATM    2  C   UNL     1      -9.373  15.731  68.635  1.00  0.00    -0.206 C  
HETATM    3  H   UNL     1      -9.951  15.879  70.493  1.00  0.00     0.000 HD 
HETATM    4  C   UNL     1      -8.776  14.614  67.758  1.00  0.00    -0.172 C  
HETATM    5  C   UNL     1     -10.738  16.211  68.099  1.00  0.00    -0.315 C  
HETATM    6  C   UNL     1      -9.809  13.532  67.437  1.00  0.00    -0.227 C  
HETATM    7  C   UNL     1     -11.663  15.047  67.737  1.00  0.00    -0.274 C  
HETATM    8  N   UNL     1     -11.046  14.057  66.841  1.00  0.00    -0.298 NA 
ENDROOT
BRANCH   2   9
HETATM    9  C   UNL     1      -8.405  16.915  68.758  1.00  0.00    -0.240 A  
HETATM   10  C   UNL     1      -7.055  16.721  69.101  1.00  0.00    -0.222 A  
HETATM   11  C   UNL     1      -8.843  18.239  68.556  1.00  0.00    -0.322 A  
HETATM   12  C   UNL     1      -6.646  19.097  69.071  1.00  0.00    -0.297 A  
HETATM   13  C   UNL     1      -6.181  17.800  69.258  1.00  0.00    -0.239 A  
HETATM   14 BR   UNL     1      -5.474  20.558  69.316  1.00  0.00    -0.380 Br 
HETATM   15  C   UNL     1      -7.972  19.322  68.714  1.00  0.00    -0.392 A  
ENDBRANCH   2   9
BRANCH   8  16
HETATM   16  C   UNL     1     -10.873  14.594  65.479  1.00  0.00    -0.345 C  
BRANCH  16  17
HETATM   17  C   UNL     1     -11.806  13.974  64.433  1.00  0.00    -0.453 C  
BRANCH  17  18
HETATM   18  C   UNL     1     -12.017  12.475  64.646  1.00  0.00    -0.468 C  
BRANCH  18  19
HETATM   19  C   UNL     1     -10.840  11.674  64.126  1.00  0.00    -0.372 C  
HETATM   20  O   UNL     1     -10.382  11.819  62.995  1.00  0.00    -0.342 OA 
BRANCH  19  21
HETATM   21  C   UNL     1     -10.247  10.636  65.014  1.00  0.00    -0.380 A  
HETATM   22  C   UNL     1     -10.870  10.391  66.245  1.00  0.00    -0.022 A  
HETATM   23  C   UNL     1     -10.345   9.441  67.120  1.00  0.00    -0.326 A  
HETATM   24  C   UNL     1      -9.206   8.732  66.756  1.00  0.00    -0.169 A  
HETATM   25  F   UNL     1      -8.702   7.818  67.597  1.00  0.00    -0.123 F  
HETATM   26  C   UNL     1      -8.583   8.954  65.532  1.00  0.00    -0.191 A  
HETATM   27  C   UNL     1      -9.103   9.909  64.656  1.00  0.00    -0.288 A  
ENDBRANCH  19  21
ENDBRANCH  18  19
ENDBRANCH  17  18
ENDBRANCH  16  17
ENDBRANCH   8  16
TORSDOF 6
ENDMDL
MODEL       83
REMARK 921   NORMALIZED FREE ENERGY PREDICTED BY IDOCK:   -5.51 KCAL/MOL
REMARK 922        TOTAL FREE ENERGY PREDICTED BY IDOCK:   -8.66 KCAL/MOL
REMARK 923 INTER-LIGAND FREE ENERGY PREDICTED BY IDOCK:   -8.09 KCAL/MOL
REMARK 924 INTRA-LIGAND FREE ENERGY PREDICTED BY IDOCK:   -0.57 KCAL/MOL
REMARK 927      BINDING AFFINITY PREDICTED BY RF-SCORE:    0.00 PKD
ROOT
HETATM    1  O   UNL     1     -10.022  14.318  64.427  1.00  0.00    -0.634 OA 
HETATM    2  C   UNL     1     -10.531  14.196  65.767  1.00  0.00    -0.311 C  
HETATM    3  H   UNL     1      -9.110  14.579  64.487  1.00  0.00     0.000 HD 
HETATM    4  C   UNL     1     -12.009  13.773  65.671  1.00  0.00    -0.410 C  
HETATM    5  C   UNL     1      -9.681  13.139  66.501  1.00  0.00    -0.268 C  
HETATM    6  C   UNL     1     -12.155  12.324  65.201  1.00  0.00    -0.316 C  
HETATM    7  C   UNL     1      -9.962  11.718  66.007  1.00  0.00    -0.229 C  
HETATM    8  N   UNL     1     -11.390  11.364  66.008  1.00  0.00    -0.198 NA 
ENDROOT
BRANCH   2   9
HETATM    9  C   UNL     1     -10.390  15.561  66.454  1.00  0.00    -0.303 A  
HETATM   10  C   UNL     1     -10.614  15.710  67.834  1.00  0.00    -0.278 A  
HETATM   11  C   UNL     1     -10.057  16.716  65.718  1.00  0.00    -0.301 A  
HETATM   12  C   UNL     1     -10.219  18.085  67.700  1.00  0.00    -0.368 A  
HETATM   13  C   UNL     1     -10.531  16.960  68.455  1.00  0.00    -0.355 A  
HETATM   14 BR   UNL     1     -10.140  19.780  68.532  1.00  0.00    -0.520 Br 
HETATM   15  C   UNL     1      -9.975  17.969  66.335  1.00  0.00    -0.362 A  
ENDBRANCH   2   9
BRANCH   8  16
HETATM   16  C   UNL     1     -11.903  11.192  67.380  1.00  0.00     0.248 C  
BRANCH  16  17
HETATM   17  C   UNL     1     -10.831  10.835  68.415  1.00  0.00    -0.276 C  
BRANCH  17  18
HETATM   18  C   UNL     1     -10.775  11.831  69.573  1.00  0.00     0.046 C  
BRANCH  18  19
HETATM   19  C   UNL     1     -11.898  11.589  70.562  1.00  0.00    -0.267 C  
HETATM   20  O   UNL     1     -12.598  12.494  71.011  1.00  0.00    -0.361 OA 
BRANCH  19  21
HETATM   21  C   UNL     1     -12.127  10.198  71.039  1.00  0.00    -0.476 A  
HETATM   22  C   UNL     1     -11.007   9.384  71.259  1.00  0.00    -0.440 A  
HETATM   23  C   UNL     1     -11.170   8.069  71.691  1.00  0.00    -0.301 A  
HETATM   24  C   UNL     1     -12.450   7.575  71.912  1.00  0.00    -0.303 A  
HETATM   25  F   UNL     1     -12.605   6.310  72.328  1.00  0.00    -0.341 F  
HETATM   26  C   UNL     1     -13.572   8.373  71.712  1.00  0.00    -0.405 A  
HETATM   27  C   UNL     1     -13.413   9.689  71.273  1.00  0.00    -0.359 A  
ENDBRANCH  19  21
ENDBRANCH  18  19
ENDBRANCH  17  18
ENDBRANCH  16  17
ENDBRANCH   8  16
TORSDOF 6
ENDMDL
MODEL       84
REMARK 921   NORMALIZED FREE ENERGY PREDICTED BY IDOCK:   -5.50 KCAL/MOL
REMARK 922        TOTAL FREE ENERGY PREDICTED BY IDOCK:   -8.64 KCAL/MOL
REMARK 923 INTER-LIGAND FREE ENERGY PREDICTED BY IDOCK:   -6.80 KCAL/MOL
REMARK 924 INTRA-LIGAND FREE ENERGY PREDICTED BY IDOCK:   -1.84 KCAL/MOL
REMARK 927      BINDING AFFINITY PREDICTED BY RF-SCORE:    0.00 PKD
ROOT
HETATM    1  O   UNL     1     -10.473   6.183  66.376  1.00  0.00    -0.421 OA 
HETATM    2  C   UNL     1      -9.879   7.067  67.344  1.00  0.00    -0.154 C  
HETATM    3  H   UNL     1     -10.033   6.325  65.546  1.00  0.00     0.000 HD 
HETATM    4  C   UNL     1     -10.592   6.837  68.690  1.00  0.00    -0.263 C  
HETATM    5  C   UNL     1      -8.376   6.733  67.429  1.00  0.00    -0.122 C  
HETATM    6  C   UNL     1     -10.221   5.486  69.304  1.00  0.00    -0.245 C  
HETATM    7  C   UNL     1      -8.114   5.398  68.130  1.00  0.00    -0.095 C  
HETATM    8  N   UNL     1      -8.772   5.279  69.441  1.00  0.00    -0.100 NA 
ENDROOT
BRANCH   2   9
HETATM    9  C   UNL     1     -10.076   8.508  66.853  1.00  0.00    -0.364 A  
HETATM   10  C   UNL     1      -9.576   8.929  65.607  1.00  0.00    -0.175 A  
HETATM   11  C   UNL     1     -10.741   9.463  67.646  1.00  0.00    -0.295 A  
HETATM   12  C   UNL     1     -10.358  11.177  65.990  1.00  0.00    -0.254 A  
HETATM   13  C   UNL     1      -9.714  10.251  65.177  1.00  0.00    -0.364 A  
HETATM   14 BR   UNL     1     -10.515  12.973  65.423  1.00  0.00    -0.320 Br 
HETATM   15  C   UNL     1     -10.880  10.789  67.220  1.00  0.00    -0.344 A  
ENDBRANCH   2   9
BRANCH   8  16
HETATM   16  C   UNL     1      -8.135   6.149  70.446  1.00  0.00    -0.112 C  
BRANCH  16  17
HETATM   17  C   UNL     1      -8.604   5.902  71.884  1.00  0.00    -0.137 C  
BRANCH  17  18
HETATM   18  C   UNL     1      -9.256   7.135  72.511  1.00  0.00    -0.159 C  
BRANCH  18  19
HETATM   19  C   UNL     1     -10.767   7.014  72.518  1.00  0.00    -0.242 C  
HETATM   20  O   UNL     1     -11.352   5.980  72.831  1.00  0.00    -0.256 OA 
BRANCH  19  21
HETATM   21  C   UNL     1     -11.569   8.191  72.084  1.00  0.00    -0.417 A  
HETATM   22  C   UNL     1     -10.894   9.257  71.474  1.00  0.00    -0.442 A  
HETATM   23  C   UNL     1     -11.598  10.389  71.063  1.00  0.00    -0.384 A  
HETATM   24  C   UNL     1     -12.973  10.446  71.254  1.00  0.00    -0.419 A  
HETATM   25  F   UNL     1     -13.648  11.534  70.858  1.00  0.00     0.059 F  
HETATM   26  C   UNL     1     -13.660   9.390  71.845  1.00  0.00    -0.482 A  
HETATM   27  C   UNL     1     -12.958   8.258  72.263  1.00  0.00    -0.289 A  
ENDBRANCH  19  21
ENDBRANCH  18  19
ENDBRANCH  17  18
ENDBRANCH  16  17
ENDBRANCH   8  16
TORSDOF 6
ENDMDL
MODEL       85
REMARK 921   NORMALIZED FREE ENERGY PREDICTED BY IDOCK:   -5.49 KCAL/MOL
REMARK 922        TOTAL FREE ENERGY PREDICTED BY IDOCK:   -8.63 KCAL/MOL
REMARK 923 INTER-LIGAND FREE ENERGY PREDICTED BY IDOCK:   -6.03 KCAL/MOL
REMARK 924 INTRA-LIGAND FREE ENERGY PREDICTED BY IDOCK:   -2.60 KCAL/MOL
REMARK 927      BINDING AFFINITY PREDICTED BY RF-SCORE:    0.00 PKD
ROOT
HETATM    1  O   UNL     1      -5.997  14.385  67.217  1.00  0.00    -0.298 OA 
HETATM    2  C   UNL     1      -7.224  14.021  67.875  1.00  0.00    -0.159 C  
HETATM    3  H   UNL     1      -6.015  14.012  66.344  1.00  0.00     0.000 HD 
HETATM    4  C   UNL     1      -7.196  14.625  69.291  1.00  0.00    -0.156 C  
HETATM    5  C   UNL     1      -8.392  14.580  67.037  1.00  0.00    -0.195 C  
HETATM    6  C   UNL     1      -7.356  16.147  69.261  1.00  0.00    -0.231 C  
HETATM    7  C   UNL     1      -8.507  16.103  67.141  1.00  0.00    -0.191 C  
HETATM    8  N   UNL     1      -8.544  16.600  68.525  1.00  0.00    -0.224 NA 
ENDROOT
BRANCH   2   9
HETATM    9  C   UNL     1      -7.296  12.489  67.929  1.00  0.00    -0.115 A  
HETATM   10  C   UNL     1      -7.417  11.806  69.153  1.00  0.00     0.035 A  
HETATM   11  C   UNL     1      -7.216  11.714  66.755  1.00  0.00    -0.082 A  
HETATM   12  C   UNL     1      -7.337   9.671  68.036  1.00  0.00    -0.082 A  
HETATM   13  C   UNL     1      -7.436  10.410  69.209  1.00  0.00    -0.120 A  
HETATM   14 BR   UNL     1      -7.329   7.783  68.115  1.00  0.00    -0.108 Br 
HETATM   15  C   UNL     1      -7.234  10.315  66.807  1.00  0.00    -0.105 A  
ENDBRANCH   2   9
BRANCH   8  16
HETATM   16  C   UNL     1      -9.820  16.268  69.185  1.00  0.00    -0.258 C  
BRANCH  16  17
HETATM   17  C   UNL     1     -11.036  16.283  68.252  1.00  0.00    -0.348 C  
BRANCH  17  18
HETATM   18  C   UNL     1     -12.008  15.137  68.534  1.00  0.00    -0.243 C  
BRANCH  18  19
HETATM   19  C   UNL     1     -11.948  14.084  67.445  1.00  0.00    -0.404 C  
HETATM   20  O   UNL     1     -12.203  14.327  66.267  1.00  0.00    -0.436 OA 
BRANCH  19  21
HETATM   21  C   UNL     1     -11.608  12.688  67.834  1.00  0.00    -0.401 A  
HETATM   22  C   UNL     1     -11.693  12.344  69.189  1.00  0.00    -0.376 A  
HETATM   23  C   UNL     1     -11.370  11.053  69.607  1.00  0.00    -0.363 A  
HETATM   24  C   UNL     1     -10.974  10.110  68.666  1.00  0.00    -0.230 A  
HETATM   25  F   UNL     1     -10.665   8.869  69.068  1.00  0.00    -0.232 F  
HETATM   26  C   UNL     1     -10.899  10.431  67.315  1.00  0.00    -0.324 A  
HETATM   27  C   UNL     1     -11.215  11.724  66.894  1.00  0.00    -0.387 A  
ENDBRANCH  19  21
ENDBRANCH  18  19
ENDBRANCH  17  18
ENDBRANCH  16  17
ENDBRANCH   8  16
TORSDOF 6
ENDMDL
MODEL       86
REMARK 921   NORMALIZED FREE ENERGY PREDICTED BY IDOCK:   -5.47 KCAL/MOL
REMARK 922        TOTAL FREE ENERGY PREDICTED BY IDOCK:   -8.60 KCAL/MOL
REMARK 923 INTER-LIGAND FREE ENERGY PREDICTED BY IDOCK:   -6.20 KCAL/MOL
REMARK 924 INTRA-LIGAND FREE ENERGY PREDICTED BY IDOCK:   -2.40 KCAL/MOL
REMARK 927      BINDING AFFINITY PREDICTED BY RF-SCORE:    0.00 PKD
ROOT
HETATM    1  O   UNL     1      -6.974  12.798  69.697  1.00  0.00    -0.337 OA 
HETATM    2  C   UNL     1      -7.465  13.050  68.368  1.00  0.00    -0.128 C  
HETATM    3  H   UNL     1      -7.644  13.078  70.311  1.00  0.00     0.000 HD 
HETATM    4  C   UNL     1      -6.380  12.596  67.373  1.00  0.00    -0.152 C  
HETATM    5  C   UNL     1      -8.774  12.254  68.189  1.00  0.00    -0.186 C  
HETATM    6  C   UNL     1      -6.258  11.072  67.323  1.00  0.00    -0.068 C  
HETATM    7  C   UNL     1      -8.529  10.748  68.073  1.00  0.00    -0.124 C  
HETATM    8  N   UNL     1      -7.530  10.387  67.054  1.00  0.00    -0.095 NA 
ENDROOT
BRANCH   2   9
HETATM    9  C   UNL     1      -7.737  14.555  68.241  1.00  0.00    -0.126 A  
HETATM   10  C   UNL     1      -7.213  15.304  67.172  1.00  0.00    -0.139 A  
HETATM   11  C   UNL     1      -8.499  15.241  69.207  1.00  0.00    -0.238 A  
HETATM   12  C   UNL     1      -8.161  17.336  68.055  1.00  0.00    -0.221 A  
HETATM   13  C   UNL     1      -7.421  16.682  67.077  1.00  0.00    -0.239 A  
HETATM   14 BR   UNL     1      -8.414  19.206  67.946  1.00  0.00    -0.345 Br 
HETATM   15  C   UNL     1      -8.708  16.622  69.117  1.00  0.00    -0.127 A  
ENDBRANCH   2   9
BRANCH   8  16
HETATM   16  C   UNL     1      -8.048  10.601  65.691  1.00  0.00    -0.146 C  
BRANCH  16  17
HETATM   17  C   UNL     1      -9.098   9.577  65.246  1.00  0.00    -0.276 C  
BRANCH  17  18
HETATM   18  C   UNL     1     -10.528  10.092  65.404  1.00  0.00    -0.054 C  
BRANCH  18  19
HETATM   19  C   UNL     1     -10.743  11.369  64.614  1.00  0.00    -0.314 C  
HETATM   20  O   UNL     1     -10.758  11.399  63.386  1.00  0.00    -0.381 OA 
BRANCH  19  21
HETATM   21  C   UNL     1     -10.898  12.643  65.367  1.00  0.00    -0.318 A  
HETATM   22  C   UNL     1     -11.805  12.670  66.435  1.00  0.00    -0.466 A  
HETATM   23  C   UNL     1     -11.998  13.845  67.161  1.00  0.00    -0.455 A  
HETATM   24  C   UNL     1     -11.277  14.984  66.824  1.00  0.00    -0.322 A  
HETATM   25  F   UNL     1     -11.463  16.112  67.524  1.00  0.00    -0.220 F  
HETATM   26  C   UNL     1     -10.362  14.970  65.776  1.00  0.00    -0.354 A  
HETATM   27  C   UNL     1     -10.171  13.797  65.042  1.00  0.00    -0.370 A  
ENDBRANCH  19  21
ENDBRANCH  18  19
ENDBRANCH  17  18
ENDBRANCH  16  17
ENDBRANCH   8  16
TORSDOF 6
ENDMDL
MODEL       87
REMARK 921   NORMALIZED FREE ENERGY PREDICTED BY IDOCK:   -5.44 KCAL/MOL
REMARK 922        TOTAL FREE ENERGY PREDICTED BY IDOCK:   -8.55 KCAL/MOL
REMARK 923 INTER-LIGAND FREE ENERGY PREDICTED BY IDOCK:   -7.54 KCAL/MOL
REMARK 924 INTRA-LIGAND FREE ENERGY PREDICTED BY IDOCK:   -1.02 KCAL/MOL
REMARK 927      BINDING AFFINITY PREDICTED BY RF-SCORE:    0.00 PKD
ROOT
HETATM    1  O   UNL     1      -9.403   8.424  73.136  1.00  0.00    -0.237 OA 
HETATM    2  C   UNL     1      -9.894   7.763  71.956  1.00  0.00    -0.174 C  
HETATM    3  H   UNL     1      -8.564   8.035  73.358  1.00  0.00     0.000 HD 
HETATM    4  C   UNL     1     -11.253   8.392  71.596  1.00  0.00    -0.343 C  
HETATM    5  C   UNL     1      -8.855   7.965  70.834  1.00  0.00    -0.141 C  
HETATM    6  C   UNL     1     -11.093   9.814  71.053  1.00  0.00    -0.361 C  
HETATM    7  C   UNL     1      -8.833   9.403  70.312  1.00  0.00    -0.236 C  
HETATM    8  N   UNL     1     -10.159   9.912  69.924  1.00  0.00    -0.245 NA 
ENDROOT
BRANCH   2   9
HETATM    9  C   UNL     1     -10.044   6.270  72.278  1.00  0.00    -0.197 A  
HETATM   10  C   UNL     1      -9.143   5.318  71.766  1.00  0.00    -0.154 A  
HETATM   11  C   UNL     1     -11.105   5.800  73.076  1.00  0.00    -0.305 A  
HETATM   12  C   UNL     1     -10.371   3.517  72.795  1.00  0.00    -0.160 A  
HETATM   13  C   UNL     1      -9.303   3.953  72.019  1.00  0.00    -0.186 A  
HETATM   14 BR   UNL     1     -10.607   1.669  73.110  1.00  0.00    -0.232 Br 
HETATM   15  C   UNL     1     -11.270   4.433  73.331  1.00  0.00    -0.386 A  
ENDBRANCH   2   9
BRANCH   8  16
HETATM   16  C   UNL     1     -10.643   9.269  68.689  1.00  0.00    -0.187 C  
BRANCH  16  17
HETATM   17  C   UNL     1     -11.155  10.247  67.626  1.00  0.00    -0.319 C  
BRANCH  17  18
HETATM   18  C   UNL     1     -10.471  11.612  67.704  1.00  0.00    -0.219 C  
BRANCH  18  19
HETATM   19  C   UNL     1     -11.457  12.736  67.458  1.00  0.00    -0.336 C  
HETATM   20  O   UNL     1     -12.017  12.908  66.377  1.00  0.00    -0.398 OA 
BRANCH  19  21
HETATM   21  C   UNL     1     -11.719  13.697  68.564  1.00  0.00    -0.392 A  
HETATM   22  C   UNL     1     -12.047  13.177  69.823  1.00  0.00    -0.336 A  
HETATM   23  C   UNL     1     -12.317  14.036  70.888  1.00  0.00    -0.443 A  
HETATM   24  C   UNL     1     -12.247  15.410  70.693  1.00  0.00    -0.385 A  
HETATM   25  F   UNL     1     -12.506  16.234  71.718  1.00  0.00    -0.491 F  
HETATM   26  C   UNL     1     -11.909  15.942  69.453  1.00  0.00    -0.325 A  
HETATM   27  C   UNL     1     -11.644  15.086  68.383  1.00  0.00    -0.352 A  
ENDBRANCH  19  21
ENDBRANCH  18  19
ENDBRANCH  17  18
ENDBRANCH  16  17
ENDBRANCH   8  16
TORSDOF 6
ENDMDL
MODEL       88
REMARK 921   NORMALIZED FREE ENERGY PREDICTED BY IDOCK:   -5.42 KCAL/MOL
REMARK 922        TOTAL FREE ENERGY PREDICTED BY IDOCK:   -8.54 KCAL/MOL
REMARK 923 INTER-LIGAND FREE ENERGY PREDICTED BY IDOCK:   -7.53 KCAL/MOL
REMARK 924 INTRA-LIGAND FREE ENERGY PREDICTED BY IDOCK:   -1.01 KCAL/MOL
REMARK 927      BINDING AFFINITY PREDICTED BY RF-SCORE:    0.00 PKD
ROOT
HETATM    1  O   UNL     1     -12.586   7.213  70.644  1.00  0.00    -0.602 OA 
HETATM    2  C   UNL     1     -11.890   8.174  71.458  1.00  0.00    -0.294 C  
HETATM    3  H   UNL     1     -12.963   6.561  71.224  1.00  0.00     0.000 HD 
HETATM    4  C   UNL     1     -11.280   9.231  70.519  1.00  0.00    -0.315 C  
HETATM    5  C   UNL     1     -12.911   8.796  72.433  1.00  0.00    -0.434 C  
HETATM    6  C   UNL     1     -12.354  10.134  69.908  1.00  0.00     0.072 C  
HETATM    7  C   UNL     1     -13.888   9.741  71.729  1.00  0.00    -0.137 C  
HETATM    8  N   UNL     1     -13.229  10.766  70.904  1.00  0.00    -0.194 NA 
ENDROOT
BRANCH   2   9
HETATM    9  C   UNL     1     -10.797   7.430  72.238  1.00  0.00    -0.287 A  
HETATM   10  C   UNL     1      -9.680   8.110  72.757  1.00  0.00    -0.351 A  
HETATM   11  C   UNL     1     -10.864   6.037  72.437  1.00  0.00    -0.288 A  
HETATM   12  C   UNL     1      -8.744   6.052  73.592  1.00  0.00    -0.124 A  
HETATM   13  C   UNL     1      -8.660   7.430  73.428  1.00  0.00    -0.193 A  
HETATM   14 BR   UNL     1      -7.349   5.126  74.470  1.00  0.00    -0.082 Br 
HETATM   15  C   UNL     1      -9.844   5.352  73.106  1.00  0.00    -0.179 A  
ENDBRANCH   2   9
BRANCH   8  16
HETATM   16  C   UNL     1     -12.554  11.778  71.738  1.00  0.00    -0.069 C  
BRANCH  16  17
HETATM   17  C   UNL     1     -13.483  12.866  72.286  1.00  0.00    -0.631 C  
BRANCH  17  18
HETATM   18  C   UNL     1     -13.609  14.062  71.342  1.00  0.00    -0.327 C  
BRANCH  18  19
HETATM   19  C   UNL     1     -12.277  14.762  71.159  1.00  0.00    -0.325 C  
HETATM   20  O   UNL     1     -11.600  15.165  72.102  1.00  0.00    -0.414 OA 
BRANCH  19  21
HETATM   21  C   UNL     1     -11.796  15.008  69.772  1.00  0.00    -0.357 A  
HETATM   22  C   UNL     1     -12.057  14.030  68.802  1.00  0.00    -0.338 A  
HETATM   23  C   UNL     1     -11.613  14.205  67.492  1.00  0.00    -0.396 A  
HETATM   24  C   UNL     1     -10.921  15.362  67.154  1.00  0.00    -0.317 A  
HETATM   25  F   UNL     1     -10.496  15.530  65.894  1.00  0.00    -0.277 F  
HETATM   26  C   UNL     1     -10.666  16.349  68.101  1.00  0.00    -0.336 A  
HETATM   27  C   UNL     1     -11.103  16.173  69.416  1.00  0.00    -0.335 A  
ENDBRANCH  19  21
ENDBRANCH  18  19
ENDBRANCH  17  18
ENDBRANCH  16  17
ENDBRANCH   8  16
TORSDOF 6
ENDMDL
MODEL       89
REMARK 921   NORMALIZED FREE ENERGY PREDICTED BY IDOCK:   -5.41 KCAL/MOL
REMARK 922        TOTAL FREE ENERGY PREDICTED BY IDOCK:   -8.53 KCAL/MOL
REMARK 923 INTER-LIGAND FREE ENERGY PREDICTED BY IDOCK:   -7.27 KCAL/MOL
REMARK 924 INTRA-LIGAND FREE ENERGY PREDICTED BY IDOCK:   -1.26 KCAL/MOL
REMARK 927      BINDING AFFINITY PREDICTED BY RF-SCORE:    0.00 PKD
ROOT
HETATM    1  O   UNL     1      -7.596  10.013  70.930  1.00  0.00    -0.376 OA 
HETATM    2  C   UNL     1      -8.488   9.544  69.903  1.00  0.00    -0.187 C  
HETATM    3  H   UNL     1      -7.593   9.367  71.628  1.00  0.00     0.000 HD 
HETATM    4  C   UNL     1      -8.494  10.590  68.773  1.00  0.00    -0.141 C  
HETATM    5  C   UNL     1      -7.969   8.177  69.414  1.00  0.00    -0.114 C  
HETATM    6  C   UNL     1      -7.176  10.592  67.996  1.00  0.00    -0.087 C  
HETATM    7  C   UNL     1      -6.690   8.302  68.583  1.00  0.00    -0.059 C  
HETATM    8  N   UNL     1      -6.795   9.270  67.480  1.00  0.00    -0.076 NA 
ENDROOT
BRANCH   2   9
HETATM    9  C   UNL     1      -9.884   9.391  70.522  1.00  0.00    -0.331 A  
HETATM   10  C   UNL     1     -10.208   8.285  71.329  1.00  0.00    -0.253 A  
HETATM   11  C   UNL     1     -10.896  10.342  70.282  1.00  0.00    -0.349 A  
HETATM   12  C   UNL     1     -12.475   9.064  71.587  1.00  0.00    -0.351 A  
HETATM   13  C   UNL     1     -11.491   8.120  71.857  1.00  0.00    -0.357 A  
HETATM   14 BR   UNL     1     -14.219   8.823  72.273  1.00  0.00    -0.430 Br 
HETATM   15  C   UNL     1     -12.183  10.179  70.807  1.00  0.00    -0.434 A  
ENDBRANCH   2   9
BRANCH   8  16
HETATM   16  C   UNL     1      -7.672   8.771  66.405  1.00  0.00    -0.099 C  
BRANCH  16  17
HETATM   17  C   UNL     1      -7.060   8.850  65.002  1.00  0.00    -0.083 C  
BRANCH  17  18
HETATM   18  C   UNL     1      -7.447  10.131  64.263  1.00  0.00    -0.116 C  
BRANCH  18  19
HETATM   19  C   UNL     1      -8.826  10.015  63.645  1.00  0.00    -0.232 C  
HETATM   20  O   UNL     1      -9.077   9.257  62.711  1.00  0.00    -0.209 OA 
BRANCH  19  21
HETATM   21  C   UNL     1      -9.908  10.893  64.170  1.00  0.00    -0.369 A  
HETATM   22  C   UNL     1     -10.604  11.696  63.257  1.00  0.00    -0.420 A  
HETATM   23  C   UNL     1     -11.615  12.548  63.701  1.00  0.00    -0.580 A  
HETATM   24  C   UNL     1     -11.934  12.584  65.053  1.00  0.00    -0.427 A  
HETATM   25  F   UNL     1     -12.906  13.402  65.478  1.00  0.00    -0.507 F  
HETATM   26  C   UNL     1     -11.262  11.782  65.970  1.00  0.00    -0.352 A  
HETATM   27  C   UNL     1     -10.245  10.933  65.530  1.00  0.00    -0.332 A  
ENDBRANCH  19  21
ENDBRANCH  18  19
ENDBRANCH  17  18
ENDBRANCH  16  17
ENDBRANCH   8  16
TORSDOF 6
ENDMDL
MODEL       90
REMARK 921   NORMALIZED FREE ENERGY PREDICTED BY IDOCK:   -5.41 KCAL/MOL
REMARK 922        TOTAL FREE ENERGY PREDICTED BY IDOCK:   -8.52 KCAL/MOL
REMARK 923 INTER-LIGAND FREE ENERGY PREDICTED BY IDOCK:   -7.73 KCAL/MOL
REMARK 924 INTRA-LIGAND FREE ENERGY PREDICTED BY IDOCK:   -0.78 KCAL/MOL
REMARK 927      BINDING AFFINITY PREDICTED BY RF-SCORE:    0.00 PKD
ROOT
HETATM    1  O   UNL     1     -11.605   7.898  70.156  1.00  0.00    -0.473 OA 
HETATM    2  C   UNL     1     -10.827   9.078  70.428  1.00  0.00    -0.246 C  
HETATM    3  H   UNL     1     -11.991   7.610  70.975  1.00  0.00     0.000 HD 
HETATM    4  C   UNL     1     -10.202   9.545  69.101  1.00  0.00    -0.209 C  
HETATM    5  C   UNL     1     -11.774  10.142  71.020  1.00  0.00    -0.470 C  
HETATM    6  C   UNL     1     -11.251  10.135  68.156  1.00  0.00    -0.180 C  
HETATM    7  C   UNL     1     -12.729  10.720  69.973  1.00  0.00    -0.111 C  
HETATM    8  N   UNL     1     -12.051  11.208  68.761  1.00  0.00    -0.552 NA 
ENDROOT
BRANCH   2   9
HETATM    9  C   UNL     1      -9.743   8.705  71.449  1.00  0.00    -0.314 A  
HETATM   10  C   UNL     1      -8.389   9.009  71.220  1.00  0.00    -0.180 A  
HETATM   11  C   UNL     1     -10.066   8.023  72.638  1.00  0.00    -0.370 A  
HETATM   12  C   UNL     1      -7.741   7.942  73.281  1.00  0.00    -0.143 A  
HETATM   13  C   UNL     1      -7.394   8.631  72.125  1.00  0.00    -0.061 A  
HETATM   14 BR   UNL     1      -6.392   7.401  74.490  1.00  0.00    -0.083 Br 
HETATM   15  C   UNL     1      -9.073   7.641  73.547  1.00  0.00    -0.317 A  
ENDBRANCH   2   9
BRANCH   8  16
HETATM   16  C   UNL     1     -11.292  12.444  69.028  1.00  0.00    -0.283 C  
BRANCH  16  17
HETATM   17  C   UNL     1     -11.995  13.728  68.576  1.00  0.00    -0.402 C  
BRANCH  17  18
HETATM   18  C   UNL     1     -11.799  14.014  67.088  1.00  0.00    -0.444 C  
BRANCH  18  19
HETATM   19  C   UNL     1     -10.427  14.599  66.816  1.00  0.00    -0.277 C  
HETATM   20  O   UNL     1      -9.477  13.921  66.433  1.00  0.00    -0.280 OA 
BRANCH  19  21
HETATM   21  C   UNL     1     -10.220  16.052  67.068  1.00  0.00    -0.282 A  
HETATM   22  C   UNL     1      -9.845  16.448  68.359  1.00  0.00    -0.233 A  
HETATM   23  C   UNL     1      -9.655  17.798  68.650  1.00  0.00    -0.322 A  
HETATM   24  C   UNL     1      -9.827  18.745  67.647  1.00  0.00    -0.324 A  
HETATM   25  F   UNL     1      -9.643  20.043  67.928  1.00  0.00    -0.420 F  
HETATM   26  C   UNL     1     -10.185  18.367  66.357  1.00  0.00    -0.431 A  
HETATM   27  C   UNL     1     -10.383  17.016  66.063  1.00  0.00    -0.324 A  
ENDBRANCH  19  21
ENDBRANCH  18  19
ENDBRANCH  17  18
ENDBRANCH  16  17
ENDBRANCH   8  16
TORSDOF 6
ENDMDL
MODEL       91
REMARK 921   NORMALIZED FREE ENERGY PREDICTED BY IDOCK:   -5.40 KCAL/MOL
REMARK 922        TOTAL FREE ENERGY PREDICTED BY IDOCK:   -8.51 KCAL/MOL
REMARK 923 INTER-LIGAND FREE ENERGY PREDICTED BY IDOCK:   -7.76 KCAL/MOL
REMARK 924 INTRA-LIGAND FREE ENERGY PREDICTED BY IDOCK:   -0.75 KCAL/MOL
REMARK 927      BINDING AFFINITY PREDICTED BY RF-SCORE:    0.00 PKD
ROOT
HETATM    1  O   UNL     1     -11.109   8.718  68.204  1.00  0.00    -0.463 OA 
HETATM    2  C   UNL     1     -10.182   9.818  68.243  1.00  0.00    -0.183 C  
HETATM    3  H   UNL     1     -11.549   8.680  69.046  1.00  0.00     0.000 HD 
HETATM    4  C   UNL     1      -9.468   9.879  66.880  1.00  0.00    -0.202 C  
HETATM    5  C   UNL     1     -10.987  11.103  68.526  1.00  0.00    -0.267 C  
HETATM    6  C   UNL     1     -10.405  10.363  65.771  1.00  0.00    -0.187 C  
HETATM    7  C   UNL     1     -11.828  11.540  67.324  1.00  0.00     0.024 C  
HETATM    8  N   UNL     1     -11.063  11.642  66.072  1.00  0.00    -0.295 NA 
ENDROOT
BRANCH   2   9
HETATM    9  C   UNL     1      -9.184   9.556  69.379  1.00  0.00    -0.181 A  
HETATM   10  C   UNL     1      -7.818   9.863  69.235  1.00  0.00    -0.117 A  
HETATM   11  C   UNL     1      -9.598   8.976  70.594  1.00  0.00    -0.289 A  
HETATM   12  C   UNL     1      -7.333   8.993  71.431  1.00  0.00    -0.036 A  
HETATM   13  C   UNL     1      -6.899   9.584  70.250  1.00  0.00    -0.092 A  
HETATM   14 BR   UNL     1      -6.085   8.586  72.790  1.00  0.00    -0.084 Br 
HETATM   15  C   UNL     1      -8.680   8.694  71.612  1.00  0.00    -0.270 A  
ENDBRANCH   2   9
BRANCH   8  16
HETATM   16  C   UNL     1     -10.147  12.797  66.092  1.00  0.00    -0.266 C  
BRANCH  16  17
HETATM   17  C   UNL     1     -10.833  14.152  65.890  1.00  0.00    -0.294 C  
BRANCH  17  18
HETATM   18  C   UNL     1      -9.843  15.275  65.583  1.00  0.00    -0.383 C  
BRANCH  18  19
HETATM   19  C   UNL     1     -10.555  16.597  65.376  1.00  0.00    -0.237 C  
HETATM   20  O   UNL     1     -11.166  16.871  64.346  1.00  0.00    -1.159 OA 
BRANCH  19  21
HETATM   21  C   UNL     1     -10.469  17.619  66.455  1.00  0.00    -0.286 A  
HETATM   22  C   UNL     1     -10.528  18.970  66.087  1.00  0.00    -0.541 A  
HETATM   23  C   UNL     1     -10.435  19.966  67.058  1.00  0.00    -0.570 A  
HETATM   24  C   UNL     1     -10.294  19.608  68.393  1.00  0.00    -0.386 A  
HETATM   25  F   UNL     1     -10.206  20.566  69.326  1.00  0.00    -0.294 F  
HETATM   26  C   UNL     1     -10.248  18.271  68.777  1.00  0.00    -0.342 A  
HETATM   27  C   UNL     1     -10.334  17.271  67.807  1.00  0.00    -0.356 A  
ENDBRANCH  19  21
ENDBRANCH  18  19
ENDBRANCH  17  18
ENDBRANCH  16  17
ENDBRANCH   8  16
TORSDOF 6
ENDMDL
MODEL       92
REMARK 921   NORMALIZED FREE ENERGY PREDICTED BY IDOCK:   -5.39 KCAL/MOL
REMARK 922        TOTAL FREE ENERGY PREDICTED BY IDOCK:   -8.49 KCAL/MOL
REMARK 923 INTER-LIGAND FREE ENERGY PREDICTED BY IDOCK:   -6.60 KCAL/MOL
REMARK 924 INTRA-LIGAND FREE ENERGY PREDICTED BY IDOCK:   -1.90 KCAL/MOL
REMARK 927      BINDING AFFINITY PREDICTED BY RF-SCORE:    0.00 PKD
ROOT
HETATM    1  O   UNL     1     -11.037   5.564  66.432  1.00  0.00    -0.681 OA 
HETATM    2  C   UNL     1     -10.102   6.346  67.197  1.00  0.00    -0.168 C  
HETATM    3  H   UNL     1     -10.542   5.059  65.797  1.00  0.00     0.000 HD 
HETATM    4  C   UNL     1     -10.904   7.164  68.226  1.00  0.00    -0.156 C  
HETATM    5  C   UNL     1      -9.120   5.372  67.881  1.00  0.00    -0.112 C  
HETATM    6  C   UNL     1     -11.474   6.277  69.335  1.00  0.00    -0.278 C  
HETATM    7  C   UNL     1      -9.774   4.593  69.025  1.00  0.00    -0.172 C  
HETATM    8  N   UNL     1     -10.463   5.448  70.004  1.00  0.00    -0.301 NA 
ENDROOT
BRANCH   2   9
HETATM    9  C   UNL     1      -9.348   7.265  66.227  1.00  0.00    -0.160 A  
HETATM   10  C   UNL     1      -9.703   8.617  66.077  1.00  0.00    -0.238 A  
HETATM   11  C   UNL     1      -8.290   6.777  65.434  1.00  0.00    -0.123 A  
HETATM   12  C   UNL     1      -8.021   8.932  64.379  1.00  0.00    -0.137 A  
HETATM   13  C   UNL     1      -9.049   9.446  65.162  1.00  0.00    -0.280 A  
HETATM   14 BR   UNL     1      -7.158  10.042  63.117  1.00  0.00    -0.130 Br 
HETATM   15  C   UNL     1      -7.633   7.602  64.515  1.00  0.00    -0.112 A  
ENDBRANCH   2   9
BRANCH   8  16
HETATM   16  C   UNL     1      -9.505   6.214  70.821  1.00  0.00    -0.168 C  
BRANCH  16  17
HETATM   17  C   UNL     1     -10.064   6.700  72.162  1.00  0.00    -0.194 C  
BRANCH  17  18
HETATM   18  C   UNL     1      -9.982   8.218  72.320  1.00  0.00    -0.366 C  
BRANCH  18  19
HETATM   19  C   UNL     1     -11.250   8.891  71.835  1.00  0.00    -0.377 C  
HETATM   20  O   UNL     1     -12.352   8.676  72.334  1.00  0.00    -0.379 OA 
BRANCH  19  21
HETATM   21  C   UNL     1     -11.155   9.818  70.674  1.00  0.00    -0.398 A  
HETATM   22  C   UNL     1      -9.914   9.947  70.035  1.00  0.00    -0.302 A  
HETATM   23  C   UNL     1      -9.769  10.815  68.954  1.00  0.00    -0.207 A  
HETATM   24  C   UNL     1     -10.866  11.542  68.508  1.00  0.00    -0.215 A  
HETATM   25  F   UNL     1     -10.726  12.375  67.468  1.00  0.00    -0.217 F  
HETATM   26  C   UNL     1     -12.108  11.415  69.122  1.00  0.00    -0.331 A  
HETATM   27  C   UNL     1     -12.256  10.552  70.210  1.00  0.00    -0.393 A  
ENDBRANCH  19  21
ENDBRANCH  18  19
ENDBRANCH  17  18
ENDBRANCH  16  17
ENDBRANCH   8  16
TORSDOF 6
ENDMDL
MODEL       93
REMARK 921   NORMALIZED FREE ENERGY PREDICTED BY IDOCK:   -5.38 KCAL/MOL
REMARK 922        TOTAL FREE ENERGY PREDICTED BY IDOCK:   -8.48 KCAL/MOL
REMARK 923 INTER-LIGAND FREE ENERGY PREDICTED BY IDOCK:   -6.32 KCAL/MOL
REMARK 924 INTRA-LIGAND FREE ENERGY PREDICTED BY IDOCK:   -2.16 KCAL/MOL
REMARK 927      BINDING AFFINITY PREDICTED BY RF-SCORE:    0.00 PKD
ROOT
HETATM    1  O   UNL     1      -6.544  13.108  69.972  1.00  0.00    -0.358 OA 
HETATM    2  C   UNL     1      -7.261  13.384  68.755  1.00  0.00    -0.092 C  
HETATM    3  H   UNL     1      -5.934  12.401  69.795  1.00  0.00     0.000 HD 
HETATM    4  C   UNL     1      -8.250  14.530  69.042  1.00  0.00    -0.076 C  
HETATM    5  C   UNL     1      -6.229  13.775  67.678  1.00  0.00    -0.119 C  
HETATM    6  C   UNL     1      -7.529  15.866  69.231  1.00  0.00    -0.219 C  
HETATM    7  C   UNL     1      -5.628  15.161  67.923  1.00  0.00    -0.127 C  
HETATM    8  N   UNL     1      -6.634  16.216  68.119  1.00  0.00    -0.119 NA 
ENDROOT
BRANCH   2   9
HETATM    9  C   UNL     1      -8.002  12.105  68.341  1.00  0.00    -0.152 A  
HETATM   10  C   UNL     1      -7.307  10.906  68.095  1.00  0.00    -0.089 A  
HETATM   11  C   UNL     1      -9.400  12.096  68.169  1.00  0.00    -0.204 A  
HETATM   12  C   UNL     1      -9.351   9.779  67.494  1.00  0.00    -0.133 A  
HETATM   13  C   UNL     1      -7.973   9.752  67.674  1.00  0.00    -0.105 A  
HETATM   14 BR   UNL     1     -10.248   8.228  66.892  1.00  0.00    -0.382 Br 
HETATM   15  C   UNL     1     -10.070  10.943  67.746  1.00  0.00    -0.203 A  
ENDBRANCH   2   9
BRANCH   8  16
HETATM   16  C   UNL     1      -7.337  16.533  66.863  1.00  0.00    -0.225 C  
BRANCH  16  17
HETATM   17  C   UNL     1      -8.189  17.805  66.919  1.00  0.00    -0.254 C  
BRANCH  17  18
HETATM   18  C   UNL     1      -9.540  17.641  66.225  1.00  0.00    -0.259 C  
BRANCH  18  19
HETATM   19  C   UNL     1     -10.483  16.788  67.051  1.00  0.00    -0.285 C  
HETATM   20  O   UNL     1     -10.800  17.070  68.204  1.00  0.00    -0.370 OA 
BRANCH  19  21
HETATM   21  C   UNL     1     -11.009  15.533  66.447  1.00  0.00    -0.238 A  
HETATM   22  C   UNL     1     -11.892  14.756  67.209  1.00  0.00    -0.316 A  
HETATM   23  C   UNL     1     -12.399  13.564  66.695  1.00  0.00    -0.351 A  
HETATM   24  C   UNL     1     -12.031  13.158  65.418  1.00  0.00    -0.406 A  
HETATM   25  F   UNL     1     -12.520  12.012  64.923  1.00  0.00    -0.409 F  
HETATM   26  C   UNL     1     -11.166  13.925  64.642  1.00  0.00    -0.380 A  
HETATM   27  C   UNL     1     -10.651  15.117  65.157  1.00  0.00    -0.447 A  
ENDBRANCH  19  21
ENDBRANCH  18  19
ENDBRANCH  17  18
ENDBRANCH  16  17
ENDBRANCH   8  16
TORSDOF 6
ENDMDL
MODEL       94
REMARK 921   NORMALIZED FREE ENERGY PREDICTED BY IDOCK:   -5.36 KCAL/MOL
REMARK 922        TOTAL FREE ENERGY PREDICTED BY IDOCK:   -8.46 KCAL/MOL
REMARK 923 INTER-LIGAND FREE ENERGY PREDICTED BY IDOCK:   -7.62 KCAL/MOL
REMARK 924 INTRA-LIGAND FREE ENERGY PREDICTED BY IDOCK:   -0.84 KCAL/MOL
REMARK 927      BINDING AFFINITY PREDICTED BY RF-SCORE:    0.00 PKD
ROOT
HETATM    1  O   UNL     1     -10.151   7.151  71.719  1.00  0.00    -0.184 OA 
HETATM    2  C   UNL     1     -10.572   7.809  70.511  1.00  0.00    -0.226 C  
HETATM    3  H   UNL     1     -10.930   6.944  72.222  1.00  0.00     0.000 HD 
HETATM    4  C   UNL     1      -9.310   8.146  69.695  1.00  0.00    -0.159 C  
HETATM    5  C   UNL     1     -11.506   6.846  69.749  1.00  0.00    -0.247 C  
HETATM    6  C   UNL     1      -8.668   6.891  69.100  1.00  0.00    -0.135 C  
HETATM    7  C   UNL     1     -10.749   5.669  69.130  1.00  0.00    -0.255 C  
HETATM    8  N   UNL     1      -9.597   6.072  68.309  1.00  0.00    -0.117 NA 
ENDROOT
BRANCH   2   9
HETATM    9  C   UNL     1     -11.332   9.083  70.905  1.00  0.00    -0.351 A  
HETATM   10  C   UNL     1     -12.305   9.068  71.920  1.00  0.00    -0.455 A  
HETATM   11  C   UNL     1     -11.096  10.306  70.245  1.00  0.00    -0.388 A  
HETATM   12  C   UNL     1     -12.791  11.403  71.569  1.00  0.00    -0.403 A  
HETATM   13  C   UNL     1     -13.031  10.216  72.251  1.00  0.00    -0.316 A  
HETATM   14 BR   UNL     1     -13.795  12.947  71.993  1.00  0.00    -0.122 Br 
HETATM   15  C   UNL     1     -11.822  11.457  70.572  1.00  0.00    -0.394 A  
ENDBRANCH   2   9
BRANCH   8  16
HETATM   16  C   UNL     1     -10.027   6.705  67.048  1.00  0.00    -0.169 C  
BRANCH  16  17
HETATM   17  C   UNL     1      -9.450   8.105  66.815  1.00  0.00    -0.256 C  
BRANCH  17  18
HETATM   18  C   UNL     1     -10.530   9.186  66.765  1.00  0.00    -0.266 C  
BRANCH  18  19
HETATM   19  C   UNL     1      -9.923  10.573  66.836  1.00  0.00    -0.200 C  
HETATM   20  O   UNL     1      -8.893  10.820  67.459  1.00  0.00    -0.129 OA 
BRANCH  19  21
HETATM   21  C   UNL     1     -10.636  11.689  66.155  1.00  0.00    -0.306 A  
HETATM   22  C   UNL     1     -10.200  12.066  64.877  1.00  0.00    -0.302 A  
HETATM   23  C   UNL     1     -10.825  13.115  64.205  1.00  0.00    -0.430 A  
HETATM   24  C   UNL     1     -11.889  13.775  64.807  1.00  0.00    -0.391 A  
HETATM   25  F   UNL     1     -12.490  14.783  64.159  1.00  0.00    -0.513 F  
HETATM   26  C   UNL     1     -12.344  13.404  66.068  1.00  0.00    -0.471 A  
HETATM   27  C   UNL     1     -11.716  12.358  66.747  1.00  0.00    -0.430 A  
ENDBRANCH  19  21
ENDBRANCH  18  19
ENDBRANCH  17  18
ENDBRANCH  16  17
ENDBRANCH   8  16
TORSDOF 6
ENDMDL
MODEL       95
REMARK 921   NORMALIZED FREE ENERGY PREDICTED BY IDOCK:   -5.35 KCAL/MOL
REMARK 922        TOTAL FREE ENERGY PREDICTED BY IDOCK:   -8.43 KCAL/MOL
REMARK 923 INTER-LIGAND FREE ENERGY PREDICTED BY IDOCK:   -6.27 KCAL/MOL
REMARK 924 INTRA-LIGAND FREE ENERGY PREDICTED BY IDOCK:   -2.16 KCAL/MOL
REMARK 927      BINDING AFFINITY PREDICTED BY RF-SCORE:    0.00 PKD
ROOT
HETATM    1  O   UNL     1      -5.872  15.471  67.219  1.00  0.00    -0.333 OA 
HETATM    2  C   UNL     1      -7.212  15.993  67.259  1.00  0.00    -0.206 C  
HETATM    3  H   UNL     1      -5.779  14.971  66.416  1.00  0.00     0.000 HD 
HETATM    4  C   UNL     1      -7.363  16.802  68.561  1.00  0.00    -0.205 C  
HETATM    5  C   UNL     1      -7.412  16.876  66.010  1.00  0.00    -0.029 C  
HETATM    6  C   UNL     1      -6.572  18.111  68.509  1.00  0.00    -0.218 C  
HETATM    7  C   UNL     1      -6.638  18.194  66.098  1.00  0.00    -0.246 C  
HETATM    8  N   UNL     1      -6.886  18.943  67.340  1.00  0.00    -0.200 NA 
ENDROOT
BRANCH   2   9
HETATM    9  C   UNL     1      -8.184  14.806  67.231  1.00  0.00    -0.237 A  
HETATM   10  C   UNL     1      -9.126  14.658  66.196  1.00  0.00    -0.125 A  
HETATM   11  C   UNL     1      -8.182  13.838  68.254  1.00  0.00    -0.156 A  
HETATM   12  C   UNL     1     -10.030  12.674  67.225  1.00  0.00    -0.212 A  
HETATM   13  C   UNL     1     -10.043  13.603  66.191  1.00  0.00    -0.311 A  
HETATM   14 BR   UNL     1     -11.290  11.266  67.236  1.00  0.00    -0.262 Br 
HETATM   15  C   UNL     1      -9.099  12.781  68.254  1.00  0.00    -0.180 A  
ENDBRANCH   2   9
BRANCH   8  16
HETATM   16  C   UNL     1      -8.243  19.519  67.361  1.00  0.00    -0.286 C  
BRANCH  16  17
HETATM   17  C   UNL     1      -9.022  19.252  68.653  1.00  0.00    -0.419 C  
BRANCH  17  18
HETATM   18  C   UNL     1     -10.512  19.020  68.405  1.00  0.00    -0.281 C  
BRANCH  18  19
HETATM   19  C   UNL     1     -10.772  17.623  67.877  1.00  0.00    -0.337 C  
HETATM   20  O   UNL     1     -10.723  17.343  66.681  1.00  0.00    -0.225 OA 
BRANCH  19  21
HETATM   21  C   UNL     1     -11.146  16.561  68.850  1.00  0.00    -0.300 A  
HETATM   22  C   UNL     1     -12.017  15.551  68.419  1.00  0.00    -0.123 A  
HETATM   23  C   UNL     1     -12.410  14.542  69.298  1.00  0.00    -0.185 A  
HETATM   24  C   UNL     1     -11.922  14.540  70.599  1.00  0.00    -0.319 A  
HETATM   25  F   UNL     1     -12.300  13.570  71.442  1.00  0.00    -0.408 F  
HETATM   26  C   UNL     1     -11.045  15.527  71.038  1.00  0.00    -0.387 A  
HETATM   27  C   UNL     1     -10.655  16.543  70.163  1.00  0.00    -0.083 A  
ENDBRANCH  19  21
ENDBRANCH  18  19
ENDBRANCH  17  18
ENDBRANCH  16  17
ENDBRANCH   8  16
TORSDOF 6
ENDMDL
MODEL       96
REMARK 921   NORMALIZED FREE ENERGY PREDICTED BY IDOCK:   -5.33 KCAL/MOL
REMARK 922        TOTAL FREE ENERGY PREDICTED BY IDOCK:   -8.42 KCAL/MOL
REMARK 923 INTER-LIGAND FREE ENERGY PREDICTED BY IDOCK:   -7.13 KCAL/MOL
REMARK 924 INTRA-LIGAND FREE ENERGY PREDICTED BY IDOCK:   -1.29 KCAL/MOL
REMARK 927      BINDING AFFINITY PREDICTED BY RF-SCORE:    0.00 PKD
ROOT
HETATM    1  O   UNL     1     -10.982   5.869  66.867  1.00  0.00    -0.471 OA 
HETATM    2  C   UNL     1     -10.111   6.641  67.713  1.00  0.00    -0.148 C  
HETATM    3  H   UNL     1     -11.874   6.011  67.163  1.00  0.00     0.000 HD 
HETATM    4  C   UNL     1      -8.665   6.411  67.233  1.00  0.00    -0.106 C  
HETATM    5  C   UNL     1     -10.525   8.122  67.590  1.00  0.00    -0.300 C  
HETATM    6  C   UNL     1      -8.399   7.091  65.889  1.00  0.00    -0.141 C  
HETATM    7  C   UNL     1     -10.142   8.724  66.236  1.00  0.00    -0.184 C  
HETATM    8  N   UNL     1      -8.729   8.523  65.878  1.00  0.00    -0.165 NA 
ENDROOT
BRANCH   2   9
HETATM    9  C   UNL     1     -10.298   6.155  69.156  1.00  0.00    -0.271 A  
HETATM   10  C   UNL     1      -9.759   4.931  69.591  1.00  0.00    -0.266 A  
HETATM   11  C   UNL     1     -11.040   6.908  70.088  1.00  0.00    -0.344 A  
HETATM   12  C   UNL     1     -10.719   5.219  71.783  1.00  0.00    -0.170 A  
HETATM   13  C   UNL     1      -9.966   4.464  70.891  1.00  0.00    -0.242 A  
HETATM   14 BR   UNL     1     -11.027   4.573  73.532  1.00  0.00    -0.396 Br 
HETATM   15  C   UNL     1     -11.252   6.443  71.391  1.00  0.00    -0.340 A  
ENDBRANCH   2   9
BRANCH   8  16
HETATM   16  C   UNL     1      -7.837   9.350  66.712  1.00  0.00    -0.105 C  
BRANCH  16  17
HETATM   17  C   UNL     1      -7.854  10.842  66.367  1.00  0.00    -0.154 C  
BRANCH  17  18
HETATM   18  C   UNL     1      -8.150  11.724  67.580  1.00  0.00    -0.144 C  
BRANCH  18  19
HETATM   19  C   UNL     1      -9.638  11.973  67.730  1.00  0.00    -0.193 C  
HETATM   20  O   UNL     1     -10.277  11.618  68.718  1.00  0.00    -0.212 OA 
BRANCH  19  21
HETATM   21  C   UNL     1     -10.356  12.637  66.608  1.00  0.00    -0.249 A  
HETATM   22  C   UNL     1     -11.449  11.969  66.040  1.00  0.00    -0.399 A  
HETATM   23  C   UNL     1     -12.145  12.541  64.976  1.00  0.00    -0.504 A  
HETATM   24  C   UNL     1     -11.754  13.784  64.493  1.00  0.00    -0.407 A  
HETATM   25  F   UNL     1     -12.425  14.334  63.471  1.00  0.00    -0.451 F  
HETATM   26  C   UNL     1     -10.680  14.467  65.055  1.00  0.00    -0.444 A  
HETATM   27  C   UNL     1      -9.977  13.894  66.116  1.00  0.00    -0.322 A  
ENDBRANCH  19  21
ENDBRANCH  18  19
ENDBRANCH  17  18
ENDBRANCH  16  17
ENDBRANCH   8  16
TORSDOF 6
ENDMDL
MODEL       97
REMARK 921   NORMALIZED FREE ENERGY PREDICTED BY IDOCK:   -5.33 KCAL/MOL
REMARK 922        TOTAL FREE ENERGY PREDICTED BY IDOCK:   -8.41 KCAL/MOL
REMARK 923 INTER-LIGAND FREE ENERGY PREDICTED BY IDOCK:   -5.95 KCAL/MOL
REMARK 924 INTRA-LIGAND FREE ENERGY PREDICTED BY IDOCK:   -2.46 KCAL/MOL
REMARK 927      BINDING AFFINITY PREDICTED BY RF-SCORE:    0.00 PKD
ROOT
HETATM    1  O   UNL     1      -7.529  10.660  70.274  1.00  0.00    -0.447 OA 
HETATM    2  C   UNL     1      -8.338   9.732  69.528  1.00  0.00    -0.161 C  
HETATM    3  H   UNL     1      -7.417  10.308  71.149  1.00  0.00     0.000 HD 
HETATM    4  C   UNL     1      -8.520  10.302  68.109  1.00  0.00    -0.123 C  
HETATM    5  C   UNL     1      -7.604   8.376  69.510  1.00  0.00    -0.090 C  
HETATM    6  C   UNL     1      -7.224  10.231  67.299  1.00  0.00    -0.089 C  
HETATM    7  C   UNL     1      -6.367   8.394  68.608  1.00  0.00    -0.053 C  
HETATM    8  N   UNL     1      -6.634   8.887  67.248  1.00  0.00    -0.061 NA 
ENDROOT
BRANCH   2   9
HETATM    9  C   UNL     1      -9.687   9.596  70.247  1.00  0.00    -0.314 A  
HETATM   10  C   UNL     1      -9.804   8.875  71.449  1.00  0.00    -0.376 A  
HETATM   11  C   UNL     1     -10.858  10.168  69.713  1.00  0.00    -0.320 A  
HETATM   12  C   UNL     1     -12.181   9.270  71.522  1.00  0.00    -0.362 A  
HETATM   13  C   UNL     1     -11.039   8.711  72.082  1.00  0.00    -0.434 A  
HETATM   14 BR   UNL     1     -13.856   9.020  72.360  1.00  0.00    -0.496 Br 
HETATM   15  C   UNL     1     -12.097  10.005  70.343  1.00  0.00    -0.284 A  
ENDBRANCH   2   9
BRANCH   8  16
HETATM   16  C   UNL     1      -7.423   7.916  66.467  1.00  0.00    -0.088 C  
BRANCH  16  17
HETATM   17  C   UNL     1      -6.638   6.679  66.018  1.00  0.00    -0.044 C  
BRANCH  17  18
HETATM   18  C   UNL     1      -7.131   5.395  66.684  1.00  0.00    -0.069 C  
BRANCH  18  19
HETATM   19  C   UNL     1      -8.638   5.262  66.575  1.00  0.00    -0.112 C  
HETATM   20  O   UNL     1      -9.214   5.056  65.509  1.00  0.00    -0.156 OA 
BRANCH  19  21
HETATM   21  C   UNL     1      -9.450   5.433  67.810  1.00  0.00    -0.132 A  
HETATM   22  C   UNL     1      -9.084   4.697  68.946  1.00  0.00    -0.163 A  
HETATM   23  C   UNL     1      -9.823   4.811  70.122  1.00  0.00    -0.308 A  
HETATM   24  C   UNL     1     -10.917   5.666  70.164  1.00  0.00    -0.233 A  
HETATM   25  F   UNL     1     -11.625   5.775  71.296  1.00  0.00    -0.307 F  
HETATM   26  C   UNL     1     -11.285   6.415  69.050  1.00  0.00    -0.402 A  
HETATM   27  C   UNL     1     -10.551   6.299  67.867  1.00  0.00    -0.327 A  
ENDBRANCH  19  21
ENDBRANCH  18  19
ENDBRANCH  17  18
ENDBRANCH  16  17
ENDBRANCH   8  16
TORSDOF 6
ENDMDL
MODEL       98
REMARK 921   NORMALIZED FREE ENERGY PREDICTED BY IDOCK:   -5.32 KCAL/MOL
REMARK 922        TOTAL FREE ENERGY PREDICTED BY IDOCK:   -8.40 KCAL/MOL
REMARK 923 INTER-LIGAND FREE ENERGY PREDICTED BY IDOCK:   -6.49 KCAL/MOL
REMARK 924 INTRA-LIGAND FREE ENERGY PREDICTED BY IDOCK:   -1.91 KCAL/MOL
REMARK 927      BINDING AFFINITY PREDICTED BY RF-SCORE:    0.00 PKD
ROOT
HETATM    1  O   UNL     1      -8.030   9.717  66.588  1.00  0.00    -0.107 OA 
HETATM    2  C   UNL     1      -8.787  10.375  67.621  1.00  0.00    -0.124 C  
HETATM    3  H   UNL     1      -7.307  10.286  66.351  1.00  0.00     0.000 HD 
HETATM    4  C   UNL     1      -9.959   9.452  68.005  1.00  0.00    -0.209 C  
HETATM    5  C   UNL     1      -7.840  10.624  68.813  1.00  0.00    -0.125 C  
HETATM    6  C   UNL     1      -9.480   8.219  68.775  1.00  0.00    -0.148 C  
HETATM    7  C   UNL     1      -7.488   9.335  69.558  1.00  0.00    -0.079 C  
HETATM    8  N   UNL     1      -8.662   8.540  69.952  1.00  0.00    -0.130 NA 
ENDROOT
BRANCH   2   9
HETATM    9  C   UNL     1      -9.295  11.709  67.058  1.00  0.00    -0.186 A  
HETATM   10  C   UNL     1      -9.941  11.776  65.810  1.00  0.00    -0.269 A  
HETATM   11  C   UNL     1      -9.109  12.915  67.762  1.00  0.00    -0.197 A  
HETATM   12  C   UNL     1     -10.150  14.172  65.983  1.00  0.00    -0.316 A  
HETATM   13  C   UNL     1     -10.365  12.995  65.274  1.00  0.00    -0.318 A  
HETATM   14 BR   UNL     1     -10.693  15.824  65.244  1.00  0.00    -0.433 Br 
HETATM   15  C   UNL     1      -9.530  14.138  67.228  1.00  0.00    -0.229 A  
ENDBRANCH   2   9
BRANCH   8  16
HETATM   16  C   UNL     1      -9.412   9.190  71.043  1.00  0.00    -0.274 C  
BRANCH  16  17
HETATM   17  C   UNL     1     -10.464   8.296  71.707  1.00  0.00    -0.325 C  
BRANCH  17  18
HETATM   18  C   UNL     1     -11.703   9.073  72.151  1.00  0.00    -0.366 C  
BRANCH  18  19
HETATM   19  C   UNL     1     -12.342   9.801  70.985  1.00  0.00    -0.332 C  
HETATM   20  O   UNL     1     -12.727   9.226  69.969  1.00  0.00     0.649 OA 
BRANCH  19  21
HETATM   21  C   UNL     1     -12.465  11.283  71.063  1.00  0.00    -0.503 A  
HETATM   22  C   UNL     1     -11.825  12.049  70.080  1.00  0.00    -0.392 A  
HETATM   23  C   UNL     1     -11.896  13.440  70.118  1.00  0.00    -0.342 A  
HETATM   24  C   UNL     1     -12.616  14.060  71.132  1.00  0.00    -0.371 A  
HETATM   25  F   UNL     1     -12.685  15.398  71.168  1.00  0.00    -0.337 F  
HETATM   26  C   UNL     1     -13.270  13.314  72.108  1.00  0.00    -0.562 A  
HETATM   27  C   UNL     1     -13.195  11.920  72.076  1.00  0.00    -0.461 A  
ENDBRANCH  19  21
ENDBRANCH  18  19
ENDBRANCH  17  18
ENDBRANCH  16  17
ENDBRANCH   8  16
TORSDOF 6
ENDMDL
MODEL       99
REMARK 921   NORMALIZED FREE ENERGY PREDICTED BY IDOCK:   -5.31 KCAL/MOL
REMARK 922        TOTAL FREE ENERGY PREDICTED BY IDOCK:   -8.38 KCAL/MOL
REMARK 923 INTER-LIGAND FREE ENERGY PREDICTED BY IDOCK:   -7.31 KCAL/MOL
REMARK 924 INTRA-LIGAND FREE ENERGY PREDICTED BY IDOCK:   -1.07 KCAL/MOL
REMARK 927      BINDING AFFINITY PREDICTED BY RF-SCORE:    0.00 PKD
ROOT
HETATM    1  O   UNL     1      -9.725  13.150  65.231  1.00  0.00    -0.492 OA 
HETATM    2  C   UNL     1      -9.736  11.921  65.979  1.00  0.00    -0.237 C  
HETATM    3  H   UNL     1     -10.269  13.026  64.462  1.00  0.00     0.000 HD 
HETATM    4  C   UNL     1      -8.853  12.121  67.225  1.00  0.00    -0.186 C  
HETATM    5  C   UNL     1     -11.198  11.611  66.358  1.00  0.00    -0.349 C  
HETATM    6  C   UNL     1      -9.513  13.054  68.243  1.00  0.00    -0.208 C  
HETATM    7  C   UNL     1     -11.733  12.555  67.438  1.00  0.00    -0.366 C  
HETATM    8  N   UNL     1     -10.870  12.642  68.627  1.00  0.00    -0.244 NA 
ENDROOT
BRANCH   2   9
HETATM    9  C   UNL     1      -9.175  10.813  65.077  1.00  0.00    -0.241 A  
HETATM   10  C   UNL     1      -9.525  10.731  63.717  1.00  0.00    -0.320 A  
HETATM   11  C   UNL     1      -8.311   9.824  65.589  1.00  0.00    -0.138 A  
HETATM   12  C   UNL     1      -8.217   8.725  63.441  1.00  0.00    -0.170 A  
HETATM   13  C   UNL     1      -9.053   9.698  62.904  1.00  0.00    -0.241 A  
HETATM   14 BR   UNL     1      -7.605   7.309  62.350  1.00  0.00    -0.114 Br 
HETATM   15  C   UNL     1      -7.837   8.786  64.778  1.00  0.00    -0.124 A  
ENDBRANCH   2   9
BRANCH   8  16
HETATM   16  C   UNL     1     -10.916  11.400  69.420  1.00  0.00    -0.205 C  
BRANCH  16  17
HETATM   17  C   UNL     1     -12.331  10.930  69.776  1.00  0.00    -0.326 C  
BRANCH  17  18
HETATM   18  C   UNL     1     -12.605  10.974  71.279  1.00  0.00    -0.517 C  
BRANCH  18  19
HETATM   19  C   UNL     1     -12.993   9.607  71.808  1.00  0.00    -0.420 C  
HETATM   20  O   UNL     1     -14.087   9.374  72.316  1.00  0.00    -0.374 OA 
BRANCH  19  21
HETATM   21  C   UNL     1     -11.982   8.515  71.745  1.00  0.00    -0.393 A  
HETATM   22  C   UNL     1     -12.285   7.382  70.977  1.00  0.00    -0.315 A  
HETATM   23  C   UNL     1     -11.379   6.326  70.900  1.00  0.00    -0.389 A  
HETATM   24  C   UNL     1     -10.170   6.410  71.580  1.00  0.00    -0.194 A  
HETATM   25  F   UNL     1      -9.298   5.395  71.504  1.00  0.00    -0.151 F  
HETATM   26  C   UNL     1      -9.848   7.534  72.335  1.00  0.00    -0.219 A  
HETATM   27  C   UNL     1     -10.756   8.591  72.420  1.00  0.00    -0.376 A  
ENDBRANCH  19  21
ENDBRANCH  18  19
ENDBRANCH  17  18
ENDBRANCH  16  17
ENDBRANCH   8  16
TORSDOF 6
ENDMDL
MODEL      100
REMARK 921   NORMALIZED FREE ENERGY PREDICTED BY IDOCK:   -5.30 KCAL/MOL
REMARK 922        TOTAL FREE ENERGY PREDICTED BY IDOCK:   -8.37 KCAL/MOL
REMARK 923 INTER-LIGAND FREE ENERGY PREDICTED BY IDOCK:   -7.40 KCAL/MOL
REMARK 924 INTRA-LIGAND FREE ENERGY PREDICTED BY IDOCK:   -0.97 KCAL/MOL
REMARK 927      BINDING AFFINITY PREDICTED BY RF-SCORE:    0.00 PKD
ROOT
HETATM    1  O   UNL     1     -12.380  16.493  68.883  1.00  0.00    -0.026 OA 
HETATM    2  C   UNL     1     -11.101  15.905  68.584  1.00  0.00    -0.337 C  
HETATM    3  H   UNL     1     -12.630  17.034  68.142  1.00  0.00     0.000 HD 
HETATM    4  C   UNL     1     -10.695  15.028  69.783  1.00  0.00    -0.260 C  
HETATM    5  C   UNL     1     -11.253  15.074  67.294  1.00  0.00    -0.339 C  
HETATM    6  C   UNL     1     -11.551  13.763  69.876  1.00  0.00    -0.228 C  
HETATM    7  C   UNL     1     -12.061  13.793  67.517  1.00  0.00    -0.331 C  
HETATM    8  N   UNL     1     -11.571  12.973  68.637  1.00  0.00    -0.296 NA 
ENDROOT
BRANCH   2   9
HETATM    9  C   UNL     1     -10.095  17.043  68.366  1.00  0.00    -0.302 A  
HETATM   10  C   UNL     1     -10.502  18.289  67.856  1.00  0.00    -0.408 A  
HETATM   11  C   UNL     1      -8.725  16.869  68.646  1.00  0.00    -0.267 A  
HETATM   12  C   UNL     1      -8.234  19.106  67.881  1.00  0.00    -0.290 A  
HETATM   13  C   UNL     1      -9.582  19.313  67.613  1.00  0.00    -0.392 A  
HETATM   14 BR   UNL     1      -6.985  20.478  67.523  1.00  0.00    -0.390 Br 
HETATM   15  C   UNL     1      -7.801  17.891  68.403  1.00  0.00    -0.288 A  
ENDBRANCH   2   9
BRANCH   8  16
HETATM   16  C   UNL     1     -10.283  12.332  68.315  1.00  0.00    -0.220 C  
BRANCH  16  17
HETATM   17  C   UNL     1     -10.036  11.009  69.047  1.00  0.00    -0.184 C  
BRANCH  17  18
HETATM   18  C   UNL     1     -11.280  10.124  69.100  1.00  0.00    -0.234 C  
BRANCH  18  19
HETATM   19  C   UNL     1     -11.734   9.897  70.529  1.00  0.00    -0.295 C  
HETATM   20  O   UNL     1     -12.464  10.682  71.130  1.00  0.00    -0.348 OA 
BRANCH  19  21
HETATM   21  C   UNL     1     -11.233   8.690  71.243  1.00  0.00    -0.338 A  
HETATM   22  C   UNL     1     -11.877   7.469  71.001  1.00  0.00    -0.319 A  
HETATM   23  C   UNL     1     -11.456   6.313  71.658  1.00  0.00    -0.351 A  
HETATM   24  C   UNL     1     -10.387   6.381  72.544  1.00  0.00    -0.191 A  
HETATM   25  F   UNL     1      -9.982   5.269  73.174  1.00  0.00    -0.166 F  
HETATM   26  C   UNL     1      -9.728   7.583  72.784  1.00  0.00    -0.239 A  
HETATM   27  C   UNL     1     -10.151   8.743  72.133  1.00  0.00    -0.362 A  
ENDBRANCH  19  21
ENDBRANCH  18  19
ENDBRANCH  17  18
ENDBRANCH  16  17
ENDBRANCH   8  16
TORSDOF 6
ENDMDL
MODEL      101
REMARK 921   NORMALIZED FREE ENERGY PREDICTED BY IDOCK:   -5.29 KCAL/MOL
REMARK 922        TOTAL FREE ENERGY PREDICTED BY IDOCK:   -8.36 KCAL/MOL
REMARK 923 INTER-LIGAND FREE ENERGY PREDICTED BY IDOCK:   -7.33 KCAL/MOL
REMARK 924 INTRA-LIGAND FREE ENERGY PREDICTED BY IDOCK:   -1.03 KCAL/MOL
REMARK 927      BINDING AFFINITY PREDICTED BY RF-SCORE:    0.00 PKD
ROOT
HETATM    1  O   UNL     1      -8.315   8.381  69.265  1.00  0.00    -0.118 OA 
HETATM    2  C   UNL     1      -9.369   8.578  68.305  1.00  0.00    -0.137 C  
HETATM    3  H   UNL     1      -7.510   8.228  68.784  1.00  0.00     0.000 HD 
HETATM    4  C   UNL     1     -10.674   8.826  69.084  1.00  0.00    -0.150 C  
HETATM    5  C   UNL     1      -8.988   9.788  67.428  1.00  0.00    -0.144 C  
HETATM    6  C   UNL     1     -10.677  10.197  69.764  1.00  0.00    -0.279 C  
HETATM    7  C   UNL     1      -9.100  11.114  68.184  1.00  0.00    -0.159 C  
HETATM    8  N   UNL     1     -10.400  11.310  68.846  1.00  0.00    -0.205 NA 
ENDROOT
BRANCH   2   9
HETATM    9  C   UNL     1      -9.470   7.311  67.445  1.00  0.00    -0.159 A  
HETATM   10  C   UNL     1      -8.385   6.866  66.669  1.00  0.00    -0.118 A  
HETATM   11  C   UNL     1     -10.664   6.564  67.386  1.00  0.00    -0.412 A  
HETATM   12  C   UNL     1      -9.684   5.033  65.797  1.00  0.00    -0.141 A  
HETATM   13  C   UNL     1      -8.488   5.739  65.850  1.00  0.00    -0.139 A  
HETATM   14 BR   UNL     1      -9.835   3.528  64.665  1.00  0.00    -0.147 Br 
HETATM   15  C   UNL     1     -10.772   5.435  66.566  1.00  0.00    -0.309 A  
ENDBRANCH   2   9
BRANCH   8  16
HETATM   16  C   UNL     1     -11.473  11.559  67.866  1.00  0.00    -0.301 C  
BRANCH  16  17
HETATM   17  C   UNL     1     -11.252  12.796  66.988  1.00  0.00    -0.336 C  
BRANCH  17  18
HETATM   18  C   UNL     1     -12.022  14.018  67.489  1.00  0.00    -0.430 C  
BRANCH  18  19
HETATM   19  C   UNL     1     -11.200  14.820  68.478  1.00  0.00    -0.276 C  
HETATM   20  O   UNL     1     -10.133  15.352  68.182  1.00  0.00    -0.219 OA 
BRANCH  19  21
HETATM   21  C   UNL     1     -11.691  14.924  69.880  1.00  0.00    -0.347 A  
HETATM   22  C   UNL     1     -12.487  13.883  70.377  1.00  0.00    -0.404 A  
HETATM   23  C   UNL     1     -12.985  13.941  71.678  1.00  0.00    -0.433 A  
HETATM   24  C   UNL     1     -12.676  15.033  72.480  1.00  0.00    -0.353 A  
HETATM   25  F   UNL     1     -13.155  15.088  73.731  1.00  0.00    -0.563 F  
HETATM   26  C   UNL     1     -11.876  16.068  72.006  1.00  0.00    -0.623 A  
HETATM   27  C   UNL     1     -11.381  16.016  70.702  1.00  0.00    -0.424 A  
ENDBRANCH  19  21
ENDBRANCH  18  19
ENDBRANCH  17  18
ENDBRANCH  16  17
ENDBRANCH   8  16
TORSDOF 6
ENDMDL
MODEL      102
REMARK 921   NORMALIZED FREE ENERGY PREDICTED BY IDOCK:   -5.28 KCAL/MOL
REMARK 922        TOTAL FREE ENERGY PREDICTED BY IDOCK:   -8.34 KCAL/MOL
REMARK 923 INTER-LIGAND FREE ENERGY PREDICTED BY IDOCK:   -6.24 KCAL/MOL
REMARK 924 INTRA-LIGAND FREE ENERGY PREDICTED BY IDOCK:   -2.10 KCAL/MOL
REMARK 927      BINDING AFFINITY PREDICTED BY RF-SCORE:    0.00 PKD
ROOT
HETATM    1  O   UNL     1      -6.627  11.737  66.344  1.00  0.00    -0.365 OA 
HETATM    2  C   UNL     1      -7.651  11.436  67.310  1.00  0.00    -0.138 C  
HETATM    3  H   UNL     1      -6.535  12.682  66.305  1.00  0.00     0.000 HD 
HETATM    4  C   UNL     1      -7.802   9.905  67.373  1.00  0.00    -0.098 C  
HETATM    5  C   UNL     1      -7.208  12.024  68.666  1.00  0.00    -0.110 C  
HETATM    6  C   UNL     1      -6.599   9.245  68.051  1.00  0.00    -0.060 C  
HETATM    7  C   UNL     1      -6.051  11.241  69.290  1.00  0.00    -0.062 C  
HETATM    8  N   UNL     1      -6.296   9.793  69.380  1.00  0.00    -0.044 NA 
ENDROOT
BRANCH   2   9
HETATM    9  C   UNL     1      -8.953  12.101  66.843  1.00  0.00    -0.201 A  
HETATM   10  C   UNL     1      -9.872  11.414  66.028  1.00  0.00    -0.256 A  
HETATM   11  C   UNL     1      -9.259  13.431  67.194  1.00  0.00    -0.240 A  
HETATM   12  C   UNL     1     -11.302  13.351  65.910  1.00  0.00    -0.309 A  
HETATM   13  C   UNL     1     -11.036  12.031  65.564  1.00  0.00    -0.345 A  
HETATM   14 BR   UNL     1     -12.860  14.197  65.255  1.00  0.00    -0.234 Br 
HETATM   15  C   UNL     1     -10.423  14.053  66.729  1.00  0.00    -0.277 A  
ENDBRANCH   2   9
BRANCH   8  16
HETATM   16  C   UNL     1      -7.311   9.480  70.402  1.00  0.00    -0.141 C  
BRANCH  16  17
HETATM   17  C   UNL     1      -7.701   7.999  70.472  1.00  0.00    -0.085 C  
BRANCH  17  18
HETATM   18  C   UNL     1      -9.152   7.792  70.908  1.00  0.00    -0.150 C  
BRANCH  18  19
HETATM   19  C   UNL     1     -10.119   8.353  69.884  1.00  0.00    -0.195 C  
HETATM   20  O   UNL     1     -10.195   7.927  68.734  1.00  0.00    -0.197 OA 
BRANCH  19  21
HETATM   21  C   UNL     1     -10.981   9.499  70.285  1.00  0.00    -0.317 A  
HETATM   22  C   UNL     1     -11.822   9.333  71.394  1.00  0.00    -0.428 A  
HETATM   23  C   UNL     1     -12.661  10.371  71.799  1.00  0.00    -0.468 A  
HETATM   24  C   UNL     1     -12.647  11.573  71.102  1.00  0.00    -0.359 A  
HETATM   25  F   UNL     1     -13.452  12.570  71.493  1.00  0.00    -0.413 F  
HETATM   26  C   UNL     1     -11.807  11.759  70.008  1.00  0.00    -0.422 A  
HETATM   27  C   UNL     1     -10.971  10.720  69.595  1.00  0.00    -0.320 A  
ENDBRANCH  19  21
ENDBRANCH  18  19
ENDBRANCH  17  18
ENDBRANCH  16  17
ENDBRANCH   8  16
TORSDOF 6
ENDMDL
MODEL      103
REMARK 921   NORMALIZED FREE ENERGY PREDICTED BY IDOCK:   -5.26 KCAL/MOL
REMARK 922        TOTAL FREE ENERGY PREDICTED BY IDOCK:   -8.31 KCAL/MOL
REMARK 923 INTER-LIGAND FREE ENERGY PREDICTED BY IDOCK:   -7.03 KCAL/MOL
REMARK 924 INTRA-LIGAND FREE ENERGY PREDICTED BY IDOCK:   -1.28 KCAL/MOL
REMARK 927      BINDING AFFINITY PREDICTED BY RF-SCORE:    0.00 PKD
ROOT
HETATM    1  O   UNL     1     -11.271   6.345  66.856  1.00  0.00    -0.609 OA 
HETATM    2  C   UNL     1     -10.324   7.016  67.708  1.00  0.00    -0.202 C  
HETATM    3  H   UNL     1     -12.141   6.530  67.189  1.00  0.00     0.000 HD 
HETATM    4  C   UNL     1      -8.913   6.716  67.169  1.00  0.00    -0.118 C  
HETATM    5  C   UNL     1     -10.642   8.524  67.671  1.00  0.00    -0.268 C  
HETATM    6  C   UNL     1      -8.643   7.445  65.851  1.00  0.00    -0.153 C  
HETATM    7  C   UNL     1     -10.261   9.168  66.336  1.00  0.00    -0.230 C  
HETATM    8  N   UNL     1      -8.876   8.894  65.921  1.00  0.00    -0.167 NA 
ENDROOT
BRANCH   2   9
HETATM    9  C   UNL     1     -10.499   6.470  69.132  1.00  0.00    -0.260 A  
HETATM   10  C   UNL     1      -9.935   5.241  69.517  1.00  0.00    -0.297 A  
HETATM   11  C   UNL     1     -11.254   7.172  70.093  1.00  0.00    -0.295 A  
HETATM   12  C   UNL     1     -10.896   5.425  71.721  1.00  0.00    -0.174 A  
HETATM   13  C   UNL     1     -10.131   4.720  70.799  1.00  0.00    -0.286 A  
HETATM   14 BR   UNL     1     -11.189   4.705  73.443  1.00  0.00    -0.390 Br 
HETATM   15  C   UNL     1     -11.454   6.653  71.377  1.00  0.00    -0.349 A  
ENDBRANCH   2   9
BRANCH   8  16
HETATM   16  C   UNL     1      -7.906   9.617  66.763  1.00  0.00    -0.102 C  
BRANCH  16  17
HETATM   17  C   UNL     1      -7.802  11.116  66.461  1.00  0.00    -0.151 C  
BRANCH  17  18
HETATM   18  C   UNL     1      -8.304  11.985  67.614  1.00  0.00    -0.160 C  
BRANCH  18  19
HETATM   19  C   UNL     1      -9.679  12.552  67.317  1.00  0.00    -0.202 C  
HETATM   20  O   UNL     1     -10.049  12.844  66.183  1.00  0.00    -0.265 OA 
BRANCH  19  21
HETATM   21  C   UNL     1     -10.597  12.804  68.461  1.00  0.00    -0.270 A  
HETATM   22  C   UNL     1     -10.865  14.135  68.809  1.00  0.00    -0.271 A  
HETATM   23  C   UNL     1     -11.706  14.423  69.883  1.00  0.00    -0.363 A  
HETATM   24  C   UNL     1     -12.285  13.381  70.597  1.00  0.00    -0.350 A  
HETATM   25  F   UNL     1     -13.094  13.659  71.629  1.00  0.00    -0.386 F  
HETATM   26  C   UNL     1     -12.041  12.054  70.256  1.00  0.00    -0.395 A  
HETATM   27  C   UNL     1     -11.194  11.762  69.185  1.00  0.00    -0.324 A  
ENDBRANCH  19  21
ENDBRANCH  18  19
ENDBRANCH  17  18
ENDBRANCH  16  17
ENDBRANCH   8  16
TORSDOF 6
ENDMDL
MODEL      104
REMARK 921   NORMALIZED FREE ENERGY PREDICTED BY IDOCK:   -5.24 KCAL/MOL
REMARK 922        TOTAL FREE ENERGY PREDICTED BY IDOCK:   -8.29 KCAL/MOL
REMARK 923 INTER-LIGAND FREE ENERGY PREDICTED BY IDOCK:   -6.14 KCAL/MOL
REMARK 924 INTRA-LIGAND FREE ENERGY PREDICTED BY IDOCK:   -2.14 KCAL/MOL
REMARK 927      BINDING AFFINITY PREDICTED BY RF-SCORE:    0.00 PKD
ROOT
HETATM    1  O   UNL     1      -9.407  14.886  70.159  1.00  0.00    -0.344 OA 
HETATM    2  C   UNL     1      -9.586  14.375  68.825  1.00  0.00    -0.177 C  
HETATM    3  H   UNL     1      -8.604  14.516  70.506  1.00  0.00     0.000 HD 
HETATM    4  C   UNL     1     -10.889  14.975  68.263  1.00  0.00    -0.259 C  
HETATM    5  C   UNL     1      -8.358  14.792  67.991  1.00  0.00    -0.143 C  
HETATM    6  C   UNL     1     -10.738  16.467  67.955  1.00  0.00    -0.332 C  
HETATM    7  C   UNL     1      -8.348  16.289  67.675  1.00  0.00    -0.161 C  
HETATM    8  N   UNL     1      -9.601  16.776  67.077  1.00  0.00    -0.233 NA 
ENDROOT
BRANCH   2   9
HETATM    9  C   UNL     1      -9.675  12.846  68.912  1.00  0.00     0.181 A  
HETATM   10  C   UNL     1     -10.880  12.202  69.250  1.00  0.00    -0.105 A  
HETATM   11  C   UNL     1      -8.545  12.036  68.682  1.00  0.00    -0.011 A  
HETATM   12  C   UNL     1      -9.817  10.040  69.160  1.00  0.00    -0.205 A  
HETATM   13  C   UNL     1     -10.953  10.812  69.374  1.00  0.00    -0.305 A  
HETATM   14 BR   UNL     1      -9.907   8.163  69.361  1.00  0.00    -0.186 Br 
HETATM   15  C   UNL     1      -8.614  10.644  68.808  1.00  0.00    -0.150 A  
ENDBRANCH   2   9
BRANCH   8  16
HETATM   16  C   UNL     1      -9.763  16.291  65.694  1.00  0.00    -0.171 C  
BRANCH  16  17
HETATM   17  C   UNL     1     -11.147  16.553  65.091  1.00  0.00    -0.134 C  
BRANCH  17  18
HETATM   18  C   UNL     1     -11.510  15.555  63.992  1.00  0.00     0.135 C  
BRANCH  18  19
HETATM   19  C   UNL     1     -12.146  14.306  64.571  1.00  0.00    -0.480 C  
HETATM   20  O   UNL     1     -13.222  14.319  65.163  1.00  0.00    -0.686 OA 
BRANCH  19  21
HETATM   21  C   UNL     1     -11.406  13.020  64.451  1.00  0.00    -0.397 A  
HETATM   22  C   UNL     1     -11.038  12.360  65.632  1.00  0.00    -0.343 A  
HETATM   23  C   UNL     1     -10.330  11.161  65.574  1.00  0.00    -0.326 A  
HETATM   24  C   UNL     1     -10.002  10.620  64.336  1.00  0.00    -0.350 A  
HETATM   25  F   UNL     1      -9.323   9.466  64.281  1.00  0.00    -0.277 F  
HETATM   26  C   UNL     1     -10.372  11.255  63.154  1.00  0.00    -0.338 A  
HETATM   27  C   UNL     1     -11.076  12.459  63.209  1.00  0.00    -0.347 A  
ENDBRANCH  19  21
ENDBRANCH  18  19
ENDBRANCH  17  18
ENDBRANCH  16  17
ENDBRANCH   8  16
TORSDOF 6
ENDMDL
MODEL      105
REMARK 921   NORMALIZED FREE ENERGY PREDICTED BY IDOCK:   -5.23 KCAL/MOL
REMARK 922        TOTAL FREE ENERGY PREDICTED BY IDOCK:   -8.27 KCAL/MOL
REMARK 923 INTER-LIGAND FREE ENERGY PREDICTED BY IDOCK:   -6.21 KCAL/MOL
REMARK 924 INTRA-LIGAND FREE ENERGY PREDICTED BY IDOCK:   -2.06 KCAL/MOL
REMARK 927      BINDING AFFINITY PREDICTED BY RF-SCORE:    0.00 PKD
ROOT
HETATM    1  O   UNL     1      -8.587  14.589  69.494  1.00  0.00    -0.383 OA 
HETATM    2  C   UNL     1      -8.843  13.810  68.312  1.00  0.00    -0.185 C  
HETATM    3  H   UNL     1      -7.650  14.575  69.654  1.00  0.00     0.000 HD 
HETATM    4  C   UNL     1     -10.361  13.833  68.053  1.00  0.00    -0.246 C  
HETATM    5  C   UNL     1      -8.055  14.446  67.148  1.00  0.00    -0.171 C  
HETATM    6  C   UNL     1     -10.833  15.206  67.571  1.00  0.00    -0.301 C  
HETATM    7  C   UNL     1      -8.659  15.777  66.694  1.00  0.00    -0.287 C  
HETATM    8  N   UNL     1     -10.098  15.704  66.400  1.00  0.00    -0.272 NA 
ENDROOT
BRANCH   2   9
HETATM    9  C   UNL     1      -8.347  12.381  68.570  1.00  0.00    -0.081 A  
HETATM   10  C   UNL     1      -7.011  12.016  68.325  1.00  0.00    -0.075 A  
HETATM   11  C   UNL     1      -9.222  11.380  69.038  1.00  0.00     0.055 A  
HETATM   12  C   UNL     1      -7.458   9.733  68.959  1.00  0.00    -0.080 A  
HETATM   13  C   UNL     1      -6.567  10.705  68.515  1.00  0.00    -0.055 A  
HETATM   14 BR   UNL     1      -6.867   7.953  69.185  1.00  0.00    -0.053 Br 
HETATM   15  C   UNL     1      -8.782  10.065  69.228  1.00  0.00    -0.182 A  
ENDBRANCH   2   9
BRANCH   8  16
HETATM   16  C   UNL     1     -10.359  14.946  65.163  1.00  0.00    -0.401 C  
BRANCH  16  17
HETATM   17  C   UNL     1     -11.840  14.849  64.781  1.00  0.00    -0.385 C  
BRANCH  17  18
HETATM   18  C   UNL     1     -12.193  13.513  64.127  1.00  0.00    -0.449 C  
BRANCH  18  19
HETATM   19  C   UNL     1     -11.678  12.346  64.946  1.00  0.00    -0.365 C  
HETATM   20  O   UNL     1     -12.159  12.029  66.032  1.00  0.00    -0.561 OA 
BRANCH  19  21
HETATM   21  C   UNL     1     -10.511  11.582  64.426  1.00  0.00    -0.380 A  
HETATM   22  C   UNL     1      -9.638  11.001  65.356  1.00  0.00    -0.267 A  
HETATM   23  C   UNL     1      -8.522  10.289  64.919  1.00  0.00    -0.182 A  
HETATM   24  C   UNL     1      -8.288  10.152  63.557  1.00  0.00    -0.169 A  
HETATM   25  F   UNL     1      -7.215   9.467  63.138  1.00  0.00    -0.099 F  
HETATM   26  C   UNL     1      -9.152  10.710  62.620  1.00  0.00    -0.321 A  
HETATM   27  C   UNL     1     -10.268  11.429  63.053  1.00  0.00    -0.311 A  
ENDBRANCH  19  21
ENDBRANCH  18  19
ENDBRANCH  17  18
ENDBRANCH  16  17
ENDBRANCH   8  16
TORSDOF 6
ENDMDL
MODEL      106
REMARK 921   NORMALIZED FREE ENERGY PREDICTED BY IDOCK:   -5.22 KCAL/MOL
REMARK 922        TOTAL FREE ENERGY PREDICTED BY IDOCK:   -8.27 KCAL/MOL
REMARK 923 INTER-LIGAND FREE ENERGY PREDICTED BY IDOCK:   -7.18 KCAL/MOL
REMARK 924 INTRA-LIGAND FREE ENERGY PREDICTED BY IDOCK:   -1.09 KCAL/MOL
REMARK 927      BINDING AFFINITY PREDICTED BY RF-SCORE:    0.00 PKD
ROOT
HETATM    1  O   UNL     1      -7.381  13.384  69.373  1.00  0.00    -0.314 OA 
HETATM    2  C   UNL     1      -7.933  14.048  68.221  1.00  0.00    -0.146 C  
HETATM    3  H   UNL     1      -7.671  13.855  70.145  1.00  0.00     0.000 HD 
HETATM    4  C   UNL     1      -7.463  13.285  66.969  1.00  0.00     0.200 C  
HETATM    5  C   UNL     1      -9.469  14.031  68.358  1.00  0.00    -0.213 C  
HETATM    6  C   UNL     1      -8.151  11.924  66.843  1.00  0.00    -0.146 C  
HETATM    7  C   UNL     1     -10.059  12.637  68.137  1.00  0.00    -0.231 C  
HETATM    8  N   UNL     1      -9.617  11.999  66.886  1.00  0.00    -0.199 NA 
ENDROOT
BRANCH   2   9
HETATM    9  C   UNL     1      -7.416  15.493  68.215  1.00  0.00    -0.116 A  
HETATM   10  C   UNL     1      -7.124  16.169  69.413  1.00  0.00    -0.215 A  
HETATM   11  C   UNL     1      -7.242  16.199  67.008  1.00  0.00    -0.256 A  
HETATM   12  C   UNL     1      -6.552  18.177  68.209  1.00  0.00    -0.205 A  
HETATM   13  C   UNL     1      -6.697  17.500  69.414  1.00  0.00    -0.179 A  
HETATM   14 BR   UNL     1      -6.007  19.987  68.210  1.00  0.00    -0.297 Br 
HETATM   15  C   UNL     1      -6.816  17.532  67.004  1.00  0.00    -0.208 A  
ENDBRANCH   2   9
BRANCH   8  16
HETATM   16  C   UNL     1     -10.219  12.649  65.708  1.00  0.00    -0.272 C  
BRANCH  16  17
HETATM   17  C   UNL     1     -10.025  14.168  65.655  1.00  0.00    -0.331 C  
BRANCH  17  18
HETATM   18  C   UNL     1     -11.349  14.929  65.590  1.00  0.00    -0.325 C  
BRANCH  18  19
HETATM   19  C   UNL     1     -11.124  16.402  65.312  1.00  0.00    -0.113 C  
HETATM   20  O   UNL     1     -11.197  16.887  64.185  1.00  0.00    -1.176 OA 
BRANCH  19  21
HETATM   21  C   UNL     1     -10.755  17.285  66.452  1.00  0.00    -0.072 A  
HETATM   22  C   UNL     1     -10.367  18.601  66.166  1.00  0.00    -0.481 A  
HETATM   23  C   UNL     1      -9.996  19.462  67.198  1.00  0.00    -0.463 A  
HETATM   24  C   UNL     1     -10.027  19.009  68.511  1.00  0.00    -0.421 A  
HETATM   25  F   UNL     1      -9.672  19.839  69.503  1.00  0.00    -0.433 F  
HETATM   26  C   UNL     1     -10.424  17.710  68.814  1.00  0.00    -0.287 A  
HETATM   27  C   UNL     1     -10.789  16.843  67.782  1.00  0.00    -0.281 A  
ENDBRANCH  19  21
ENDBRANCH  18  19
ENDBRANCH  17  18
ENDBRANCH  16  17
ENDBRANCH   8  16
TORSDOF 6
ENDMDL
MODEL      107
REMARK 921   NORMALIZED FREE ENERGY PREDICTED BY IDOCK:   -5.22 KCAL/MOL
REMARK 922        TOTAL FREE ENERGY PREDICTED BY IDOCK:   -8.26 KCAL/MOL
REMARK 923 INTER-LIGAND FREE ENERGY PREDICTED BY IDOCK:   -7.56 KCAL/MOL
REMARK 924 INTRA-LIGAND FREE ENERGY PREDICTED BY IDOCK:   -0.71 KCAL/MOL
REMARK 927      BINDING AFFINITY PREDICTED BY RF-SCORE:    0.00 PKD
ROOT
HETATM    1  O   UNL     1     -12.608  15.700  69.813  1.00  0.00    -0.569 OA 
HETATM    2  C   UNL     1     -11.678  14.691  69.379  1.00  0.00    -0.316 C  
HETATM    3  H   UNL     1     -12.526  15.782  70.757  1.00  0.00     0.000 HD 
HETATM    4  C   UNL     1     -11.811  14.556  67.851  1.00  0.00    -0.370 C  
HETATM    5  C   UNL     1     -10.263  15.144  69.792  1.00  0.00    -0.200 C  
HETATM    6  C   UNL     1     -11.238  15.774  67.122  1.00  0.00    -0.110 C  
HETATM    7  C   UNL     1      -9.757  16.317  68.949  1.00  0.00    -0.248 C  
HETATM    8  N   UNL     1      -9.853  16.087  67.499  1.00  0.00    -0.233 NA 
ENDROOT
BRANCH   2   9
HETATM    9  C   UNL     1     -12.042  13.377  70.084  1.00  0.00    -0.415 A  
HETATM   10  C   UNL     1     -11.638  12.134  69.563  1.00  0.00    -0.382 A  
HETATM   11  C   UNL     1     -12.813  13.371  71.262  1.00  0.00    -0.407 A  
HETATM   12  C   UNL     1     -12.784  10.958  71.328  1.00  0.00    -0.437 A  
HETATM   13  C   UNL     1     -12.006  10.933  70.177  1.00  0.00    -0.435 A  
HETATM   14 BR   UNL     1     -13.309   9.334  72.140  1.00  0.00    -0.569 Br 
HETATM   15  C   UNL     1     -13.185  12.171  71.879  1.00  0.00    -0.474 A  
ENDBRANCH   2   9
BRANCH   8  16
HETATM   16  C   UNL     1      -8.868  15.088  67.044  1.00  0.00    -0.234 C  
BRANCH  16  17
HETATM   17  C   UNL     1      -8.604  13.960  68.047  1.00  0.00    -0.178 C  
BRANCH  17  18
HETATM   18  C   UNL     1      -8.018  12.711  67.389  1.00  0.00    -0.177 C  
BRANCH  18  19
HETATM   19  C   UNL     1      -9.105  11.855  66.767  1.00  0.00    -0.197 C  
HETATM   20  O   UNL     1      -9.791  12.233  65.820  1.00  0.00    -0.249 OA 
BRANCH  19  21
HETATM   21  C   UNL     1      -9.376  10.519  67.364  1.00  0.00    -0.158 A  
HETATM   22  C   UNL     1      -8.641  10.144  68.497  1.00  0.00    -0.118 A  
HETATM   23  C   UNL     1      -8.846   8.896  69.084  1.00  0.00    -0.136 A  
HETATM   24  C   UNL     1      -9.792   8.033  68.544  1.00  0.00    -0.174 A  
HETATM   25  F   UNL     1      -9.990   6.834  69.109  1.00  0.00    -0.152 F  
HETATM   26  C   UNL     1     -10.540   8.396  67.428  1.00  0.00    -0.313 A  
HETATM   27  C   UNL     1     -10.332   9.642  66.833  1.00  0.00    -0.307 A  
ENDBRANCH  19  21
ENDBRANCH  18  19
ENDBRANCH  17  18
ENDBRANCH  16  17
ENDBRANCH   8  16
TORSDOF 6
ENDMDL
MODEL      108
REMARK 921   NORMALIZED FREE ENERGY PREDICTED BY IDOCK:   -5.17 KCAL/MOL
REMARK 922        TOTAL FREE ENERGY PREDICTED BY IDOCK:   -8.20 KCAL/MOL
REMARK 923 INTER-LIGAND FREE ENERGY PREDICTED BY IDOCK:   -7.23 KCAL/MOL
REMARK 924 INTRA-LIGAND FREE ENERGY PREDICTED BY IDOCK:   -0.97 KCAL/MOL
REMARK 927      BINDING AFFINITY PREDICTED BY RF-SCORE:    0.00 PKD
ROOT
HETATM    1  O   UNL     1      -6.044  19.197  68.012  1.00  0.00    -0.208 OA 
HETATM    2  C   UNL     1      -7.221  18.372  67.938  1.00  0.00    -0.229 C  
HETATM    3  H   UNL     1      -5.378  18.800  67.462  1.00  0.00     0.000 HD 
HETATM    4  C   UNL     1      -8.301  19.015  68.830  1.00  0.00    -0.364 C  
HETATM    5  C   UNL     1      -7.662  18.309  66.462  1.00  0.00    -0.279 C  
HETATM    6  C   UNL     1      -8.846  20.307  68.217  1.00  0.00     0.069 C  
HETATM    7  C   UNL     1      -8.262  19.630  65.976  1.00  0.00    -0.295 C  
HETATM    8  N   UNL     1      -9.334  20.146  66.841  1.00  0.00    -0.379 NA 
ENDROOT
BRANCH   2   9
HETATM    9  C   UNL     1      -6.851  16.971  68.442  1.00  0.00    -0.170 A  
HETATM   10  C   UNL     1      -7.489  15.822  67.941  1.00  0.00    -0.147 A  
HETATM   11  C   UNL     1      -5.876  16.791  69.444  1.00  0.00    -0.178 A  
HETATM   12  C   UNL     1      -6.234  14.403  69.431  1.00  0.00    -0.113 A  
HETATM   13  C   UNL     1      -7.186  14.549  68.429  1.00  0.00    -0.116 A  
HETATM   14 BR   UNL     1      -5.848  12.685  70.116  1.00  0.00    -0.144 Br 
HETATM   15  C   UNL     1      -5.571  15.517  69.937  1.00  0.00    -0.130 A  
ENDBRANCH   2   9
BRANCH   8  16
HETATM   16  C   UNL     1     -10.557  19.330  66.731  1.00  0.00    -0.448 C  
BRANCH  16  17
HETATM   17  C   UNL     1     -10.559  18.351  65.553  1.00  0.00     0.025 C  
BRANCH  17  18
HETATM   18  C   UNL     1     -10.770  16.902  65.991  1.00  0.00    -0.125 C  
BRANCH  18  19
HETATM   19  C   UNL     1     -11.157  16.023  64.818  1.00  0.00    -0.365 C  
HETATM   20  O   UNL     1     -11.638  16.470  63.780  1.00  0.00    -1.109 OA 
BRANCH  19  21
HETATM   21  C   UNL     1     -10.984  14.550  64.956  1.00  0.00    -0.408 A  
HETATM   22  C   UNL     1     -11.928  13.717  64.340  1.00  0.00    -0.480 A  
HETATM   23  C   UNL     1     -11.820  12.332  64.454  1.00  0.00    -0.464 A  
HETATM   24  C   UNL     1     -10.763  11.785  65.171  1.00  0.00    -0.291 A  
HETATM   25  F   UNL     1     -10.660  10.453  65.278  1.00  0.00    -0.341 F  
HETATM   26  C   UNL     1      -9.809  12.597  65.776  1.00  0.00    -0.236 A  
HETATM   27  C   UNL     1      -9.918  13.985  65.670  1.00  0.00    -0.309 A  
ENDBRANCH  19  21
ENDBRANCH  18  19
ENDBRANCH  17  18
ENDBRANCH  16  17
ENDBRANCH   8  16
TORSDOF 6
ENDMDL
MODEL      109
REMARK 921   NORMALIZED FREE ENERGY PREDICTED BY IDOCK:   -5.17 KCAL/MOL
REMARK 922        TOTAL FREE ENERGY PREDICTED BY IDOCK:   -8.19 KCAL/MOL
REMARK 923 INTER-LIGAND FREE ENERGY PREDICTED BY IDOCK:   -7.35 KCAL/MOL
REMARK 924 INTRA-LIGAND FREE ENERGY PREDICTED BY IDOCK:   -0.84 KCAL/MOL
REMARK 927      BINDING AFFINITY PREDICTED BY RF-SCORE:    0.00 PKD
ROOT
HETATM    1  O   UNL     1     -12.055  12.582  66.437  1.00  0.00    -0.576 OA 
HETATM    2  C   UNL     1     -10.778  12.370  67.066  1.00  0.00    -0.239 C  
HETATM    3  H   UNL     1     -12.692  12.035  66.883  1.00  0.00     0.000 HD 
HETATM    4  C   UNL     1      -9.746  13.256  66.343  1.00  0.00    -0.279 C  
HETATM    5  C   UNL     1     -10.916  12.750  68.554  1.00  0.00    -0.288 C  
HETATM    6  C   UNL     1      -9.952  14.739  66.660  1.00  0.00    -0.264 C  
HETATM    7  C   UNL     1     -11.037  14.262  68.761  1.00  0.00    -0.256 C  
HETATM    8  N   UNL     1      -9.977  15.037  68.098  1.00  0.00    -0.218 NA 
ENDROOT
BRANCH   2   9
HETATM    9  C   UNL     1     -10.424  10.883  66.928  1.00  0.00    -0.299 A  
HETATM   10  C   UNL     1     -10.552   9.999  68.014  1.00  0.00    -0.280 A  
HETATM   11  C   UNL     1      -9.933  10.361  65.715  1.00  0.00    -0.334 A  
HETATM   12  C   UNL     1      -9.688   8.171  66.701  1.00  0.00    -0.248 A  
HETATM   13  C   UNL     1     -10.187   8.654  67.905  1.00  0.00    -0.273 A  
HETATM   14 BR   UNL     1      -9.163   6.361  66.562  1.00  0.00    -0.179 Br 
HETATM   15  C   UNL     1      -9.564   9.016  65.602  1.00  0.00    -0.237 A  
ENDBRANCH   2   9
BRANCH   8  16
HETATM   16  C   UNL     1      -8.677  14.857  68.770  1.00  0.00    -0.182 C  
BRANCH  16  17
HETATM   17  C   UNL     1      -7.499  15.530  68.056  1.00  0.00    -0.136 C  
BRANCH  17  18
HETATM   18  C   UNL     1      -6.560  16.252  69.021  1.00  0.00    -0.169 C  
BRANCH  18  19
HETATM   19  C   UNL     1      -6.530  17.743  68.748  1.00  0.00    -0.225 C  
HETATM   20  O   UNL     1      -5.574  18.456  69.042  1.00  0.00    -0.197 OA 
BRANCH  19  21
HETATM   21  C   UNL     1      -7.734  18.371  68.136  1.00  0.00    -0.304 A  
HETATM   22  C   UNL     1      -8.914  18.403  68.891  1.00  0.00    -0.171 A  
HETATM   23  C   UNL     1     -10.073  18.965  68.357  1.00  0.00    -0.449 A  
HETATM   24  C   UNL     1     -10.044  19.502  67.075  1.00  0.00    -0.397 A  
HETATM   25  F   UNL     1     -11.158  20.043  66.563  1.00  0.00    -0.510 F  
HETATM   26  C   UNL     1      -8.877  19.491  66.318  1.00  0.00    -0.391 A  
HETATM   27  C   UNL     1      -7.717  18.923  66.847  1.00  0.00    -0.250 A  
ENDBRANCH  19  21
ENDBRANCH  18  19
ENDBRANCH  17  18
ENDBRANCH  16  17
ENDBRANCH   8  16
TORSDOF 6
ENDMDL
MODEL      110
REMARK 921   NORMALIZED FREE ENERGY PREDICTED BY IDOCK:   -5.13 KCAL/MOL
REMARK 922        TOTAL FREE ENERGY PREDICTED BY IDOCK:   -8.14 KCAL/MOL
REMARK 923 INTER-LIGAND FREE ENERGY PREDICTED BY IDOCK:   -7.36 KCAL/MOL
REMARK 924 INTRA-LIGAND FREE ENERGY PREDICTED BY IDOCK:   -0.78 KCAL/MOL
REMARK 927      BINDING AFFINITY PREDICTED BY RF-SCORE:    0.00 PKD
ROOT
HETATM    1  O   UNL     1      -9.058  13.287  65.923  1.00  0.00    -0.450 OA 
HETATM    2  C   UNL     1     -10.001  13.588  66.968  1.00  0.00    -0.247 C  
HETATM    3  H   UNL     1      -8.226  13.678  66.163  1.00  0.00     0.000 HD 
HETATM    4  C   UNL     1     -11.351  12.955  66.580  1.00  0.00    -0.361 C  
HETATM    5  C   UNL     1      -9.451  13.000  68.284  1.00  0.00    -0.208 C  
HETATM    6  C   UNL     1     -11.313  11.429  66.690  1.00  0.00    -0.157 C  
HETATM    7  C   UNL     1      -9.533  11.472  68.319  1.00  0.00    -0.189 C  
HETATM    8  N   UNL     1     -10.870  10.944  68.004  1.00  0.00    -0.224 NA 
ENDROOT
BRANCH   2   9
HETATM    9  C   UNL     1     -10.118  15.114  67.076  1.00  0.00    -0.244 A  
HETATM   10  C   UNL     1     -10.441  15.903  65.957  1.00  0.00    -0.357 A  
HETATM   11  C   UNL     1      -9.879  15.779  68.295  1.00  0.00    -0.213 A  
HETATM   12  C   UNL     1     -10.244  17.926  67.253  1.00  0.00    -0.358 A  
HETATM   13  C   UNL     1     -10.503  17.296  66.041  1.00  0.00    -0.285 A  
HETATM   14 BR   UNL     1     -10.295  19.812  67.360  1.00  0.00    -0.587 Br 
HETATM   15  C   UNL     1      -9.938  17.174  68.384  1.00  0.00    -0.310 A  
ENDBRANCH   2   9
BRANCH   8  16
HETATM   16  C   UNL     1     -11.826  11.210  69.095  1.00  0.00    -0.350 C  
BRANCH  16  17
HETATM   17  C   UNL     1     -11.414  10.629  70.452  1.00  0.00    -0.422 C  
BRANCH  17  18
HETATM   18  C   UNL     1     -12.307   9.468  70.890  1.00  0.00    -0.305 C  
BRANCH  18  19
HETATM   19  C   UNL     1     -11.528   8.169  70.957  1.00  0.00    -0.279 C  
HETATM   20  O   UNL     1     -11.891   7.144  70.384  1.00  0.00    -0.270 OA 
BRANCH  19  21
HETATM   21  C   UNL     1     -10.296   8.130  71.790  1.00  0.00    -0.293 A  
HETATM   22  C   UNL     1      -9.065   8.344  71.155  1.00  0.00    -0.217 A  
HETATM   23  C   UNL     1      -7.880   8.302  71.889  1.00  0.00    -0.158 A  
HETATM   24  C   UNL     1      -7.931   8.056  73.256  1.00  0.00    -0.178 A  
HETATM   25  F   UNL     1      -6.792   8.017  73.961  1.00  0.00    -0.107 F  
HETATM   26  C   UNL     1      -9.146   7.856  73.904  1.00  0.00    -0.237 A  
HETATM   27  C   UNL     1     -10.334   7.891  73.171  1.00  0.00    -0.357 A  
ENDBRANCH  19  21
ENDBRANCH  18  19
ENDBRANCH  17  18
ENDBRANCH  16  17
ENDBRANCH   8  16
TORSDOF 6
ENDMDL
MODEL      111
REMARK 921   NORMALIZED FREE ENERGY PREDICTED BY IDOCK:   -5.11 KCAL/MOL
REMARK 922        TOTAL FREE ENERGY PREDICTED BY IDOCK:   -8.12 KCAL/MOL
REMARK 923 INTER-LIGAND FREE ENERGY PREDICTED BY IDOCK:   -6.11 KCAL/MOL
REMARK 924 INTRA-LIGAND FREE ENERGY PREDICTED BY IDOCK:   -2.01 KCAL/MOL
REMARK 927      BINDING AFFINITY PREDICTED BY RF-SCORE:    0.00 PKD
ROOT
HETATM    1  O   UNL     1      -8.342  10.965  66.808  1.00  0.00    -0.129 OA 
HETATM    2  C   UNL     1      -8.984   9.742  67.213  1.00  0.00    -0.135 C  
HETATM    3  H   UNL     1      -7.902  11.326  67.569  1.00  0.00     0.000 HD 
HETATM    4  C   UNL     1      -9.698   9.156  65.980  1.00  0.00    -0.358 C  
HETATM    5  C   UNL     1      -7.894   8.791  67.748  1.00  0.00    -0.102 C  
HETATM    6  C   UNL     1      -8.702   8.605  64.957  1.00  0.00    -0.118 C  
HETATM    7  C   UNL     1      -7.004   8.238  66.632  1.00  0.00    -0.069 C  
HETATM    8  N   UNL     1      -7.756   7.633  65.521  1.00  0.00    -0.095 NA 
ENDROOT
BRANCH   2   9
HETATM    9  C   UNL     1      -9.987  10.079  68.324  1.00  0.00    -0.173 A  
HETATM   10  C   UNL     1      -9.793   9.629  69.643  1.00  0.00    -0.233 A  
HETATM   11  C   UNL     1     -11.148  10.829  68.055  1.00  0.00    -0.359 A  
HETATM   12  C   UNL     1     -11.874  10.621  70.348  1.00  0.00    -0.349 A  
HETATM   13  C   UNL     1     -10.727   9.895  70.648  1.00  0.00    -0.372 A  
HETATM   14 BR   UNL     1     -13.154  10.952  71.699  1.00  0.00    -0.482 Br 
HETATM   15  C   UNL     1     -12.087  11.096  69.058  1.00  0.00    -0.315 A  
ENDBRANCH   2   9
BRANCH   8  16
HETATM   16  C   UNL     1      -8.375   6.356  65.920  1.00  0.00    -0.143 C  
BRANCH  16  17
HETATM   17  C   UNL     1      -7.380   5.296  66.403  1.00  0.00    -0.082 C  
BRANCH  17  18
HETATM   18  C   UNL     1      -7.626   4.874  67.852  1.00  0.00    -0.083 C  
BRANCH  18  19
HETATM   19  C   UNL     1      -9.053   4.405  68.055  1.00  0.00    -0.127 C  
HETATM   20  O   UNL     1      -9.578   3.545  67.351  1.00  0.00    -0.210 OA 
BRANCH  19  21
HETATM   21  C   UNL     1      -9.860   5.049  69.127  1.00  0.00    -0.262 A  
HETATM   22  C   UNL     1     -10.868   5.944  68.743  1.00  0.00    -0.353 A  
HETATM   23  C   UNL     1     -11.641   6.586  69.709  1.00  0.00    -0.392 A  
HETATM   24  C   UNL     1     -11.411   6.323  71.054  1.00  0.00    -0.306 A  
HETATM   25  F   UNL     1     -12.156   6.939  71.983  1.00  0.00    -0.311 F  
HETATM   26  C   UNL     1     -10.424   5.426  71.452  1.00  0.00    -0.294 A  
HETATM   27  C   UNL     1      -9.644   4.786  70.487  1.00  0.00    -0.258 A  
ENDBRANCH  19  21
ENDBRANCH  18  19
ENDBRANCH  17  18
ENDBRANCH  16  17
ENDBRANCH   8  16
TORSDOF 6
ENDMDL
MODEL      112
REMARK 921   NORMALIZED FREE ENERGY PREDICTED BY IDOCK:   -5.10 KCAL/MOL
REMARK 922        TOTAL FREE ENERGY PREDICTED BY IDOCK:   -8.10 KCAL/MOL
REMARK 923 INTER-LIGAND FREE ENERGY PREDICTED BY IDOCK:   -5.22 KCAL/MOL
REMARK 924 INTRA-LIGAND FREE ENERGY PREDICTED BY IDOCK:   -2.88 KCAL/MOL
REMARK 927      BINDING AFFINITY PREDICTED BY RF-SCORE:    0.00 PKD
ROOT
HETATM    1  O   UNL     1     -11.541   6.657  66.830  1.00  0.00    -0.726 OA 
HETATM    2  C   UNL     1     -10.380   7.255  67.436  1.00  0.00    -0.260 C  
HETATM    3  H   UNL     1     -11.436   6.712  65.887  1.00  0.00     0.000 HD 
HETATM    4  C   UNL     1     -10.550   7.168  68.964  1.00  0.00    -0.225 C  
HETATM    5  C   UNL     1      -9.141   6.475  66.952  1.00  0.00    -0.144 C  
HETATM    6  C   UNL     1     -10.400   5.731  69.469  1.00  0.00    -0.263 C  
HETATM    7  C   UNL     1      -9.049   5.081  67.579  1.00  0.00    -0.116 C  
HETATM    8  N   UNL     1      -9.150   5.085  69.046  1.00  0.00    -0.101 NA 
ENDROOT
BRANCH   2   9
HETATM    9  C   UNL     1     -10.303   8.716  66.971  1.00  0.00    -0.368 A  
HETATM   10  C   UNL     1     -10.908   9.749  67.708  1.00  0.00    -0.306 A  
HETATM   11  C   UNL     1      -9.644   9.066  65.776  1.00  0.00    -0.287 A  
HETATM   12  C   UNL     1     -10.238  11.387  66.072  1.00  0.00    -0.245 A  
HETATM   13  C   UNL     1     -10.878  11.074  67.265  1.00  0.00    -0.335 A  
HETATM   14 BR   UNL     1     -10.226  13.173  65.454  1.00  0.00    -0.284 Br 
HETATM   15  C   UNL     1      -9.614  10.391  65.327  1.00  0.00    -0.316 A  
ENDBRANCH   2   9
BRANCH   8  16
HETATM   16  C   UNL     1      -7.941   5.654  69.670  1.00  0.00    -0.095 C  
BRANCH  16  17
HETATM   17  C   UNL     1      -8.186   6.325  71.026  1.00  0.00    -0.123 C  
BRANCH  17  18
HETATM   18  C   UNL     1      -7.308   7.558  71.240  1.00  0.00    -0.078 C  
BRANCH  18  19
HETATM   19  C   UNL     1      -8.043   8.829  70.864  1.00  0.00    -0.150 C  
HETATM   20  O   UNL     1      -9.032   9.232  71.472  1.00  0.00    -0.316 OA 
BRANCH  19  21
HETATM   21  C   UNL     1      -7.566   9.593  69.678  1.00  0.00    -0.114 A  
HETATM   22  C   UNL     1      -7.933  10.941  69.574  1.00  0.00     0.052 A  
HETATM   23  C   UNL     1      -7.526  11.696  68.474  1.00  0.00    -0.113 A  
HETATM   24  C   UNL     1      -6.744  11.103  67.490  1.00  0.00    -0.075 A  
HETATM   25  F   UNL     1      -6.352  11.829  66.434  1.00  0.00    -0.119 F  
HETATM   26  C   UNL     1      -6.359   9.769  67.586  1.00  0.00    -0.060 A  
HETATM   27  C   UNL     1      -6.771   9.009  68.682  1.00  0.00    -0.058 A  
ENDBRANCH  19  21
ENDBRANCH  18  19
ENDBRANCH  17  18
ENDBRANCH  16  17
ENDBRANCH   8  16
TORSDOF 6
ENDMDL
MODEL      113
REMARK 921   NORMALIZED FREE ENERGY PREDICTED BY IDOCK:   -5.09 KCAL/MOL
REMARK 922        TOTAL FREE ENERGY PREDICTED BY IDOCK:   -8.09 KCAL/MOL
REMARK 923 INTER-LIGAND FREE ENERGY PREDICTED BY IDOCK:   -5.75 KCAL/MOL
REMARK 924 INTRA-LIGAND FREE ENERGY PREDICTED BY IDOCK:   -2.34 KCAL/MOL
REMARK 927      BINDING AFFINITY PREDICTED BY RF-SCORE:    0.00 PKD
ROOT
HETATM    1  O   UNL     1      -9.973  12.487  67.312  1.00  0.00    -0.208 OA 
HETATM    2  C   UNL     1      -9.394  11.298  67.880  1.00  0.00    -0.161 C  
HETATM    3  H   UNL     1     -10.047  13.132  68.006  1.00  0.00     0.000 HD 
HETATM    4  C   UNL     1      -9.273  10.252  66.755  1.00  0.00    -0.180 C  
HETATM    5  C   UNL     1      -8.017  11.674  68.462  1.00  0.00    -0.144 C  
HETATM    6  C   UNL     1      -8.179  10.623  65.752  1.00  0.00    -0.161 C  
HETATM    7  C   UNL     1      -6.979  11.949  67.371  1.00  0.00    -0.128 C  
HETATM    8  N   UNL     1      -6.872  10.874  66.372  1.00  0.00    -0.133 NA 
ENDROOT
BRANCH   2   9
HETATM    9  C   UNL     1     -10.326  10.804  68.996  1.00  0.00    -0.235 A  
HETATM   10  C   UNL     1      -9.878   9.894  69.970  1.00  0.00    -0.291 A  
HETATM   11  C   UNL     1     -11.667  11.228  69.065  1.00  0.00    -0.410 A  
HETATM   12  C   UNL     1     -12.060   9.829  70.993  1.00  0.00    -0.346 A  
HETATM   13  C   UNL     1     -10.736   9.408  70.961  1.00  0.00    -0.407 A  
HETATM   14 BR   UNL     1     -13.229   9.146  72.312  1.00  0.00    -0.540 Br 
HETATM   15  C   UNL     1     -12.530  10.742  70.054  1.00  0.00    -0.317 A  
ENDBRANCH   2   9
BRANCH   8  16
HETATM   16  C   UNL     1      -6.236   9.671  66.939  1.00  0.00    -0.065 C  
BRANCH  16  17
HETATM   17  C   UNL     1      -6.147   8.487  65.970  1.00  0.00    -0.048 C  
BRANCH  17  18
HETATM   18  C   UNL     1      -6.568   7.166  66.613  1.00  0.00    -0.055 C  
BRANCH  18  19
HETATM   19  C   UNL     1      -7.994   6.806  66.247  1.00  0.00    -0.108 C  
HETATM   20  O   UNL     1      -8.374   6.685  65.084  1.00  0.00    -0.137 OA 
BRANCH  19  21
HETATM   21  C   UNL     1      -8.982   6.636  67.347  1.00  0.00    -0.114 A  
HETATM   22  C   UNL     1     -10.325   6.935  67.078  1.00  0.00    -0.348 A  
HETATM   23  C   UNL     1     -11.285   6.807  68.080  1.00  0.00    -0.154 A  
HETATM   24  C   UNL     1     -10.903   6.371  69.343  1.00  0.00    -0.321 A  
HETATM   25  F   UNL     1     -11.828   6.248  70.305  1.00  0.00    -0.450 F  
HETATM   26  C   UNL     1      -9.577   6.056  69.623  1.00  0.00    -0.177 A  
HETATM   27  C   UNL     1      -8.611   6.189  68.623  1.00  0.00    -0.113 A  
ENDBRANCH  19  21
ENDBRANCH  18  19
ENDBRANCH  17  18
ENDBRANCH  16  17
ENDBRANCH   8  16
TORSDOF 6
ENDMDL
MODEL      114
REMARK 921   NORMALIZED FREE ENERGY PREDICTED BY IDOCK:   -5.08 KCAL/MOL
REMARK 922        TOTAL FREE ENERGY PREDICTED BY IDOCK:   -8.08 KCAL/MOL
REMARK 923 INTER-LIGAND FREE ENERGY PREDICTED BY IDOCK:   -7.55 KCAL/MOL
REMARK 924 INTRA-LIGAND FREE ENERGY PREDICTED BY IDOCK:   -0.53 KCAL/MOL
REMARK 927      BINDING AFFINITY PREDICTED BY RF-SCORE:    0.00 PKD
ROOT
HETATM    1  O   UNL     1     -10.911  14.759  67.034  1.00  0.00    -0.308 OA 
HETATM    2  C   UNL     1     -10.933  13.679  67.985  1.00  0.00    -0.250 C  
HETATM    3  H   UNL     1     -10.306  15.418  67.357  1.00  0.00     0.000 HD 
HETATM    4  C   UNL     1     -11.913  12.613  67.461  1.00  0.00    -0.314 C  
HETATM    5  C   UNL     1      -9.498  13.127  68.106  1.00  0.00    -0.222 C  
HETATM    6  C   UNL     1     -11.353  11.878  66.241  1.00  0.00    -0.334 C  
HETATM    7  C   UNL     1      -9.068  12.345  66.863  1.00  0.00    -0.211 C  
HETATM    8  N   UNL     1     -10.022  11.297  66.464  1.00  0.00    -0.206 NA 
ENDROOT
BRANCH   2   9
HETATM    9  C   UNL     1     -11.400  14.245  69.333  1.00  0.00    -0.325 A  
HETATM   10  C   UNL     1     -11.061  15.550  69.734  1.00  0.00    -0.300 A  
HETATM   11  C   UNL     1     -12.162  13.465  70.225  1.00  0.00    -0.405 A  
HETATM   12  C   UNL     1     -12.181  15.253  71.848  1.00  0.00    -0.361 A  
HETATM   13  C   UNL     1     -11.446  16.052  70.980  1.00  0.00    -0.460 A  
HETATM   14 BR   UNL     1     -12.673  15.919  73.546  1.00  0.00    -0.762 Br 
HETATM   15  C   UNL     1     -12.548  13.963  71.475  1.00  0.00    -0.419 A  
ENDBRANCH   2   9
BRANCH   8  16
HETATM   16  C   UNL     1     -10.011  10.168  67.412  1.00  0.00    -0.195 C  
BRANCH  16  17
HETATM   17  C   UNL     1      -9.131  10.388  68.647  1.00  0.00    -0.157 C  
BRANCH  17  18
HETATM   18  C   UNL     1      -9.860  10.076  69.953  1.00  0.00    -0.266 C  
BRANCH  18  19
HETATM   19  C   UNL     1      -9.120   9.027  70.760  1.00  0.00    -0.245 C  
HETATM   20  O   UNL     1      -8.315   9.312  71.644  1.00  0.00    -0.306 OA 
BRANCH  19  21
HETATM   21  C   UNL     1      -9.350   7.594  70.430  1.00  0.00    -0.160 A  
HETATM   22  C   UNL     1     -10.650   7.198  70.088  1.00  0.00    -0.247 A  
HETATM   23  C   UNL     1     -10.920   5.864  69.786  1.00  0.00    -0.452 A  
HETATM   24  C   UNL     1      -9.889   4.934  69.817  1.00  0.00    -0.221 A  
HETATM   25  F   UNL     1     -10.149   3.652  69.526  1.00  0.00    -0.179 F  
HETATM   26  C   UNL     1      -8.589   5.313  70.141  1.00  0.00    -0.122 A  
HETATM   27  C   UNL     1      -8.317   6.647  70.450  1.00  0.00    -0.127 A  
ENDBRANCH  19  21
ENDBRANCH  18  19
ENDBRANCH  17  18
ENDBRANCH  16  17
ENDBRANCH   8  16
TORSDOF 6
ENDMDL
MODEL      115
REMARK 921   NORMALIZED FREE ENERGY PREDICTED BY IDOCK:   -5.07 KCAL/MOL
REMARK 922        TOTAL FREE ENERGY PREDICTED BY IDOCK:   -8.06 KCAL/MOL
REMARK 923 INTER-LIGAND FREE ENERGY PREDICTED BY IDOCK:   -6.71 KCAL/MOL
REMARK 924 INTRA-LIGAND FREE ENERGY PREDICTED BY IDOCK:   -1.35 KCAL/MOL
REMARK 927      BINDING AFFINITY PREDICTED BY RF-SCORE:    0.00 PKD
ROOT
HETATM    1  O   UNL     1      -6.108  15.909  67.806  1.00  0.00    -0.123 OA 
HETATM    2  C   UNL     1      -7.366  15.269  68.086  1.00  0.00    -0.114 C  
HETATM    3  H   UNL     1      -5.671  15.404  67.129  1.00  0.00     0.000 HD 
HETATM    4  C   UNL     1      -8.074  16.086  69.183  1.00  0.00    -0.238 C  
HETATM    5  C   UNL     1      -8.182  15.239  66.778  1.00  0.00    -0.215 C  
HETATM    6  C   UNL     1      -8.576  17.431  68.653  1.00  0.00    -0.259 C  
HETATM    7  C   UNL     1      -8.700  16.624  66.382  1.00  0.00    -0.310 C  
HETATM    8  N   UNL     1      -9.425  17.315  67.460  1.00  0.00    -0.243 NA 
ENDROOT
BRANCH   2   9
HETATM    9  C   UNL     1      -7.075  13.840  68.563  1.00  0.00    -0.106 A  
HETATM   10  C   UNL     1      -7.673  12.727  67.944  1.00  0.00    -0.143 A  
HETATM   11  C   UNL     1      -6.217  13.596  69.654  1.00  0.00    -0.122 A  
HETATM   12  C   UNL     1      -6.610  11.219  69.495  1.00  0.00    -0.129 A  
HETATM   13  C   UNL     1      -7.446  11.428  68.405  1.00  0.00    -0.111 A  
HETATM   14 BR   UNL     1      -6.328   9.465  70.139  1.00  0.00    -0.066 Br 
HETATM   15  C   UNL     1      -5.988  12.296  70.120  1.00  0.00    -0.148 A  
ENDBRANCH   2   9
BRANCH   8  16
HETATM   16  C   UNL     1     -10.735  16.689  67.717  1.00  0.00    -0.327 C  
BRANCH  16  17
HETATM   17  C   UNL     1     -11.220  15.759  66.600  1.00  0.00    -0.000 C  
BRANCH  17  18
HETATM   18  C   UNL     1     -11.825  14.461  67.135  1.00  0.00    -0.437 C  
BRANCH  18  19
HETATM   19  C   UNL     1     -12.195  13.519  66.006  1.00  0.00    -0.445 C  
HETATM   20  O   UNL     1     -13.132  13.732  65.240  1.00  0.00    -0.756 OA 
BRANCH  19  21
HETATM   21  C   UNL     1     -11.412  12.262  65.854  1.00  0.00    -0.428 A  
HETATM   22  C   UNL     1     -10.969  11.915  64.570  1.00  0.00    -0.376 A  
HETATM   23  C   UNL     1     -10.246  10.740  64.372  1.00  0.00    -0.432 A  
HETATM   24  C   UNL     1      -9.960   9.921  65.458  1.00  0.00    -0.292 A  
HETATM   25  F   UNL     1      -9.264   8.792  65.267  1.00  0.00    -0.246 F  
HETATM   26  C   UNL     1     -10.381  10.258  66.741  1.00  0.00    -0.288 A  
HETATM   27  C   UNL     1     -11.111  11.431  66.942  1.00  0.00    -0.356 A  
ENDBRANCH  19  21
ENDBRANCH  18  19
ENDBRANCH  17  18
ENDBRANCH  16  17
ENDBRANCH   8  16
TORSDOF 6
ENDMDL
MODEL      116
REMARK 921   NORMALIZED FREE ENERGY PREDICTED BY IDOCK:   -5.07 KCAL/MOL
REMARK 922        TOTAL FREE ENERGY PREDICTED BY IDOCK:   -8.06 KCAL/MOL
REMARK 923 INTER-LIGAND FREE ENERGY PREDICTED BY IDOCK:   -5.47 KCAL/MOL
REMARK 924 INTRA-LIGAND FREE ENERGY PREDICTED BY IDOCK:   -2.59 KCAL/MOL
REMARK 927      BINDING AFFINITY PREDICTED BY RF-SCORE:    0.00 PKD
ROOT
HETATM    1  O   UNL     1      -9.908  11.441  69.558  1.00  0.00    -0.386 OA 
HETATM    2  C   UNL     1      -9.752  10.058  69.193  1.00  0.00    -0.209 C  
HETATM    3  H   UNL     1      -9.189  11.671  70.136  1.00  0.00     0.000 HD 
HETATM    4  C   UNL     1     -10.917   9.685  68.256  1.00  0.00    -0.172 C  
HETATM    5  C   UNL     1      -8.385   9.905  68.494  1.00  0.00    -0.108 C  
HETATM    6  C   UNL     1     -10.769  10.339  66.881  1.00  0.00    -0.184 C  
HETATM    7  C   UNL     1      -8.373  10.526  67.095  1.00  0.00    -0.127 C  
HETATM    8  N   UNL     1      -9.477  10.070  66.236  1.00  0.00    -0.180 NA 
ENDROOT
BRANCH   2   9
HETATM    9  C   UNL     1      -9.787   9.221  70.479  1.00  0.00    -0.310 A  
HETATM   10  C   UNL     1      -8.617   8.648  71.009  1.00  0.00    -0.211 A  
HETATM   11  C   UNL     1     -10.997   8.979  71.157  1.00  0.00    -0.371 A  
HETATM   12  C   UNL     1      -9.864   7.610  72.792  1.00  0.00    -0.226 A  
HETATM   13  C   UNL     1      -8.652   7.848  72.154  1.00  0.00    -0.185 A  
HETATM   14 BR   UNL     1      -9.917   6.502  74.321  1.00  0.00    -0.375 Br 
HETATM   15  C   UNL     1     -11.037   8.177  72.304  1.00  0.00    -0.410 A  
ENDBRANCH   2   9
BRANCH   8  16
HETATM   16  C   UNL     1      -9.294   8.667  65.822  1.00  0.00    -0.158 C  
BRANCH  16  17
HETATM   17  C   UNL     1      -7.842   8.282  65.518  1.00  0.00    -0.107 C  
BRANCH  17  18
HETATM   18  C   UNL     1      -7.294   7.238  66.490  1.00  0.00    -0.080 C  
BRANCH  18  19
HETATM   19  C   UNL     1      -8.190   6.017  66.551  1.00  0.00    -0.107 C  
HETATM   20  O   UNL     1      -8.431   5.317  65.570  1.00  0.00    -0.129 OA 
BRANCH  19  21
HETATM   21  C   UNL     1      -8.839   5.684  67.849  1.00  0.00    -0.105 A  
HETATM   22  C   UNL     1     -10.192   6.011  68.011  1.00  0.00    -0.218 A  
HETATM   23  C   UNL     1     -10.840   5.734  69.214  1.00  0.00    -0.374 A  
HETATM   24  C   UNL     1     -10.137   5.123  70.245  1.00  0.00    -0.268 A  
HETATM   25  F   UNL     1     -10.762   4.857  71.401  1.00  0.00    -0.257 F  
HETATM   26  C   UNL     1      -8.798   4.779  70.095  1.00  0.00    -0.130 A  
HETATM   27  C   UNL     1      -8.143   5.060  68.895  1.00  0.00    -0.084 A  
ENDBRANCH  19  21
ENDBRANCH  18  19
ENDBRANCH  17  18
ENDBRANCH  16  17
ENDBRANCH   8  16
TORSDOF 6
ENDMDL
MODEL      117
REMARK 921   NORMALIZED FREE ENERGY PREDICTED BY IDOCK:   -5.07 KCAL/MOL
REMARK 922        TOTAL FREE ENERGY PREDICTED BY IDOCK:   -8.06 KCAL/MOL
REMARK 923 INTER-LIGAND FREE ENERGY PREDICTED BY IDOCK:   -7.45 KCAL/MOL
REMARK 924 INTRA-LIGAND FREE ENERGY PREDICTED BY IDOCK:   -0.61 KCAL/MOL
REMARK 927      BINDING AFFINITY PREDICTED BY RF-SCORE:    0.00 PKD
ROOT
HETATM    1  O   UNL     1      -9.153   8.915  72.552  1.00  0.00    -0.349 OA 
HETATM    2  C   UNL     1      -9.716   8.194  71.441  1.00  0.00    -0.171 C  
HETATM    3  H   UNL     1      -8.323   8.507  72.771  1.00  0.00     0.000 HD 
HETATM    4  C   UNL     1     -11.061   8.855  71.086  1.00  0.00    -0.354 C  
HETATM    5  C   UNL     1      -8.714   8.273  70.271  1.00  0.00    -0.139 C  
HETATM    6  C   UNL     1     -10.865  10.227  70.437  1.00  0.00    -0.253 C  
HETATM    7  C   UNL     1      -8.654   9.669  69.647  1.00  0.00    -0.187 C  
HETATM    8  N   UNL     1      -9.972  10.205  69.271  1.00  0.00    -0.207 NA 
ENDROOT
BRANCH   2   9
HETATM    9  C   UNL     1      -9.914   6.735  71.874  1.00  0.00    -0.187 A  
HETATM   10  C   UNL     1     -11.005   6.353  72.674  1.00  0.00    -0.284 A  
HETATM   11  C   UNL     1      -8.994   5.735  71.504  1.00  0.00    -0.146 A  
HETATM   12  C   UNL     1     -10.230   4.072  72.744  1.00  0.00    -0.163 A  
HETATM   13  C   UNL     1     -11.164   5.034  73.108  1.00  0.00    -0.408 A  
HETATM   14 BR   UNL     1     -10.426   2.295  73.357  1.00  0.00    -0.242 Br 
HETATM   15  C   UNL     1      -9.148   4.413  71.938  1.00  0.00    -0.163 A  
ENDBRANCH   2   9
BRANCH   8  16
HETATM   16  C   UNL     1     -10.529   9.499  68.103  1.00  0.00    -0.223 C  
BRANCH  16  17
HETATM   17  C   UNL     1     -10.657  10.363  66.844  1.00  0.00    -0.293 C  
BRANCH  17  18
HETATM   18  C   UNL     1      -9.569  10.066  65.813  1.00  0.00    -0.291 C  
BRANCH  18  19
HETATM   19  C   UNL     1      -9.940  10.614  64.448  1.00  0.00    -0.350 C  
HETATM   20  O   UNL     1      -9.641  10.049  63.399  1.00  0.00    -0.262 OA 
BRANCH  19  21
HETATM   21  C   UNL     1     -10.657  11.917  64.385  1.00  0.00    -0.366 A  
HETATM   22  C   UNL     1     -11.803  11.999  63.582  1.00  0.00    -0.602 A  
HETATM   23  C   UNL     1     -12.501  13.201  63.477  1.00  0.00    -0.361 A  
HETATM   24  C   UNL     1     -12.057  14.313  64.182  1.00  0.00    -0.393 A  
HETATM   25  F   UNL     1     -12.729  15.468  64.080  1.00  0.00    -0.368 F  
HETATM   26  C   UNL     1     -10.930  14.245  64.994  1.00  0.00    -0.394 A  
HETATM   27  C   UNL     1     -10.224  13.045  65.097  1.00  0.00    -0.289 A  
ENDBRANCH  19  21
ENDBRANCH  18  19
ENDBRANCH  17  18
ENDBRANCH  16  17
ENDBRANCH   8  16
TORSDOF 6
ENDMDL
MODEL      118
REMARK 921   NORMALIZED FREE ENERGY PREDICTED BY IDOCK:   -5.05 KCAL/MOL
REMARK 922        TOTAL FREE ENERGY PREDICTED BY IDOCK:   -8.04 KCAL/MOL
REMARK 923 INTER-LIGAND FREE ENERGY PREDICTED BY IDOCK:   -7.26 KCAL/MOL
REMARK 924 INTRA-LIGAND FREE ENERGY PREDICTED BY IDOCK:   -0.78 KCAL/MOL
REMARK 927      BINDING AFFINITY PREDICTED BY RF-SCORE:    0.00 PKD
ROOT
HETATM    1  O   UNL     1     -12.166  11.877  64.843  1.00  0.00    -0.280 OA 
HETATM    2  C   UNL     1     -10.895  11.820  65.515  1.00  0.00    -0.297 C  
HETATM    3  H   UNL     1     -12.531  10.999  64.837  1.00  0.00     0.000 HD 
HETATM    4  C   UNL     1     -10.304  13.242  65.525  1.00  0.00    -0.298 C  
HETATM    5  C   UNL     1     -11.140  11.293  66.944  1.00  0.00    -0.339 C  
HETATM    6  C   UNL     1     -11.065  14.165  66.479  1.00  0.00    -0.318 C  
HETATM    7  C   UNL     1     -11.837  12.324  67.834  1.00  0.00    -0.293 C  
HETATM    8  N   UNL     1     -11.176  13.638  67.846  1.00  0.00    -0.263 NA 
ENDROOT
BRANCH   2   9
HETATM    9  C   UNL     1      -9.992  10.851  64.739  1.00  0.00    -0.366 A  
HETATM   10  C   UNL     1      -9.085  10.007  65.405  1.00  0.00    -0.235 A  
HETATM   11  C   UNL     1     -10.024  10.795  63.332  1.00  0.00    -0.385 A  
HETATM   12  C   UNL     1      -8.269   9.136  63.311  1.00  0.00    -0.177 A  
HETATM   13  C   UNL     1      -8.229   9.157  64.700  1.00  0.00    -0.152 A  
HETATM   14 BR   UNL     1      -7.089   8.011  62.355  1.00  0.00    -0.088 Br 
HETATM   15  C   UNL     1      -9.167   9.946  62.622  1.00  0.00    -0.297 A  
ENDBRANCH   2   9
BRANCH   8  16
HETATM   16  C   UNL     1      -9.895  13.592  68.575  1.00  0.00    -0.196 C  
BRANCH  16  17
HETATM   17  C   UNL     1      -8.900  14.686  68.173  1.00  0.00    -0.173 C  
BRANCH  17  18
HETATM   18  C   UNL     1      -8.530  15.603  69.339  1.00  0.00    -0.244 C  
BRANCH  18  19
HETATM   19  C   UNL     1      -7.856  16.870  68.850  1.00  0.00    -0.233 C  
HETATM   20  O   UNL     1      -6.703  17.171  69.151  1.00  0.00    -0.219 OA 
BRANCH  19  21
HETATM   21  C   UNL     1      -8.646  17.807  68.004  1.00  0.00    -0.250 A  
HETATM   22  C   UNL     1      -9.957  18.104  68.401  1.00  0.00    -0.392 A  
HETATM   23  C   UNL     1     -10.743  18.963  67.635  1.00  0.00    -0.469 A  
HETATM   24  C   UNL     1     -10.213  19.530  66.482  1.00  0.00    -0.467 A  
HETATM   25  F   UNL     1     -10.970  20.356  65.746  1.00  0.00    -0.309 F  
HETATM   26  C   UNL     1      -8.909  19.256  66.082  1.00  0.00    -0.260 A  
HETATM   27  C   UNL     1      -8.121  18.391  66.843  1.00  0.00    -0.257 A  
ENDBRANCH  19  21
ENDBRANCH  18  19
ENDBRANCH  17  18
ENDBRANCH  16  17
ENDBRANCH   8  16
TORSDOF 6
ENDMDL
MODEL      119
REMARK 921   NORMALIZED FREE ENERGY PREDICTED BY IDOCK:   -5.04 KCAL/MOL
REMARK 922        TOTAL FREE ENERGY PREDICTED BY IDOCK:   -8.02 KCAL/MOL
REMARK 923 INTER-LIGAND FREE ENERGY PREDICTED BY IDOCK:   -7.08 KCAL/MOL
REMARK 924 INTRA-LIGAND FREE ENERGY PREDICTED BY IDOCK:   -0.94 KCAL/MOL
REMARK 927      BINDING AFFINITY PREDICTED BY RF-SCORE:    0.00 PKD
ROOT
HETATM    1  O   UNL     1     -11.126   5.307  66.257  1.00  0.00    -0.667 OA 
HETATM    2  C   UNL     1      -9.987   5.702  67.043  1.00  0.00    -0.169 C  
HETATM    3  H   UNL     1     -11.294   4.388  66.433  1.00  0.00     0.000 HD 
HETATM    4  C   UNL     1      -9.714   7.191  66.758  1.00  0.00    -0.252 C  
HETATM    5  C   UNL     1     -10.330   5.457  68.527  1.00  0.00    -0.219 C  
HETATM    6  C   UNL     1     -10.785   8.092  67.376  1.00  0.00    -0.177 C  
HETATM    7  C   UNL     1     -11.352   6.462  69.063  1.00  0.00    -0.255 C  
HETATM    8  N   UNL     1     -10.989   7.866  68.813  1.00  0.00     0.067 NA 
ENDROOT
BRANCH   2   9
HETATM    9  C   UNL     1      -8.796   4.831  66.623  1.00  0.00    -0.110 A  
HETATM   10  C   UNL     1      -8.938   3.815  65.660  1.00  0.00    -0.136 A  
HETATM   11  C   UNL     1      -7.525   5.003  67.206  1.00  0.00    -0.083 A  
HETATM   12  C   UNL     1      -6.629   3.171  65.915  1.00  0.00    -0.040 A  
HETATM   13  C   UNL     1      -7.867   2.990  65.308  1.00  0.00    -0.082 A  
HETATM   14 BR   UNL     1      -5.188   2.034  65.464  1.00  0.00    -0.005 Br 
HETATM   15  C   UNL     1      -6.450   4.178  66.858  1.00  0.00    -0.041 A  
ENDBRANCH   2   9
BRANCH   8  16
HETATM   16  C   UNL     1      -9.852   8.287  69.652  1.00  0.00    -0.184 C  
BRANCH  16  17
HETATM   17  C   UNL     1     -10.047   9.637  70.350  1.00  0.00    -0.336 C  
BRANCH  17  18
HETATM   18  C   UNL     1     -11.507   9.908  70.710  1.00  0.00    -0.433 C  
BRANCH  18  19
HETATM   19  C   UNL     1     -12.062  11.077  69.919  1.00  0.00    -0.361 C  
HETATM   20  O   UNL     1     -12.185  11.056  68.696  1.00  0.00    -0.571 OA 
BRANCH  19  21
HETATM   21  C   UNL     1     -12.428  12.316  70.658  1.00  0.00    -0.323 A  
HETATM   22  C   UNL     1     -13.211  12.185  71.813  1.00  0.00    -0.423 A  
HETATM   23  C   UNL     1     -13.595  13.317  72.531  1.00  0.00    -0.637 A  
HETATM   24  C   UNL     1     -13.186  14.573  72.099  1.00  0.00    -0.369 A  
HETATM   25  F   UNL     1     -13.554  15.660  72.790  1.00  0.00    -0.494 F  
HETATM   26  C   UNL     1     -12.397  14.718  70.962  1.00  0.00    -0.397 A  
HETATM   27  C   UNL     1     -12.016  13.588  70.236  1.00  0.00    -0.386 A  
ENDBRANCH  19  21
ENDBRANCH  18  19
ENDBRANCH  17  18
ENDBRANCH  16  17
ENDBRANCH   8  16
TORSDOF 6
ENDMDL
MODEL      120
REMARK 921   NORMALIZED FREE ENERGY PREDICTED BY IDOCK:   -5.03 KCAL/MOL
REMARK 922        TOTAL FREE ENERGY PREDICTED BY IDOCK:   -8.01 KCAL/MOL
REMARK 923 INTER-LIGAND FREE ENERGY PREDICTED BY IDOCK:   -7.20 KCAL/MOL
REMARK 924 INTRA-LIGAND FREE ENERGY PREDICTED BY IDOCK:   -0.81 KCAL/MOL
REMARK 927      BINDING AFFINITY PREDICTED BY RF-SCORE:    0.00 PKD
ROOT
HETATM    1  O   UNL     1      -9.766   4.137  67.748  1.00  0.00    -0.166 OA 
HETATM    2  C   UNL     1      -9.697   5.346  68.526  1.00  0.00    -0.137 C  
HETATM    3  H   UNL     1     -10.598   3.718  67.937  1.00  0.00     0.000 HD 
HETATM    4  C   UNL     1      -8.349   6.026  68.220  1.00  0.00    -0.113 C  
HETATM    5  C   UNL     1     -10.891   6.235  68.123  1.00  0.00    -0.401 C  
HETATM    6  C   UNL     1      -8.321   6.619  66.810  1.00  0.00    -0.115 C  
HETATM    7  C   UNL     1     -10.722   6.839  66.726  1.00  0.00    -0.242 C  
HETATM    8  N   UNL     1      -9.439   7.531  66.532  1.00  0.00    -0.187 NA 
ENDROOT
BRANCH   2   9
HETATM    9  C   UNL     1      -9.799   4.961  70.008  1.00  0.00    -0.304 A  
HETATM   10  C   UNL     1      -9.004   3.936  70.552  1.00  0.00    -0.160 A  
HETATM   11  C   UNL     1     -10.711   5.605  70.867  1.00  0.00    -0.313 A  
HETATM   12  C   UNL     1     -10.048   4.193  72.710  1.00  0.00    -0.161 A  
HETATM   13  C   UNL     1      -9.126   3.552  71.890  1.00  0.00    -0.163 A  
HETATM   14 BR   UNL     1     -10.237   3.652  74.511  1.00  0.00    -0.255 Br 
HETATM   15  C   UNL     1     -10.837   5.223  72.207  1.00  0.00    -0.269 A  
ENDBRANCH   2   9
BRANCH   8  16
HETATM   16  C   UNL     1      -9.385   8.793  67.292  1.00  0.00    -0.147 C  
BRANCH  16  17
HETATM   17  C   UNL     1      -9.136  10.037  66.433  1.00  0.00    -0.176 C  
BRANCH  17  18
HETATM   18  C   UNL     1     -10.370  10.460  65.637  1.00  0.00    -0.260 C  
BRANCH  18  19
HETATM   19  C   UNL     1     -11.150  11.540  66.362  1.00  0.00    -0.269 C  
HETATM   20  O   UNL     1     -11.800  11.322  67.382  1.00  0.00    -0.590 OA 
BRANCH  19  21
HETATM   21  C   UNL     1     -11.158  12.911  65.783  1.00  0.00    -0.312 A  
HETATM   22  C   UNL     1     -12.315  13.335  65.115  1.00  0.00    -0.516 A  
HETATM   23  C   UNL     1     -12.367  14.605  64.541  1.00  0.00    -0.416 A  
HETATM   24  C   UNL     1     -11.268  15.449  64.646  1.00  0.00    -0.364 A  
HETATM   25  F   UNL     1     -11.319  16.669  64.095  1.00  0.00    -0.463 F  
HETATM   26  C   UNL     1     -10.117  15.048  65.318  1.00  0.00    -0.378 A  
HETATM   27  C   UNL     1     -10.059  13.775  65.889  1.00  0.00    -0.325 A  
ENDBRANCH  19  21
ENDBRANCH  18  19
ENDBRANCH  17  18
ENDBRANCH  16  17
ENDBRANCH   8  16
TORSDOF 6
ENDMDL
MODEL      121
REMARK 921   NORMALIZED FREE ENERGY PREDICTED BY IDOCK:   -5.03 KCAL/MOL
REMARK 922        TOTAL FREE ENERGY PREDICTED BY IDOCK:   -8.01 KCAL/MOL
REMARK 923 INTER-LIGAND FREE ENERGY PREDICTED BY IDOCK:   -5.05 KCAL/MOL
REMARK 924 INTRA-LIGAND FREE ENERGY PREDICTED BY IDOCK:   -2.96 KCAL/MOL
REMARK 927      BINDING AFFINITY PREDICTED BY RF-SCORE:    0.00 PKD
ROOT
HETATM    1  O   UNL     1     -11.038   8.160  67.892  1.00  0.00    -0.467 OA 
HETATM    2  C   UNL     1     -10.226   7.479  68.866  1.00  0.00    -0.208 C  
HETATM    3  H   UNL     1     -11.685   7.542  67.572  1.00  0.00     0.000 HD 
HETATM    4  C   UNL     1      -9.176   8.480  69.385  1.00  0.00    -0.153 C  
HETATM    5  C   UNL     1     -11.154   6.987  69.994  1.00  0.00    -0.316 C  
HETATM    6  C   UNL     1      -9.808   9.553  70.274  1.00  0.00    -0.261 C  
HETATM    7  C   UNL     1     -11.667   8.133  70.869  1.00  0.00    -0.244 C  
HETATM    8  N   UNL     1     -10.601   9.006  71.384  1.00  0.00    -0.295 NA 
ENDROOT
BRANCH   2   9
HETATM    9  C   UNL     1      -9.555   6.286  68.171  1.00  0.00    -0.115 A  
HETATM   10  C   UNL     1     -10.250   5.082  67.955  1.00  0.00    -0.144 A  
HETATM   11  C   UNL     1      -8.212   6.348  67.751  1.00  0.00    -0.118 A  
HETATM   12  C   UNL     1      -8.297   4.063  66.977  1.00  0.00    -0.100 A  
HETATM   13  C   UNL     1      -9.629   3.978  67.365  1.00  0.00    -0.222 A  
HETATM   14 BR   UNL     1      -7.447   2.560  66.209  1.00  0.00    -0.068 Br 
HETATM   15  C   UNL     1      -7.586   5.244  67.161  1.00  0.00    -0.092 A  
ENDBRANCH   2   9
BRANCH   8  16
HETATM   16  C   UNL     1      -9.797   8.326  72.416  1.00  0.00    -0.304 C  
BRANCH  16  17
HETATM   17  C   UNL     1     -10.621   7.554  73.452  1.00  0.00    -0.409 C  
BRANCH  17  18
HETATM   18  C   UNL     1      -9.970   6.231  73.854  1.00  0.00    -0.252 C  
BRANCH  18  19
HETATM   19  C   UNL     1     -10.496   5.082  73.017  1.00  0.00    -0.202 C  
HETATM   20  O   UNL     1     -11.655   4.680  73.087  1.00  0.00    -0.276 OA 
BRANCH  19  21
HETATM   21  C   UNL     1      -9.548   4.386  72.103  1.00  0.00    -0.206 A  
HETATM   22  C   UNL     1      -8.376   5.060  71.735  1.00  0.00    -0.116 A  
HETATM   23  C   UNL     1      -7.464   4.457  70.869  1.00  0.00    -0.052 A  
HETATM   24  C   UNL     1      -7.722   3.181  70.384  1.00  0.00    -0.043 A  
HETATM   25  F   UNL     1      -6.845   2.602  69.552  1.00  0.00    -0.032 F  
HETATM   26  C   UNL     1      -8.874   2.493  70.751  1.00  0.00    -0.137 A  
HETATM   27  C   UNL     1      -9.793   3.095  71.613  1.00  0.00    -0.216 A  
ENDBRANCH  19  21
ENDBRANCH  18  19
ENDBRANCH  17  18
ENDBRANCH  16  17
ENDBRANCH   8  16
TORSDOF 6
ENDMDL
MODEL      122
REMARK 921   NORMALIZED FREE ENERGY PREDICTED BY IDOCK:   -5.03 KCAL/MOL
REMARK 922        TOTAL FREE ENERGY PREDICTED BY IDOCK:   -8.00 KCAL/MOL
REMARK 923 INTER-LIGAND FREE ENERGY PREDICTED BY IDOCK:   -7.23 KCAL/MOL
REMARK 924 INTRA-LIGAND FREE ENERGY PREDICTED BY IDOCK:   -0.77 KCAL/MOL
REMARK 927      BINDING AFFINITY PREDICTED BY RF-SCORE:    0.00 PKD
ROOT
HETATM    1  O   UNL     1     -12.411  16.024  69.754  1.00  0.00    -0.343 OA 
HETATM    2  C   UNL     1     -11.461  15.034  69.318  1.00  0.00    -0.307 C  
HETATM    3  H   UNL     1     -12.358  16.079  70.701  1.00  0.00     0.000 HD 
HETATM    4  C   UNL     1     -11.547  14.944  67.783  1.00  0.00    -0.358 C  
HETATM    5  C   UNL     1     -10.062  15.483  69.787  1.00  0.00    -0.291 C  
HETATM    6  C   UNL     1     -10.960  16.186  67.109  1.00  0.00    -0.144 C  
HETATM    7  C   UNL     1      -9.539  16.684  68.995  1.00  0.00    -0.246 C  
HETATM    8  N   UNL     1      -9.589  16.496  67.536  1.00  0.00    -0.230 NA 
ENDROOT
BRANCH   2   9
HETATM    9  C   UNL     1     -11.836  13.698  69.972  1.00  0.00    -0.378 A  
HETATM   10  C   UNL     1     -12.509  13.652  71.207  1.00  0.00    -0.412 A  
HETATM   11  C   UNL     1     -11.497  12.471  69.369  1.00  0.00    -0.327 A  
HETATM   12  C   UNL     1     -12.447  11.243  71.218  1.00  0.00    -0.336 A  
HETATM   13  C   UNL     1     -12.812  12.438  71.827  1.00  0.00    -0.350 A  
HETATM   14 BR   UNL     1     -12.827   9.600  72.072  1.00  0.00    -0.490 Br 
HETATM   15  C   UNL     1     -11.797  11.252  69.988  1.00  0.00    -0.448 A  
ENDBRANCH   2   9
BRANCH   8  16
HETATM   16  C   UNL     1      -8.584  15.517  67.083  1.00  0.00    -0.215 C  
BRANCH  16  17
HETATM   17  C   UNL     1      -7.192  16.108  66.837  1.00  0.00    -0.240 C  
BRANCH  17  18
HETATM   18  C   UNL     1      -7.235  17.395  66.013  1.00  0.00    -0.269 C  
BRANCH  18  19
HETATM   19  C   UNL     1      -6.228  18.407  66.521  1.00  0.00    -0.174 C  
HETATM   20  O   UNL     1      -5.515  19.072  65.772  1.00  0.00    -0.142 OA 
BRANCH  19  21
HETATM   21  C   UNL     1      -6.070  18.566  67.993  1.00  0.00    -0.192 A  
HETATM   22  C   UNL     1      -6.729  19.636  68.613  1.00  0.00    -0.332 A  
HETATM   23  C   UNL     1      -6.599  19.838  69.987  1.00  0.00    -0.279 A  
HETATM   24  C   UNL     1      -5.822  18.962  70.736  1.00  0.00    -0.022 A  
HETATM   25  F   UNL     1      -5.700  19.156  72.056  1.00  0.00    -0.324 F  
HETATM   26  C   UNL     1      -5.174  17.886  70.138  1.00  0.00    -0.230 A  
HETATM   27  C   UNL     1      -5.296  17.686  68.761  1.00  0.00    -0.156 A  
ENDBRANCH  19  21
ENDBRANCH  18  19
ENDBRANCH  17  18
ENDBRANCH  16  17
ENDBRANCH   8  16
TORSDOF 6
ENDMDL
MODEL      123
REMARK 921   NORMALIZED FREE ENERGY PREDICTED BY IDOCK:   -5.02 KCAL/MOL
REMARK 922        TOTAL FREE ENERGY PREDICTED BY IDOCK:   -7.99 KCAL/MOL
REMARK 923 INTER-LIGAND FREE ENERGY PREDICTED BY IDOCK:   -6.58 KCAL/MOL
REMARK 924 INTRA-LIGAND FREE ENERGY PREDICTED BY IDOCK:   -1.41 KCAL/MOL
REMARK 927      BINDING AFFINITY PREDICTED BY RF-SCORE:    0.00 PKD
ROOT
HETATM    1  O   UNL     1      -8.255  11.647  69.029  1.00  0.00    -0.350 OA 
HETATM    2  C   UNL     1      -8.703  10.503  68.281  1.00  0.00    -0.135 C  
HETATM    3  H   UNL     1      -9.025  12.091  69.367  1.00  0.00     0.000 HD 
HETATM    4  C   UNL     1      -7.456   9.783  67.732  1.00  0.00    -0.090 C  
HETATM    5  C   UNL     1      -9.509   9.600  69.236  1.00  0.00    -0.184 C  
HETATM    6  C   UNL     1      -6.672   9.082  68.842  1.00  0.00    -0.053 C  
HETATM    7  C   UNL     1      -8.618   8.887  70.256  1.00  0.00    -0.167 C  
HETATM    8  N   UNL     1      -7.487   8.165  69.651  1.00  0.00    -0.084 NA 
ENDROOT
BRANCH   2   9
HETATM    9  C   UNL     1      -9.600  11.003  67.140  1.00  0.00    -0.189 A  
HETATM   10  C   UNL     1      -9.407  10.569  65.816  1.00  0.00    -0.229 A  
HETATM   11  C   UNL     1     -10.630  11.934  67.378  1.00  0.00    -0.257 A  
HETATM   12  C   UNL     1     -11.189  11.990  65.030  1.00  0.00    -0.320 A  
HETATM   13  C   UNL     1     -10.192  11.057  64.768  1.00  0.00    -0.381 A  
HETATM   14 BR   UNL     1     -12.229  12.676  63.609  1.00  0.00    -0.631 Br 
HETATM   15  C   UNL     1     -11.417  12.427  66.332  1.00  0.00    -0.427 A  
ENDBRANCH   2   9
BRANCH   8  16
HETATM   16  C   UNL     1      -7.940   6.966  68.923  1.00  0.00    -0.116 C  
BRANCH  16  17
HETATM   17  C   UNL     1      -7.300   5.658  69.401  1.00  0.00    -0.070 C  
BRANCH  17  18
HETATM   18  C   UNL     1      -7.785   5.237  70.788  1.00  0.00    -0.088 C  
BRANCH  18  19
HETATM   19  C   UNL     1      -9.267   4.920  70.780  1.00  0.00    -0.145 C  
HETATM   20  O   UNL     1      -9.722   3.870  70.331  1.00  0.00    -0.187 OA 
BRANCH  19  21
HETATM   21  C   UNL     1     -10.210   5.948  71.300  1.00  0.00    -0.262 A  
HETATM   22  C   UNL     1      -9.939   6.515  72.552  1.00  0.00    -0.184 A  
HETATM   23  C   UNL     1     -10.800   7.471  73.090  1.00  0.00    -0.448 A  
HETATM   24  C   UNL     1     -11.921   7.863  72.369  1.00  0.00    -0.320 A  
HETATM   25  F   UNL     1     -12.748   8.783  72.887  1.00  0.00    -0.451 F  
HETATM   26  C   UNL     1     -12.197   7.320  71.118  1.00  0.00    -0.376 A  
HETATM   27  C   UNL     1     -11.340   6.358  70.580  1.00  0.00    -0.438 A  
ENDBRANCH  19  21
ENDBRANCH  18  19
ENDBRANCH  17  18
ENDBRANCH  16  17
ENDBRANCH   8  16
TORSDOF 6
ENDMDL
MODEL      124
REMARK 921   NORMALIZED FREE ENERGY PREDICTED BY IDOCK:   -4.99 KCAL/MOL
REMARK 922        TOTAL FREE ENERGY PREDICTED BY IDOCK:   -7.95 KCAL/MOL
REMARK 923 INTER-LIGAND FREE ENERGY PREDICTED BY IDOCK:   -6.56 KCAL/MOL
REMARK 924 INTRA-LIGAND FREE ENERGY PREDICTED BY IDOCK:   -1.39 KCAL/MOL
REMARK 927      BINDING AFFINITY PREDICTED BY RF-SCORE:    0.00 PKD
ROOT
HETATM    1  O   UNL     1     -13.594   7.727  71.134  1.00  0.00    -0.565 OA 
HETATM    2  C   UNL     1     -12.246   8.230  71.186  1.00  0.00    -0.233 C  
HETATM    3  H   UNL     1     -13.977   8.012  70.313  1.00  0.00     0.000 HD 
HETATM    4  C   UNL     1     -11.624   7.769  72.518  1.00  0.00    -0.422 C  
HETATM    5  C   UNL     1     -11.483   7.663  69.972  1.00  0.00    -0.012 C  
HETATM    6  C   UNL     1     -11.344   6.265  72.522  1.00  0.00    -0.275 C  
HETATM    7  C   UNL     1     -11.188   6.168  70.115  1.00  0.00    -0.382 C  
HETATM    8  N   UNL     1     -10.531   5.814  71.384  1.00  0.00    -0.229 NA 
ENDROOT
BRANCH   2   9
HETATM    9  C   UNL     1     -12.309   9.761  71.106  1.00  0.00    -0.451 A  
HETATM   10  C   UNL     1     -13.107  10.507  71.994  1.00  0.00    -0.511 A  
HETATM   11  C   UNL     1     -11.589  10.470  70.124  1.00  0.00    -0.408 A  
HETATM   12  C   UNL     1     -12.495  12.568  70.903  1.00  0.00    -0.269 A  
HETATM   13  C   UNL     1     -13.202  11.897  71.895  1.00  0.00    -0.467 A  
HETATM   14 BR   UNL     1     -12.649  14.445  70.748  1.00  0.00    -0.446 Br 
HETATM   15  C   UNL     1     -11.683  11.862  70.021  1.00  0.00    -0.366 A  
ENDBRANCH   2   9
BRANCH   8  16
HETATM   16  C   UNL     1      -9.135   6.288  71.420  1.00  0.00    -0.142 C  
BRANCH  16  17
HETATM   17  C   UNL     1      -8.239   5.697  70.327  1.00  0.00    -0.104 C  
BRANCH  17  18
HETATM   18  C   UNL     1      -7.468   6.767  69.554  1.00  0.00    -0.093 C  
BRANCH  18  19
HETATM   19  C   UNL     1      -8.177   7.133  68.265  1.00  0.00    -0.124 C  
HETATM   20  O   UNL     1      -8.563   8.273  68.016  1.00  0.00    -0.130 OA 
BRANCH  19  21
HETATM   21  C   UNL     1      -8.453   6.049  67.282  1.00  0.00    -0.104 A  
HETATM   22  C   UNL     1      -7.363   5.328  66.775  1.00  0.00    -0.086 A  
HETATM   23  C   UNL     1      -7.568   4.314  65.840  1.00  0.00    -0.089 A  
HETATM   24  C   UNL     1      -8.860   4.018  65.424  1.00  0.00    -0.123 A  
HETATM   25  F   UNL     1      -9.056   3.043  64.526  1.00  0.00    -0.110 F  
HETATM   26  C   UNL     1      -9.954   4.715  65.928  1.00  0.00    -0.256 A  
HETATM   27  C   UNL     1      -9.752   5.735  66.859  1.00  0.00    -0.163 A  
ENDBRANCH  19  21
ENDBRANCH  18  19
ENDBRANCH  17  18
ENDBRANCH  16  17
ENDBRANCH   8  16
TORSDOF 6
ENDMDL
MODEL      125
REMARK 921   NORMALIZED FREE ENERGY PREDICTED BY IDOCK:   -4.97 KCAL/MOL
REMARK 922        TOTAL FREE ENERGY PREDICTED BY IDOCK:   -7.92 KCAL/MOL
REMARK 923 INTER-LIGAND FREE ENERGY PREDICTED BY IDOCK:   -5.89 KCAL/MOL
REMARK 924 INTRA-LIGAND FREE ENERGY PREDICTED BY IDOCK:   -2.04 KCAL/MOL
REMARK 927      BINDING AFFINITY PREDICTED BY RF-SCORE:    0.00 PKD
ROOT
HETATM    1  O   UNL     1      -9.396  12.383  68.766  1.00  0.00    -0.396 OA 
HETATM    2  C   UNL     1      -9.441  10.945  68.741  1.00  0.00    -0.190 C  
HETATM    3  H   UNL     1      -9.231  12.653  69.662  1.00  0.00     0.000 HD 
HETATM    4  C   UNL     1      -9.709  10.508  67.289  1.00  0.00    -0.197 C  
HETATM    5  C   UNL     1      -8.084  10.422  69.255  1.00  0.00    -0.159 C  
HETATM    6  C   UNL     1      -8.493  10.749  66.391  1.00  0.00    -0.158 C  
HETATM    7  C   UNL     1      -6.954  10.645  68.247  1.00  0.00    -0.072 C  
HETATM    8  N   UNL     1      -7.257  10.139  66.898  1.00  0.00    -0.090 NA 
ENDROOT
BRANCH   2   9
HETATM    9  C   UNL     1     -10.572  10.490  69.673  1.00  0.00    -0.281 A  
HETATM   10  C   UNL     1     -11.879  10.991  69.534  1.00  0.00    -0.404 A  
HETATM   11  C   UNL     1     -10.333   9.575  70.717  1.00  0.00    -0.377 A  
HETATM   12  C   UNL     1     -12.631   9.724  71.441  1.00  0.00    -0.386 A  
HETATM   13  C   UNL     1     -12.901  10.614  70.409  1.00  0.00    -0.277 A  
HETATM   14 BR   UNL     1     -14.005   9.239  72.645  1.00  0.00    -0.132 Br 
HETATM   15  C   UNL     1     -11.353   9.196  71.597  1.00  0.00    -0.446 A  
ENDBRANCH   2   9
BRANCH   8  16
HETATM   16  C   UNL     1      -7.256   8.666  66.861  1.00  0.00    -0.075 C  
BRANCH  16  17
HETATM   17  C   UNL     1      -8.299   8.057  65.918  1.00  0.00    -0.136 C  
BRANCH  17  18
HETATM   18  C   UNL     1      -8.808   6.699  66.400  1.00  0.00    -0.151 C  
BRANCH  18  19
HETATM   19  C   UNL     1     -10.049   6.848  67.258  1.00  0.00    -0.198 C  
HETATM   20  O   UNL     1     -11.119   7.262  66.817  1.00  0.00    -0.205 OA 
BRANCH  19  21
HETATM   21  C   UNL     1      -9.947   6.520  68.706  1.00  0.00    -0.155 A  
HETATM   22  C   UNL     1      -8.695   6.649  69.324  1.00  0.00    -0.131 A  
HETATM   23  C   UNL     1      -8.544   6.338  70.674  1.00  0.00    -0.139 A  
HETATM   24  C   UNL     1      -9.647   5.911  71.405  1.00  0.00    -0.164 A  
HETATM   25  F   UNL     1      -9.501   5.613  72.704  1.00  0.00    -0.146 F  
HETATM   26  C   UNL     1     -10.899   5.791  70.811  1.00  0.00    -0.330 A  
HETATM   27  C   UNL     1     -11.053   6.095  69.457  1.00  0.00    -0.490 A  
ENDBRANCH  19  21
ENDBRANCH  18  19
ENDBRANCH  17  18
ENDBRANCH  16  17
ENDBRANCH   8  16
TORSDOF 6
ENDMDL
MODEL      126
REMARK 921   NORMALIZED FREE ENERGY PREDICTED BY IDOCK:   -4.96 KCAL/MOL
REMARK 922        TOTAL FREE ENERGY PREDICTED BY IDOCK:   -7.91 KCAL/MOL
REMARK 923 INTER-LIGAND FREE ENERGY PREDICTED BY IDOCK:   -5.98 KCAL/MOL
REMARK 924 INTRA-LIGAND FREE ENERGY PREDICTED BY IDOCK:   -1.93 KCAL/MOL
REMARK 927      BINDING AFFINITY PREDICTED BY RF-SCORE:    0.00 PKD
ROOT
HETATM    1  O   UNL     1      -9.192   8.467  65.437  1.00  0.00    -0.403 OA 
HETATM    2  C   UNL     1      -9.239   7.799  66.711  1.00  0.00    -0.163 C  
HETATM    3  H   UNL     1      -9.904   8.129  64.906  1.00  0.00     0.000 HD 
HETATM    4  C   UNL     1      -8.084   8.347  67.571  1.00  0.00    -0.110 C  
HETATM    5  C   UNL     1     -10.614   8.090  67.346  1.00  0.00    -0.337 C  
HETATM    6  C   UNL     1      -8.346   9.787  68.019  1.00  0.00    -0.110 C  
HETATM    7  C   UNL     1     -10.738   9.537  67.829  1.00  0.00    -0.242 C  
HETATM    8  N   UNL     1      -9.634   9.967  68.701  1.00  0.00    -0.152 NA 
ENDROOT
BRANCH   2   9
HETATM    9  C   UNL     1      -9.076   6.294  66.462  1.00  0.00    -0.162 A  
HETATM   10  C   UNL     1     -10.172   5.492  66.093  1.00  0.00    -0.136 A  
HETATM   11  C   UNL     1      -7.828   5.660  66.620  1.00  0.00    -0.101 A  
HETATM   12  C   UNL     1      -8.798   3.512  66.093  1.00  0.00    -0.130 A  
HETATM   13  C   UNL     1     -10.038   4.113  65.911  1.00  0.00    -0.169 A  
HETATM   14 BR   UNL     1      -8.622   1.643  65.878  1.00  0.00    -0.115 Br 
HETATM   15  C   UNL     1      -7.689   4.279  66.440  1.00  0.00    -0.094 A  
ENDBRANCH   2   9
BRANCH   8  16
HETATM   16  C   UNL     1      -9.708   9.319  70.024  1.00  0.00    -0.207 C  
BRANCH  16  17
HETATM   17  C   UNL     1     -10.961   9.672  70.831  1.00  0.00    -0.412 C  
BRANCH  17  18
HETATM   18  C   UNL     1     -11.219   8.692  71.976  1.00  0.00    -0.434 C  
BRANCH  18  19
HETATM   19  C   UNL     1     -11.911   7.437  71.481  1.00  0.00    -0.297 C  
HETATM   20  O   UNL     1     -13.109   7.397  71.213  1.00  0.00    -0.349 OA 
BRANCH  19  21
HETATM   21  C   UNL     1     -11.105   6.191  71.359  1.00  0.00    -0.346 A  
HETATM   22  C   UNL     1     -10.646   5.827  70.086  1.00  0.00    -0.377 A  
HETATM   23  C   UNL     1      -9.901   4.660  69.917  1.00  0.00    -0.296 A  
HETATM   24  C   UNL     1      -9.608   3.870  71.022  1.00  0.00    -0.181 A  
HETATM   25  F   UNL     1      -8.891   2.749  70.858  1.00  0.00    -0.098 F  
HETATM   26  C   UNL     1     -10.044   4.225  72.295  1.00  0.00    -0.249 A  
HETATM   27  C   UNL     1     -10.796   5.389  72.467  1.00  0.00    -0.304 A  
ENDBRANCH  19  21
ENDBRANCH  18  19
ENDBRANCH  17  18
ENDBRANCH  16  17
ENDBRANCH   8  16
TORSDOF 6
ENDMDL
MODEL      127
REMARK 921   NORMALIZED FREE ENERGY PREDICTED BY IDOCK:   -4.95 KCAL/MOL
REMARK 922        TOTAL FREE ENERGY PREDICTED BY IDOCK:   -7.89 KCAL/MOL
REMARK 923 INTER-LIGAND FREE ENERGY PREDICTED BY IDOCK:   -7.01 KCAL/MOL
REMARK 924 INTRA-LIGAND FREE ENERGY PREDICTED BY IDOCK:   -0.89 KCAL/MOL
REMARK 927      BINDING AFFINITY PREDICTED BY RF-SCORE:    0.00 PKD
ROOT
HETATM    1  O   UNL     1      -8.359   8.383  66.042  1.00  0.00    -0.112 OA 
HETATM    2  C   UNL     1      -8.983   7.344  66.819  1.00  0.00    -0.141 C  
HETATM    3  H   UNL     1      -8.816   8.437  65.211  1.00  0.00     0.000 HD 
HETATM    4  C   UNL     1      -8.242   7.256  68.166  1.00  0.00    -0.124 C  
HETATM    5  C   UNL     1     -10.466   7.721  67.006  1.00  0.00    -0.419 C  
HETATM    6  C   UNL     1      -8.539   8.464  69.056  1.00  0.00    -0.131 C  
HETATM    7  C   UNL     1     -10.653   8.891  67.975  1.00  0.00    -0.168 C  
HETATM    8  N   UNL     1      -9.973   8.704  69.266  1.00  0.00    -0.189 NA 
ENDROOT
BRANCH   2   9
HETATM    9  C   UNL     1      -8.863   6.030  66.035  1.00  0.00    -0.159 A  
HETATM   10  C   UNL     1      -9.734   4.953  66.279  1.00  0.00    -0.200 A  
HETATM   11  C   UNL     1      -7.860   5.851  65.062  1.00  0.00    -0.106 A  
HETATM   12  C   UNL     1      -8.589   3.585  64.659  1.00  0.00    -0.101 A  
HETATM   13  C   UNL     1      -9.600   3.739  65.600  1.00  0.00    -0.166 A  
HETATM   14 BR   UNL     1      -8.385   1.933  63.763  1.00  0.00    -0.081 Br 
HETATM   15  C   UNL     1      -7.721   4.637  64.380  1.00  0.00    -0.078 A  
ENDBRANCH   2   9
BRANCH   8  16
HETATM   16  C   UNL     1     -10.639   7.673  70.082  1.00  0.00    -0.236 C  
BRANCH  16  17
HETATM   17  C   UNL     1     -11.816   8.190  70.916  1.00  0.00    -0.232 C  
BRANCH  17  18
HETATM   18  C   UNL     1     -11.539   9.558  71.540  1.00  0.00    -0.465 C  
BRANCH  18  19
HETATM   19  C   UNL     1     -12.827  10.315  71.801  1.00  0.00    -0.460 C  
HETATM   20  O   UNL     1     -13.838   9.777  72.247  1.00  0.00    -0.338 OA 
BRANCH  19  21
HETATM   21  C   UNL     1     -12.874  11.762  71.457  1.00  0.00    -0.450 A  
HETATM   22  C   UNL     1     -12.131  12.200  70.352  1.00  0.00    -0.395 A  
HETATM   23  C   UNL     1     -12.129  13.549  69.999  1.00  0.00    -0.411 A  
HETATM   24  C   UNL     1     -12.879  14.452  70.743  1.00  0.00    -0.353 A  
HETATM   25  F   UNL     1     -12.878  15.748  70.401  1.00  0.00    -0.459 F  
HETATM   26  C   UNL     1     -13.634  14.031  71.833  1.00  0.00    -0.520 A  
HETATM   27  C   UNL     1     -13.633  12.682  72.194  1.00  0.00    -0.510 A  
ENDBRANCH  19  21
ENDBRANCH  18  19
ENDBRANCH  17  18
ENDBRANCH  16  17
ENDBRANCH   8  16
TORSDOF 6
ENDMDL
MODEL      128
REMARK 921   NORMALIZED FREE ENERGY PREDICTED BY IDOCK:   -4.94 KCAL/MOL
REMARK 922        TOTAL FREE ENERGY PREDICTED BY IDOCK:   -7.88 KCAL/MOL
REMARK 923 INTER-LIGAND FREE ENERGY PREDICTED BY IDOCK:   -5.97 KCAL/MOL
REMARK 924 INTRA-LIGAND FREE ENERGY PREDICTED BY IDOCK:   -1.91 KCAL/MOL
REMARK 927      BINDING AFFINITY PREDICTED BY RF-SCORE:    0.00 PKD
ROOT
HETATM    1  O   UNL     1     -12.173   9.682  72.110  1.00  0.00    -0.309 OA 
HETATM    2  C   UNL     1     -11.377   9.154  71.033  1.00  0.00    -0.309 C  
HETATM    3  H   UNL     1     -13.067   9.761  71.797  1.00  0.00     0.000 HD 
HETATM    4  C   UNL     1      -9.928   9.025  71.539  1.00  0.00    -0.391 C  
HETATM    5  C   UNL     1     -11.968   7.786  70.636  1.00  0.00    -0.090 C  
HETATM    6  C   UNL     1      -9.781   7.890  72.555  1.00  0.00    -0.227 C  
HETATM    7  C   UNL     1     -11.697   6.706  71.686  1.00  0.00    -0.316 C  
HETATM    8  N   UNL     1     -10.280   6.597  72.069  1.00  0.00    -0.188 NA 
ENDROOT
BRANCH   2   9
HETATM    9  C   UNL     1     -11.467  10.133  69.854  1.00  0.00    -0.317 A  
HETATM   10  C   UNL     1     -11.028   9.769  68.568  1.00  0.00    -0.195 A  
HETATM   11  C   UNL     1     -11.968  11.438  70.028  1.00  0.00    -0.442 A  
HETATM   12  C   UNL     1     -11.547  11.961  67.709  1.00  0.00    -0.323 A  
HETATM   13  C   UNL     1     -11.065  10.673  67.503  1.00  0.00    -0.367 A  
HETATM   14 BR   UNL     1     -11.567  13.194  66.277  1.00  0.00    -0.425 Br 
HETATM   15  C   UNL     1     -12.005  12.347  68.964  1.00  0.00    -0.291 A  
ENDBRANCH   2   9
BRANCH   8  16
HETATM   16  C   UNL     1      -9.471   6.012  70.983  1.00  0.00    -0.168 C  
BRANCH  16  17
HETATM   17  C   UNL     1     -10.197   4.943  70.160  1.00  0.00    -0.310 C  
BRANCH  17  18
HETATM   18  C   UNL     1     -10.335   5.327  68.687  1.00  0.00    -0.193 C  
BRANCH  18  19
HETATM   19  C   UNL     1      -8.978   5.471  68.026  1.00  0.00    -0.108 C  
HETATM   20  O   UNL     1      -8.139   4.572  68.024  1.00  0.00    -0.090 OA 
BRANCH  19  21
HETATM   21  C   UNL     1      -8.638   6.775  67.394  1.00  0.00    -0.120 A  
HETATM   22  C   UNL     1      -7.822   7.660  68.111  1.00  0.00    -0.121 A  
HETATM   23  C   UNL     1      -7.488   8.900  67.569  1.00  0.00    -0.085 A  
HETATM   24  C   UNL     1      -7.961   9.246  66.309  1.00  0.00    -0.107 A  
HETATM   25  F   UNL     1      -7.638  10.438  65.788  1.00  0.00    -0.123 F  
HETATM   26  C   UNL     1      -8.760   8.372  65.577  1.00  0.00    -0.196 A  
HETATM   27  C   UNL     1      -9.102   7.132  66.120  1.00  0.00    -0.155 A  
ENDBRANCH  19  21
ENDBRANCH  18  19
ENDBRANCH  17  18
ENDBRANCH  16  17
ENDBRANCH   8  16
TORSDOF 6
ENDMDL
MODEL      129
REMARK 921   NORMALIZED FREE ENERGY PREDICTED BY IDOCK:   -4.94 KCAL/MOL
REMARK 922        TOTAL FREE ENERGY PREDICTED BY IDOCK:   -7.88 KCAL/MOL
REMARK 923 INTER-LIGAND FREE ENERGY PREDICTED BY IDOCK:   -5.78 KCAL/MOL
REMARK 924 INTRA-LIGAND FREE ENERGY PREDICTED BY IDOCK:   -2.10 KCAL/MOL
REMARK 927      BINDING AFFINITY PREDICTED BY RF-SCORE:    0.00 PKD
ROOT
HETATM    1  O   UNL     1      -8.151   4.199  67.723  1.00  0.00    -0.093 OA 
HETATM    2  C   UNL     1      -9.011   5.152  68.372  1.00  0.00    -0.106 C  
HETATM    3  H   UNL     1      -8.615   3.371  67.681  1.00  0.00     0.000 HD 
HETATM    4  C   UNL     1      -8.259   6.495  68.440  1.00  0.00    -0.114 C  
HETATM    5  C   UNL     1     -10.305   5.263  67.540  1.00  0.00    -0.221 C  
HETATM    6  C   UNL     1      -8.138   7.147  67.061  1.00  0.00    -0.117 C  
HETATM    7  C   UNL     1     -10.086   6.000  66.217  1.00  0.00    -0.011 C  
HETATM    8  N   UNL     1      -9.424   7.305  66.369  1.00  0.00    -0.160 NA 
ENDROOT
BRANCH   2   9
HETATM    9  C   UNL     1      -9.328   4.624  69.778  1.00  0.00    -0.215 A  
HETATM   10  C   UNL     1      -8.666   3.498  70.300  1.00  0.00    -0.120 A  
HETATM   11  C   UNL     1     -10.310   5.235  70.581  1.00  0.00    -0.324 A  
HETATM   12  C   UNL     1      -9.971   3.599  72.324  1.00  0.00    -0.169 A  
HETATM   13  C   UNL     1      -8.983   2.987  71.562  1.00  0.00    -0.152 A  
HETATM   14 BR   UNL     1     -10.424   2.888  74.016  1.00  0.00    -0.260 Br 
HETATM   15  C   UNL     1     -10.633   4.725  71.844  1.00  0.00    -0.150 A  
ENDBRANCH   2   9
BRANCH   8  16
HETATM   16  C   UNL     1     -10.321   8.296  66.992  1.00  0.00    -0.323 C  
BRANCH  16  17
HETATM   17  C   UNL     1      -9.963   9.754  66.683  1.00  0.00    -0.292 C  
BRANCH  17  18
HETATM   18  C   UNL     1     -10.130  10.671  67.895  1.00  0.00    -0.194 C  
BRANCH  18  19
HETATM   19  C   UNL     1      -9.170  10.294  69.006  1.00  0.00    -0.183 C  
HETATM   20  O   UNL     1      -7.959  10.490  68.936  1.00  0.00    -0.109 OA 
BRANCH  19  21
HETATM   21  C   UNL     1      -9.721   9.619  70.213  1.00  0.00    -0.314 A  
HETATM   22  C   UNL     1      -8.819   9.005  71.092  1.00  0.00    -0.282 A  
HETATM   23  C   UNL     1      -9.286   8.345  72.228  1.00  0.00    -0.356 A  
HETATM   24  C   UNL     1     -10.652   8.311  72.486  1.00  0.00    -0.337 A  
HETATM   25  F   UNL     1     -11.100   7.677  73.578  1.00  0.00    -0.425 F  
HETATM   26  C   UNL     1     -11.559   8.927  71.630  1.00  0.00    -0.408 A  
HETATM   27  C   UNL     1     -11.095   9.583  70.488  1.00  0.00    -0.342 A  
ENDBRANCH  19  21
ENDBRANCH  18  19
ENDBRANCH  17  18
ENDBRANCH  16  17
ENDBRANCH   8  16
TORSDOF 6
ENDMDL
MODEL      130
REMARK 921   NORMALIZED FREE ENERGY PREDICTED BY IDOCK:   -4.93 KCAL/MOL
REMARK 922        TOTAL FREE ENERGY PREDICTED BY IDOCK:   -7.86 KCAL/MOL
REMARK 923 INTER-LIGAND FREE ENERGY PREDICTED BY IDOCK:   -7.11 KCAL/MOL
REMARK 924 INTRA-LIGAND FREE ENERGY PREDICTED BY IDOCK:   -0.75 KCAL/MOL
REMARK 927      BINDING AFFINITY PREDICTED BY RF-SCORE:    0.00 PKD
ROOT
HETATM    1  O   UNL     1      -9.571   8.034  65.888  1.00  0.00    -0.427 OA 
HETATM    2  C   UNL     1      -9.826   9.002  66.922  1.00  0.00    -0.224 C  
HETATM    3  H   UNL     1     -10.359   7.513  65.779  1.00  0.00     0.000 HD 
HETATM    4  C   UNL     1      -8.550   9.846  67.100  1.00  0.00    -0.125 C  
HETATM    5  C   UNL     1     -11.025   9.864  66.477  1.00  0.00     0.148 C  
HETATM    6  C   UNL     1      -8.321  10.784  65.912  1.00  0.00    -0.162 C  
HETATM    7  C   UNL     1     -10.664  10.819  65.336  1.00  0.00    -0.079 C  
HETATM    8  N   UNL     1      -9.474  11.641  65.607  1.00  0.00    -0.226 NA 
ENDROOT
BRANCH   2   9
HETATM    9  C   UNL     1     -10.169   8.241  68.210  1.00  0.00    -0.246 A  
HETATM   10  C   UNL     1     -10.838   7.004  68.170  1.00  0.00    -0.214 A  
HETATM   11  C   UNL     1      -9.847   8.769  69.476  1.00  0.00    -0.180 A  
HETATM   12  C   UNL     1     -10.879   6.884  70.577  1.00  0.00    -0.253 A  
HETATM   13  C   UNL     1     -11.192   6.330  69.342  1.00  0.00    -0.489 A  
HETATM   14 BR   UNL     1     -11.387   5.990  72.163  1.00  0.00    -0.348 Br 
HETATM   15  C   UNL     1     -10.202   8.098  70.651  1.00  0.00    -0.211 A  
ENDBRANCH   2   9
BRANCH   8  16
HETATM   16  C   UNL     1      -9.747  12.665  66.633  1.00  0.00    -0.249 C  
BRANCH  16  17
HETATM   17  C   UNL     1     -10.960  13.552  66.333  1.00  0.00    -0.297 C  
BRANCH  17  18
HETATM   18  C   UNL     1     -10.844  14.941  66.961  1.00  0.00    -0.315 C  
BRANCH  18  19
HETATM   19  C   UNL     1     -10.445  15.979  65.931  1.00  0.00    -0.359 C  
HETATM   20  O   UNL     1     -10.679  15.852  64.731  1.00  0.00    -0.559 OA 
BRANCH  19  21
HETATM   21  C   UNL     1      -9.698  17.180  66.395  1.00  0.00    -0.307 A  
HETATM   22  C   UNL     1     -10.431  18.235  66.956  1.00  0.00    -0.407 A  
HETATM   23  C   UNL     1      -9.780  19.388  67.391  1.00  0.00    -0.424 A  
HETATM   24  C   UNL     1      -8.398  19.478  67.275  1.00  0.00    -0.293 A  
HETATM   25  F   UNL     1      -7.773  20.587  67.694  1.00  0.00    -0.328 F  
HETATM   26  C   UNL     1      -7.654  18.434  66.734  1.00  0.00    -0.246 A  
HETATM   27  C   UNL     1      -8.303  17.280  66.291  1.00  0.00    -0.289 A  
ENDBRANCH  19  21
ENDBRANCH  18  19
ENDBRANCH  17  18
ENDBRANCH  16  17
ENDBRANCH   8  16
TORSDOF 6
ENDMDL
MODEL      131
REMARK 921   NORMALIZED FREE ENERGY PREDICTED BY IDOCK:   -4.92 KCAL/MOL
REMARK 922        TOTAL FREE ENERGY PREDICTED BY IDOCK:   -7.86 KCAL/MOL
REMARK 923 INTER-LIGAND FREE ENERGY PREDICTED BY IDOCK:   -6.85 KCAL/MOL
REMARK 924 INTRA-LIGAND FREE ENERGY PREDICTED BY IDOCK:   -1.01 KCAL/MOL
REMARK 927      BINDING AFFINITY PREDICTED BY RF-SCORE:    0.00 PKD
ROOT
HETATM    1  O   UNL     1      -9.125   6.711  71.762  1.00  0.00    -0.145 OA 
HETATM    2  C   UNL     1      -9.690   6.934  70.457  1.00  0.00    -0.172 C  
HETATM    3  H   UNL     1      -8.207   6.497  71.647  1.00  0.00     0.000 HD 
HETATM    4  C   UNL     1     -11.179   7.281  70.643  1.00  0.00    -0.300 C  
HETATM    5  C   UNL     1      -8.911   8.090  69.797  1.00  0.00    -0.145 C  
HETATM    6  C   UNL     1     -11.365   8.673  71.251  1.00  0.00    -0.281 C  
HETATM    7  C   UNL     1      -9.231   9.446  70.432  1.00  0.00    -0.257 C  
HETATM    8  N   UNL     1     -10.671   9.736  70.513  1.00  0.00    -0.297 NA 
ENDROOT
BRANCH   2   9
HETATM    9  C   UNL     1      -9.520   5.646  69.641  1.00  0.00    -0.180 A  
HETATM   10  C   UNL     1      -9.610   5.654  68.237  1.00  0.00    -0.145 A  
HETATM   11  C   UNL     1      -9.294   4.407  70.273  1.00  0.00    -0.218 A  
HETATM   12  C   UNL     1      -9.297   3.265  68.146  1.00  0.00    -0.187 A  
HETATM   13  C   UNL     1      -9.502   4.476  67.493  1.00  0.00    -0.193 A  
HETATM   14 BR   UNL     1      -9.183   1.667  67.143  1.00  0.00    -0.020 Br 
HETATM   15  C   UNL     1      -9.186   3.225  69.532  1.00  0.00    -0.225 A  
ENDBRANCH   2   9
BRANCH   8  16
HETATM   16  C   UNL     1     -11.241  10.011  69.181  1.00  0.00    -0.149 C  
BRANCH  16  17
HETATM   17  C   UNL     1     -12.150  11.244  69.126  1.00  0.00    -0.348 C  
BRANCH  17  18
HETATM   18  C   UNL     1     -11.367  12.556  69.186  1.00  0.00    -0.331 C  
BRANCH  18  19
HETATM   19  C   UNL     1     -10.418  12.684  68.011  1.00  0.00    -0.224 C  
HETATM   20  O   UNL     1      -9.216  12.903  68.145  1.00  0.00    -0.204 OA 
BRANCH  19  21
HETATM   21  C   UNL     1     -10.982  12.584  66.636  1.00  0.00    -0.303 A  
HETATM   22  C   UNL     1     -12.094  13.377  66.322  1.00  0.00    -0.475 A  
HETATM   23  C   UNL     1     -12.668  13.307  65.054  1.00  0.00    -0.438 A  
HETATM   24  C   UNL     1     -12.123  12.455  64.102  1.00  0.00    -0.453 A  
HETATM   25  F   UNL     1     -12.675  12.389  62.883  1.00  0.00    -0.451 F  
HETATM   26  C   UNL     1     -11.010  11.671  64.393  1.00  0.00    -0.399 A  
HETATM   27  C   UNL     1     -10.436  11.733  65.664  1.00  0.00    -0.308 A  
ENDBRANCH  19  21
ENDBRANCH  18  19
ENDBRANCH  17  18
ENDBRANCH  16  17
ENDBRANCH   8  16
TORSDOF 6
ENDMDL
MODEL      132
REMARK 921   NORMALIZED FREE ENERGY PREDICTED BY IDOCK:   -4.92 KCAL/MOL
REMARK 922        TOTAL FREE ENERGY PREDICTED BY IDOCK:   -7.86 KCAL/MOL
REMARK 923 INTER-LIGAND FREE ENERGY PREDICTED BY IDOCK:   -7.07 KCAL/MOL
REMARK 924 INTRA-LIGAND FREE ENERGY PREDICTED BY IDOCK:   -0.79 KCAL/MOL
REMARK 927      BINDING AFFINITY PREDICTED BY RF-SCORE:    0.00 PKD
ROOT
HETATM    1  O   UNL     1     -12.326  16.548  68.865  1.00  0.00    -0.026 OA 
HETATM    2  C   UNL     1     -11.121  15.787  68.670  1.00  0.00    -0.327 C  
HETATM    3  H   UNL     1     -12.371  17.201  68.176  1.00  0.00     0.000 HD 
HETATM    4  C   UNL     1     -11.048  14.728  69.787  1.00  0.00    -0.288 C  
HETATM    5  C   UNL     1     -11.192  15.139  67.272  1.00  0.00    -0.324 C  
HETATM    6  C   UNL     1     -12.091  13.625  69.591  1.00  0.00    -0.321 C  
HETATM    7  C   UNL     1     -12.209  13.998  67.209  1.00  0.00    -0.290 C  
HETATM    8  N   UNL     1     -12.034  12.990  68.267  1.00  0.00    -0.318 NA 
ENDROOT
BRANCH   2   9
HETATM    9  C   UNL     1      -9.932  16.754  68.748  1.00  0.00    -0.269 A  
HETATM   10  C   UNL     1     -10.114  18.145  68.641  1.00  0.00    -0.406 A  
HETATM   11  C   UNL     1      -8.615  16.279  68.902  1.00  0.00    -0.260 A  
HETATM   12  C   UNL     1      -7.740  18.527  68.800  1.00  0.00    -0.280 A  
HETATM   13  C   UNL     1      -9.030  19.026  68.666  1.00  0.00    -0.402 A  
HETATM   14 BR   UNL     1      -6.270  19.715  68.800  1.00  0.00    -0.304 Br 
HETATM   15  C   UNL     1      -7.526  17.157  68.925  1.00  0.00    -0.241 A  
ENDBRANCH   2   9
BRANCH   8  16
HETATM   16  C   UNL     1     -10.824  12.178  68.044  1.00  0.00    -0.222 C  
BRANCH  16  17
HETATM   17  C   UNL     1     -11.100  10.695  67.771  1.00  0.00    -0.385 C  
BRANCH  17  18
HETATM   18  C   UNL     1      -9.921   9.990  67.102  1.00  0.00    -0.251 C  
BRANCH  18  19
HETATM   19  C   UNL     1      -9.065   9.262  68.120  1.00  0.00    -0.128 C  
HETATM   20  O   UNL     1      -7.876   9.011  67.935  1.00  0.00    -0.099 OA 
BRANCH  19  21
HETATM   21  C   UNL     1      -9.712   8.793  69.376  1.00  0.00    -0.172 A  
HETATM   22  C   UNL     1      -9.395   9.460  70.567  1.00  0.00    -0.319 A  
HETATM   23  C   UNL     1      -9.961   9.049  71.773  1.00  0.00    -0.359 A  
HETATM   24  C   UNL     1     -10.851   7.982  71.782  1.00  0.00    -0.242 A  
HETATM   25  F   UNL     1     -11.396   7.589  72.941  1.00  0.00    -0.326 F  
HETATM   26  C   UNL     1     -11.188   7.319  70.606  1.00  0.00    -0.300 A  
HETATM   27  C   UNL     1     -10.617   7.723  69.398  1.00  0.00    -0.211 A  
ENDBRANCH  19  21
ENDBRANCH  18  19
ENDBRANCH  17  18
ENDBRANCH  16  17
ENDBRANCH   8  16
TORSDOF 6
ENDMDL
MODEL      133
REMARK 921   NORMALIZED FREE ENERGY PREDICTED BY IDOCK:   -4.91 KCAL/MOL
REMARK 922        TOTAL FREE ENERGY PREDICTED BY IDOCK:   -7.84 KCAL/MOL
REMARK 923 INTER-LIGAND FREE ENERGY PREDICTED BY IDOCK:   -6.50 KCAL/MOL
REMARK 924 INTRA-LIGAND FREE ENERGY PREDICTED BY IDOCK:   -1.34 KCAL/MOL
REMARK 927      BINDING AFFINITY PREDICTED BY RF-SCORE:    0.00 PKD
ROOT
HETATM    1  O   UNL     1      -9.961   6.108  66.052  1.00  0.00    -0.392 OA 
HETATM    2  C   UNL     1      -9.375   7.044  66.976  1.00  0.00    -0.146 C  
HETATM    3  H   UNL     1     -10.905   6.150  66.157  1.00  0.00     0.000 HD 
HETATM    4  C   UNL     1      -7.846   6.976  66.806  1.00  0.00    -0.107 C  
HETATM    5  C   UNL     1      -9.927   8.445  66.641  1.00  0.00    -0.354 C  
HETATM    6  C   UNL     1      -7.395   7.596  65.482  1.00  0.00    -0.074 C  
HETATM    7  C   UNL     1      -9.351   9.001  65.337  1.00  0.00    -0.144 C  
HETATM    8  N   UNL     1      -7.881   8.967  65.277  1.00  0.00    -0.100 NA 
ENDROOT
BRANCH   2   9
HETATM    9  C   UNL     1      -9.793   6.634  68.394  1.00  0.00    -0.138 A  
HETATM   10  C   UNL     1     -11.139   6.678  68.800  1.00  0.00    -0.297 A  
HETATM   11  C   UNL     1      -8.838   6.224  69.345  1.00  0.00    -0.127 A  
HETATM   12  C   UNL     1     -10.551   5.967  71.027  1.00  0.00    -0.250 A  
HETATM   13  C   UNL     1     -11.518   6.349  70.105  1.00  0.00    -0.484 A  
HETATM   14 BR   UNL     1     -11.058   5.554  72.800  1.00  0.00    -0.360 Br 
HETATM   15  C   UNL     1      -9.212   5.896  70.653  1.00  0.00    -0.167 A  
ENDBRANCH   2   9
BRANCH   8  16
HETATM   16  C   UNL     1      -7.280   9.958  66.188  1.00  0.00    -0.104 C  
BRANCH  16  17
HETATM   17  C   UNL     1      -7.793  11.389  65.992  1.00  0.00     0.127 C  
BRANCH  17  18
HETATM   18  C   UNL     1      -8.060  12.105  67.316  1.00  0.00    -0.176 C  
BRANCH  18  19
HETATM   19  C   UNL     1      -9.545  12.179  67.611  1.00  0.00    -0.190 C  
HETATM   20  O   UNL     1     -10.060  11.631  68.583  1.00  0.00    -0.211 OA 
BRANCH  19  21
HETATM   21  C   UNL     1     -10.417  12.913  66.653  1.00  0.00    -0.272 A  
HETATM   22  C   UNL     1     -10.042  14.212  66.285  1.00  0.00    -0.308 A  
HETATM   23  C   UNL     1     -10.834  14.946  65.403  1.00  0.00    -0.379 A  
HETATM   24  C   UNL     1     -11.991  14.376  64.885  1.00  0.00    -0.426 A  
HETATM   25  F   UNL     1     -12.750  15.083  64.037  1.00  0.00    -0.432 F  
HETATM   26  C   UNL     1     -12.370  13.082  65.230  1.00  0.00    -0.537 A  
HETATM   27  C   UNL     1     -11.583  12.346  66.118  1.00  0.00    -0.452 A  
ENDBRANCH  19  21
ENDBRANCH  18  19
ENDBRANCH  17  18
ENDBRANCH  16  17
ENDBRANCH   8  16
TORSDOF 6
ENDMDL
MODEL      134
REMARK 921   NORMALIZED FREE ENERGY PREDICTED BY IDOCK:   -4.91 KCAL/MOL
REMARK 922        TOTAL FREE ENERGY PREDICTED BY IDOCK:   -7.84 KCAL/MOL
REMARK 923 INTER-LIGAND FREE ENERGY PREDICTED BY IDOCK:   -6.78 KCAL/MOL
REMARK 924 INTRA-LIGAND FREE ENERGY PREDICTED BY IDOCK:   -1.06 KCAL/MOL
REMARK 927      BINDING AFFINITY PREDICTED BY RF-SCORE:    0.00 PKD
ROOT
HETATM    1  O   UNL     1     -12.470  16.152  68.495  1.00  0.00    -0.059 OA 
HETATM    2  C   UNL     1     -11.135  15.664  68.271  1.00  0.00    -0.336 C  
HETATM    3  H   UNL     1     -12.746  16.612  67.710  1.00  0.00     0.000 HD 
HETATM    4  C   UNL     1     -10.688  14.918  69.543  1.00  0.00    -0.256 C  
HETATM    5  C   UNL     1     -11.173  14.730  67.044  1.00  0.00    -0.347 C  
HETATM    6  C   UNL     1     -11.429  13.590  69.710  1.00  0.00    -0.175 C  
HETATM    7  C   UNL     1     -11.867  13.400  67.345  1.00  0.00    -0.375 C  
HETATM    8  N   UNL     1     -11.340  12.713  68.535  1.00  0.00    -0.272 NA 
ENDROOT
BRANCH   2   9
HETATM    9  C   UNL     1     -10.230  16.871  67.991  1.00  0.00    -0.310 A  
HETATM   10  C   UNL     1      -8.829  16.745  67.972  1.00  0.00    -0.216 A  
HETATM   11  C   UNL     1     -10.773  18.152  67.770  1.00  0.00    -0.355 A  
HETATM   12  C   UNL     1      -8.564  19.106  67.566  1.00  0.00    -0.288 A  
HETATM   13  C   UNL     1      -8.001  17.851  67.763  1.00  0.00    -0.230 A  
HETATM   14 BR   UNL     1      -7.444  20.608  67.316  1.00  0.00    -0.368 Br 
HETATM   15  C   UNL     1      -9.946  19.263  67.562  1.00  0.00    -0.460 A  
ENDBRANCH   2   9
BRANCH   8  16
HETATM   16  C   UNL     1      -9.990  12.172  68.292  1.00  0.00    -0.212 C  
BRANCH  16  17
HETATM   17  C   UNL     1      -9.835  10.686  68.633  1.00  0.00    -0.183 C  
BRANCH  17  18
HETATM   18  C   UNL     1     -11.011   9.843  68.140  1.00  0.00    -0.261 C  
BRANCH  18  19
HETATM   19  C   UNL     1     -10.567   8.837  67.096  1.00  0.00    -0.233 C  
HETATM   20  O   UNL     1     -10.812   7.636  67.180  1.00  0.00    -0.317 OA 
BRANCH  19  21
HETATM   21  C   UNL     1      -9.763   9.328  65.943  1.00  0.00    -0.355 A  
HETATM   22  C   UNL     1      -8.486   8.782  65.753  1.00  0.00    -0.161 A  
HETATM   23  C   UNL     1      -7.687   9.220  64.698  1.00  0.00    -0.116 A  
HETATM   24  C   UNL     1      -8.171  10.192  63.831  1.00  0.00    -0.164 A  
HETATM   25  F   UNL     1      -7.402  10.612  62.817  1.00  0.00    -0.144 F  
HETATM   26  C   UNL     1      -9.442  10.733  63.997  1.00  0.00    -0.312 A  
HETATM   27  C   UNL     1     -10.242  10.302  65.057  1.00  0.00    -0.277 A  
ENDBRANCH  19  21
ENDBRANCH  18  19
ENDBRANCH  17  18
ENDBRANCH  16  17
ENDBRANCH   8  16
TORSDOF 6
ENDMDL
MODEL      135
REMARK 921   NORMALIZED FREE ENERGY PREDICTED BY IDOCK:   -4.84 KCAL/MOL
REMARK 922        TOTAL FREE ENERGY PREDICTED BY IDOCK:   -7.76 KCAL/MOL
REMARK 923 INTER-LIGAND FREE ENERGY PREDICTED BY IDOCK:   -6.81 KCAL/MOL
REMARK 924 INTRA-LIGAND FREE ENERGY PREDICTED BY IDOCK:   -0.94 KCAL/MOL
REMARK 927      BINDING AFFINITY PREDICTED BY RF-SCORE:    0.00 PKD
ROOT
HETATM    1  O   UNL     1      -8.921  10.032  70.778  1.00  0.00    -0.299 OA 
HETATM    2  C   UNL     1      -9.605   9.563  69.602  1.00  0.00    -0.202 C  
HETATM    3  H   UNL     1      -8.019   9.737  70.725  1.00  0.00     0.000 HD 
HETATM    4  C   UNL     1     -11.067  10.041  69.687  1.00  0.00    -0.300 C  
HETATM    5  C   UNL     1      -8.883  10.148  68.371  1.00  0.00    -0.123 C  
HETATM    6  C   UNL     1     -11.182  11.552  69.474  1.00  0.00    -0.236 C  
HETATM    7  C   UNL     1      -9.129  11.650  68.210  1.00  0.00    -0.187 C  
HETATM    8  N   UNL     1     -10.553  12.022  68.233  1.00  0.00    -0.204 NA 
ENDROOT
BRANCH   2   9
HETATM    9  C   UNL     1      -9.525   8.031  69.586  1.00  0.00    -0.163 A  
HETATM   10  C   UNL     1     -10.650   7.244  69.283  1.00  0.00    -0.230 A  
HETATM   11  C   UNL     1      -8.326   7.361  69.900  1.00  0.00    -0.134 A  
HETATM   12  C   UNL     1      -9.401   5.215  69.644  1.00  0.00    -0.129 A  
HETATM   13  C   UNL     1     -10.593   5.848  69.312  1.00  0.00    -0.379 A  
HETATM   14 BR   UNL     1      -9.330   3.327  69.716  1.00  0.00    -0.211 Br 
HETATM   15  C   UNL     1      -8.264   5.963  69.932  1.00  0.00    -0.117 A  
ENDBRANCH   2   9
BRANCH   8  16
HETATM   16  C   UNL     1     -11.245  11.584  67.007  1.00  0.00    -0.300 C  
BRANCH  16  17
HETATM   17  C   UNL     1     -11.871  12.722  66.194  1.00  0.00    -0.484 C  
BRANCH  17  18
HETATM   18  C   UNL     1     -10.905  13.312  65.167  1.00  0.00    -0.323 C  
BRANCH  18  19
HETATM   19  C   UNL     1     -11.079  14.813  65.048  1.00  0.00    -0.405 C  
HETATM   20  O   UNL     1     -11.933  15.331  64.331  1.00  0.00    -0.421 OA 
BRANCH  19  21
HETATM   21  C   UNL     1     -10.141  15.692  65.799  1.00  0.00    -0.394 A  
HETATM   22  C   UNL     1     -10.449  17.057  65.890  1.00  0.00    -0.282 A  
HETATM   23  C   UNL     1      -9.594  17.924  66.569  1.00  0.00    -0.318 A  
HETATM   24  C   UNL     1      -8.443  17.423  67.164  1.00  0.00    -0.211 A  
HETATM   25  F   UNL     1      -7.623  18.257  67.818  1.00  0.00    -0.214 F  
HETATM   26  C   UNL     1      -8.130  16.069  67.096  1.00  0.00    -0.232 A  
HETATM   27  C   UNL     1      -8.980  15.198  66.411  1.00  0.00    -0.314 A  
ENDBRANCH  19  21
ENDBRANCH  18  19
ENDBRANCH  17  18
ENDBRANCH  16  17
ENDBRANCH   8  16
TORSDOF 6
ENDMDL
MODEL      136
REMARK 921   NORMALIZED FREE ENERGY PREDICTED BY IDOCK:   -4.83 KCAL/MOL
REMARK 922        TOTAL FREE ENERGY PREDICTED BY IDOCK:   -7.74 KCAL/MOL
REMARK 923 INTER-LIGAND FREE ENERGY PREDICTED BY IDOCK:   -6.91 KCAL/MOL
REMARK 924 INTRA-LIGAND FREE ENERGY PREDICTED BY IDOCK:   -0.83 KCAL/MOL
REMARK 927      BINDING AFFINITY PREDICTED BY RF-SCORE:    0.00 PKD
ROOT
HETATM    1  O   UNL     1      -8.398   9.057  69.183  1.00  0.00    -0.118 OA 
HETATM    2  C   UNL     1      -9.067   9.282  67.929  1.00  0.00    -0.127 C  
HETATM    3  H   UNL     1      -7.550   8.671  68.994  1.00  0.00     0.000 HD 
HETATM    4  C   UNL     1     -10.441   9.907  68.235  1.00  0.00    -0.246 C  
HETATM    5  C   UNL     1      -8.185  10.224  67.085  1.00  0.00    -0.121 C  
HETATM    6  C   UNL     1     -10.310  11.351  68.725  1.00  0.00    -0.204 C  
HETATM    7  C   UNL     1      -8.187  11.659  67.619  1.00  0.00    -0.141 C  
HETATM    8  N   UNL     1      -9.536  12.212  67.821  1.00  0.00    -0.186 NA 
ENDROOT
BRANCH   2   9
HETATM    9  C   UNL     1      -9.221   7.927  67.225  1.00  0.00    -0.167 A  
HETATM   10  C   UNL     1      -8.221   7.432  66.368  1.00  0.00    -0.122 A  
HETATM   11  C   UNL     1     -10.381   7.145  67.394  1.00  0.00    -0.324 A  
HETATM   12  C   UNL     1      -9.541   5.480  65.862  1.00  0.00    -0.063 A  
HETATM   13  C   UNL     1      -8.378   6.220  65.690  1.00  0.00    -0.147 A  
HETATM   14 BR   UNL     1      -9.768   3.857  64.919  1.00  0.00    -0.194 Br 
HETATM   15  C   UNL     1     -10.542   5.932  66.716  1.00  0.00    -0.368 A  
ENDBRANCH   2   9
BRANCH   8  16
HETATM   16  C   UNL     1     -10.205  12.487  66.536  1.00  0.00    -0.240 C  
BRANCH  16  17
HETATM   17  C   UNL     1      -9.922  13.878  65.962  1.00  0.00    -0.325 C  
BRANCH  17  18
HETATM   18  C   UNL     1     -11.069  14.859  66.201  1.00  0.00    -0.335 C  
BRANCH  18  19
HETATM   19  C   UNL     1     -10.921  15.565  67.535  1.00  0.00    -0.316 C  
HETATM   20  O   UNL     1     -11.074  14.994  68.612  1.00  0.00    -0.243 OA 
BRANCH  19  21
HETATM   21  C   UNL     1     -10.621  17.023  67.530  1.00  0.00    -0.310 A  
HETATM   22  C   UNL     1     -10.655  17.697  66.301  1.00  0.00    -0.215 A  
HETATM   23  C   UNL     1     -10.366  19.060  66.241  1.00  0.00    -0.530 A  
HETATM   24  C   UNL     1     -10.054  19.745  67.410  1.00  0.00    -0.422 A  
HETATM   25  F   UNL     1      -9.777  21.055  67.351  1.00  0.00    -0.607 F  
HETATM   26  C   UNL     1     -10.029  19.093  68.639  1.00  0.00    -0.486 A  
HETATM   27  C   UNL     1     -10.312  17.728  68.702  1.00  0.00    -0.351 A  
ENDBRANCH  19  21
ENDBRANCH  18  19
ENDBRANCH  17  18
ENDBRANCH  16  17
ENDBRANCH   8  16
TORSDOF 6
ENDMDL
MODEL      137
REMARK 921   NORMALIZED FREE ENERGY PREDICTED BY IDOCK:   -4.81 KCAL/MOL
REMARK 922        TOTAL FREE ENERGY PREDICTED BY IDOCK:   -7.71 KCAL/MOL
REMARK 923 INTER-LIGAND FREE ENERGY PREDICTED BY IDOCK:   -5.54 KCAL/MOL
REMARK 924 INTRA-LIGAND FREE ENERGY PREDICTED BY IDOCK:   -2.17 KCAL/MOL
REMARK 927      BINDING AFFINITY PREDICTED BY RF-SCORE:    0.00 PKD
ROOT
HETATM    1  O   UNL     1      -8.443   6.967  66.174  1.00  0.00    -0.123 OA 
HETATM    2  C   UNL     1      -9.107   7.077  67.446  1.00  0.00    -0.123 C  
HETATM    3  H   UNL     1      -7.634   7.464  66.226  1.00  0.00     0.000 HD 
HETATM    4  C   UNL     1     -10.417   6.272  67.363  1.00  0.00    -0.308 C  
HETATM    5  C   UNL     1      -8.158   6.515  68.524  1.00  0.00    -0.114 C  
HETATM    6  C   UNL     1     -10.156   4.765  67.333  1.00  0.00    -0.126 C  
HETATM    7  C   UNL     1      -8.029   4.992  68.451  1.00  0.00    -0.086 C  
HETATM    8  N   UNL     1      -9.322   4.289  68.445  1.00  0.00    -0.143 NA 
ENDROOT
BRANCH   2   9
HETATM    9  C   UNL     1      -9.387   8.563  67.708  1.00  0.00    -0.153 A  
HETATM   10  C   UNL     1      -8.447   9.379  68.364  1.00  0.00    -0.120 A  
HETATM   11  C   UNL     1     -10.605   9.154  67.320  1.00  0.00    -0.303 A  
HETATM   12  C   UNL     1      -9.936  11.272  68.268  1.00  0.00    -0.195 A  
HETATM   13  C   UNL     1      -8.717  10.721  68.645  1.00  0.00    -0.152 A  
HETATM   14 BR   UNL     1     -10.315  13.078  68.676  1.00  0.00    -0.159 Br 
HETATM   15  C   UNL     1     -10.880  10.498  67.601  1.00  0.00    -0.355 A  
ENDBRANCH   2   9
BRANCH   8  16
HETATM   16  C   UNL     1      -9.982   4.361  69.761  1.00  0.00    -0.154 C  
BRANCH  16  17
HETATM   17  C   UNL     1      -9.257   3.597  70.874  1.00  0.00    -0.199 C  
BRANCH  17  18
HETATM   18  C   UNL     1      -8.974   4.467  72.098  1.00  0.00    -0.143 C  
BRANCH  18  19
HETATM   19  C   UNL     1     -10.237   5.139  72.600  1.00  0.00    -0.186 C  
HETATM   20  O   UNL     1     -11.043   4.578  73.340  1.00  0.00    -0.273 OA 
BRANCH  19  21
HETATM   21  C   UNL     1     -10.530   6.523  72.135  1.00  0.00    -0.229 A  
HETATM   22  C   UNL     1      -9.577   7.518  72.391  1.00  0.00    -0.205 A  
HETATM   23  C   UNL     1      -9.811   8.832  71.990  1.00  0.00    -0.376 A  
HETATM   24  C   UNL     1     -10.991   9.145  71.326  1.00  0.00    -0.330 A  
HETATM   25  F   UNL     1     -11.215  10.409  70.941  1.00  0.00    -0.378 F  
HETATM   26  C   UNL     1     -11.941   8.166  71.052  1.00  0.00    -0.257 A  
HETATM   27  C   UNL     1     -11.713   6.850  71.458  1.00  0.00    -0.351 A  
ENDBRANCH  19  21
ENDBRANCH  18  19
ENDBRANCH  17  18
ENDBRANCH  16  17
ENDBRANCH   8  16
TORSDOF 6
ENDMDL
MODEL      138
REMARK 921   NORMALIZED FREE ENERGY PREDICTED BY IDOCK:   -4.81 KCAL/MOL
REMARK 922        TOTAL FREE ENERGY PREDICTED BY IDOCK:   -7.71 KCAL/MOL
REMARK 923 INTER-LIGAND FREE ENERGY PREDICTED BY IDOCK:   -6.80 KCAL/MOL
REMARK 924 INTRA-LIGAND FREE ENERGY PREDICTED BY IDOCK:   -0.91 KCAL/MOL
REMARK 927      BINDING AFFINITY PREDICTED BY RF-SCORE:    0.00 PKD
ROOT
HETATM    1  O   UNL     1      -7.440  18.661  69.075  1.00  0.00    -0.287 OA 
HETATM    2  C   UNL     1      -7.883  18.096  67.828  1.00  0.00    -0.235 C  
HETATM    3  H   UNL     1      -7.679  19.581  69.076  1.00  0.00     0.000 HD 
HETATM    4  C   UNL     1      -7.496  16.604  67.825  1.00  0.00    -0.169 C  
HETATM    5  C   UNL     1      -9.410  18.291  67.736  1.00  0.00    -0.276 C  
HETATM    6  C   UNL     1      -8.355  15.795  68.800  1.00  0.00    -0.195 C  
HETATM    7  C   UNL     1     -10.173  17.378  68.698  1.00  0.00    -0.361 C  
HETATM    8  N   UNL     1      -9.799  15.959  68.589  1.00  0.00    -0.206 NA 
ENDROOT
BRANCH   2   9
HETATM    9  C   UNL     1      -7.181  18.850  66.690  1.00  0.00    -0.231 A  
HETATM   10  C   UNL     1      -7.380  20.229  66.498  1.00  0.00    -0.302 A  
HETATM   11  C   UNL     1      -6.335  18.180  65.785  1.00  0.00    -0.297 A  
HETATM   12  C   UNL     1      -5.964  20.220  64.547  1.00  0.00    -0.270 A  
HETATM   13  C   UNL     1      -6.779  20.911  65.436  1.00  0.00    -0.070 A  
HETATM   14 BR   UNL     1      -5.177  21.133  63.092  1.00  0.00    -0.249 Br 
HETATM   15  C   UNL     1      -5.732  18.858  64.719  1.00  0.00    -0.306 A  
ENDBRANCH   2   9
BRANCH   8  16
HETATM   16  C   UNL     1     -10.292  15.366  67.333  1.00  0.00    -0.262 C  
BRANCH  16  17
HETATM   17  C   UNL     1     -11.714  14.800  67.417  1.00  0.00    -0.371 C  
BRANCH  17  18
HETATM   18  C   UNL     1     -11.763  13.426  68.084  1.00  0.00    -0.397 C  
BRANCH  18  19
HETATM   19  C   UNL     1     -11.523  12.317  67.079  1.00  0.00    -0.354 C  
HETATM   20  O   UNL     1     -12.084  12.274  65.987  1.00  0.00    -0.623 OA 
BRANCH  19  21
HETATM   21  C   UNL     1     -10.600  11.212  67.457  1.00  0.00    -0.258 A  
HETATM   22  C   UNL     1      -9.663  11.456  68.471  1.00  0.00    -0.199 A  
HETATM   23  C   UNL     1      -8.766  10.458  68.851  1.00  0.00    -0.157 A  
HETATM   24  C   UNL     1      -8.815   9.219  68.224  1.00  0.00    -0.129 A  
HETATM   25  F   UNL     1      -7.953   8.261  68.590  1.00  0.00    -0.111 F  
HETATM   26  C   UNL     1      -9.748   8.956  67.225  1.00  0.00    -0.235 A  
HETATM   27  C   UNL     1     -10.644   9.955  66.838  1.00  0.00    -0.248 A  
ENDBRANCH  19  21
ENDBRANCH  18  19
ENDBRANCH  17  18
ENDBRANCH  16  17
ENDBRANCH   8  16
TORSDOF 6
ENDMDL
MODEL      139
REMARK 921   NORMALIZED FREE ENERGY PREDICTED BY IDOCK:   -4.81 KCAL/MOL
REMARK 922        TOTAL FREE ENERGY PREDICTED BY IDOCK:   -7.70 KCAL/MOL
REMARK 923 INTER-LIGAND FREE ENERGY PREDICTED BY IDOCK:   -6.75 KCAL/MOL
REMARK 924 INTRA-LIGAND FREE ENERGY PREDICTED BY IDOCK:   -0.95 KCAL/MOL
REMARK 927      BINDING AFFINITY PREDICTED BY RF-SCORE:    0.00 PKD
ROOT
HETATM    1  O   UNL     1     -10.028  12.483  66.568  1.00  0.00    -0.233 OA 
HETATM    2  C   UNL     1     -10.043  11.429  67.547  1.00  0.00    -0.183 C  
HETATM    3  H   UNL     1      -9.684  13.263  66.987  1.00  0.00     0.000 HD 
HETATM    4  C   UNL     1     -10.601  10.164  66.868  1.00  0.00    -0.267 C  
HETATM    5  C   UNL     1      -8.597  11.223  68.041  1.00  0.00    -0.140 C  
HETATM    6  C   UNL     1      -9.607   9.576  65.863  1.00  0.00    -0.261 C  
HETATM    7  C   UNL     1      -7.710  10.558  66.986  1.00  0.00    -0.110 C  
HETATM    8  N   UNL     1      -8.277   9.318  66.432  1.00  0.00    -0.110 NA 
ENDROOT
BRANCH   2   9
HETATM    9  C   UNL     1     -10.942  11.874  68.709  1.00  0.00    -0.280 A  
HETATM   10  C   UNL     1     -11.268  13.229  68.901  1.00  0.00    -0.322 A  
HETATM   11  C   UNL     1     -11.450  10.943  69.635  1.00  0.00    -0.377 A  
HETATM   12  C   UNL     1     -12.520  12.704  70.893  1.00  0.00    -0.278 A  
HETATM   13  C   UNL     1     -12.049  13.644  69.984  1.00  0.00    -0.417 A  
HETATM   14 BR   UNL     1     -13.548  13.268  72.376  1.00  0.00    -0.620 Br 
HETATM   15  C   UNL     1     -12.231  11.354  70.722  1.00  0.00    -0.475 A  
ENDBRANCH   2   9
BRANCH   8  16
HETATM   16  C   UNL     1      -8.250   8.224  67.420  1.00  0.00    -0.121 C  
BRANCH  16  17
HETATM   17  C   UNL     1      -8.939   6.936  66.955  1.00  0.00    -0.124 C  
BRANCH  17  18
HETATM   18  C   UNL     1      -8.993   5.869  68.048  1.00  0.00    -0.118 C  
BRANCH  18  19
HETATM   19  C   UNL     1     -10.340   5.860  68.743  1.00  0.00    -0.219 C  
HETATM   20  O   UNL     1     -11.362   6.303  68.223  1.00  0.00    -0.289 OA 
BRANCH  19  21
HETATM   21  C   UNL     1     -10.412   5.329  70.132  1.00  0.00    -0.338 A  
HETATM   22  C   UNL     1      -9.853   4.068  70.384  1.00  0.00    -0.209 A  
HETATM   23  C   UNL     1      -9.909   3.520  71.664  1.00  0.00    -0.227 A  
HETATM   24  C   UNL     1     -10.513   4.238  72.690  1.00  0.00    -0.171 A  
HETATM   25  F   UNL     1     -10.565   3.710  73.921  1.00  0.00    -0.193 F  
HETATM   26  C   UNL     1     -11.060   5.496  72.460  1.00  0.00    -0.324 A  
HETATM   27  C   UNL     1     -11.011   6.046  71.177  1.00  0.00    -0.341 A  
ENDBRANCH  19  21
ENDBRANCH  18  19
ENDBRANCH  17  18
ENDBRANCH  16  17
ENDBRANCH   8  16
TORSDOF 6
ENDMDL
MODEL      140
REMARK 921   NORMALIZED FREE ENERGY PREDICTED BY IDOCK:   -4.80 KCAL/MOL
REMARK 922        TOTAL FREE ENERGY PREDICTED BY IDOCK:   -7.70 KCAL/MOL
REMARK 923 INTER-LIGAND FREE ENERGY PREDICTED BY IDOCK:   -7.39 KCAL/MOL
REMARK 924 INTRA-LIGAND FREE ENERGY PREDICTED BY IDOCK:   -0.30 KCAL/MOL
REMARK 927      BINDING AFFINITY PREDICTED BY RF-SCORE:    0.00 PKD
ROOT
HETATM    1  O   UNL     1      -7.909  19.494  68.971  1.00  0.00    -0.363 OA 
HETATM    2  C   UNL     1      -8.311  18.267  68.335  1.00  0.00    -0.307 C  
HETATM    3  H   UNL     1      -6.974  19.597  68.835  1.00  0.00     0.000 HD 
HETATM    4  C   UNL     1      -9.826  18.099  68.555  1.00  0.00    -0.393 C  
HETATM    5  C   UNL     1      -7.959  18.375  66.837  1.00  0.00    -0.249 C  
HETATM    6  C   UNL     1     -10.634  19.102  67.728  1.00  0.00    -0.403 C  
HETATM    7  C   UNL     1      -8.877  19.345  66.091  1.00  0.00    -0.283 C  
HETATM    8  N   UNL     1     -10.310  19.079  66.295  1.00  0.00    -0.434 NA 
ENDROOT
BRANCH   2   9
HETATM    9  C   UNL     1      -7.528  17.118  68.983  1.00  0.00    -0.203 A  
HETATM   10  C   UNL     1      -8.076  15.827  69.085  1.00  0.00    -0.237 A  
HETATM   11  C   UNL     1      -6.242  17.325  69.522  1.00  0.00    -0.251 A  
HETATM   12  C   UNL     1      -6.125  15.028  70.254  1.00  0.00    -0.144 A  
HETATM   13  C   UNL     1      -7.384  14.789  69.715  1.00  0.00    -0.063 A  
HETATM   14 BR   UNL     1      -5.203  13.634  71.136  1.00  0.00    -0.182 Br 
HETATM   15  C   UNL     1      -5.547  16.289  70.156  1.00  0.00    -0.184 A  
ENDBRANCH   2   9
BRANCH   8  16
HETATM   16  C   UNL     1     -10.734  17.848  65.604  1.00  0.00    -0.052 C  
BRANCH  16  17
HETATM   17  C   UNL     1     -10.241  16.554  66.260  1.00  0.00    -0.343 C  
BRANCH  17  18
HETATM   18  C   UNL     1     -11.286  15.439  66.222  1.00  0.00    -0.162 C  
BRANCH  18  19
HETATM   19  C   UNL     1     -10.850  14.248  67.053  1.00  0.00    -0.297 C  
HETATM   20  O   UNL     1     -10.091  13.380  66.627  1.00  0.00    -0.263 OA 
BRANCH  19  21
HETATM   21  C   UNL     1     -11.404  14.107  68.427  1.00  0.00    -0.315 A  
HETATM   22  C   UNL     1     -11.475  12.821  68.980  1.00  0.00    -0.360 A  
HETATM   23  C   UNL     1     -12.001  12.635  70.257  1.00  0.00    -0.363 A  
HETATM   24  C   UNL     1     -12.444  13.736  70.981  1.00  0.00    -0.380 A  
HETATM   25  F   UNL     1     -12.949  13.556  72.210  1.00  0.00    -0.420 F  
HETATM   26  C   UNL     1     -12.368  15.021  70.453  1.00  0.00    -0.401 A  
HETATM   27  C   UNL     1     -11.848  15.210  69.171  1.00  0.00    -0.340 A  
ENDBRANCH  19  21
ENDBRANCH  18  19
ENDBRANCH  17  18
ENDBRANCH  16  17
ENDBRANCH   8  16
TORSDOF 6
ENDMDL
MODEL      141
REMARK 921   NORMALIZED FREE ENERGY PREDICTED BY IDOCK:   -4.80 KCAL/MOL
REMARK 922        TOTAL FREE ENERGY PREDICTED BY IDOCK:   -7.69 KCAL/MOL
REMARK 923 INTER-LIGAND FREE ENERGY PREDICTED BY IDOCK:   -7.85 KCAL/MOL
REMARK 924 INTRA-LIGAND FREE ENERGY PREDICTED BY IDOCK:    0.16 KCAL/MOL
REMARK 927      BINDING AFFINITY PREDICTED BY RF-SCORE:    0.00 PKD
ROOT
HETATM    1  O   UNL     1      -7.064  14.721  66.805  1.00  0.00    -0.249 OA 
HETATM    2  C   UNL     1      -8.171  15.492  67.303  1.00  0.00    -0.197 C  
HETATM    3  H   UNL     1      -6.565  14.413  67.553  1.00  0.00     0.000 HD 
HETATM    4  C   UNL     1      -8.979  15.992  66.091  1.00  0.00    -0.381 C  
HETATM    5  C   UNL     1      -9.013  14.576  68.214  1.00  0.00    -0.184 C  
HETATM    6  C   UNL     1      -9.739  14.852  65.409  1.00  0.00    -0.176 C  
HETATM    7  C   UNL     1      -9.792  13.523  67.422  1.00  0.00    -0.227 C  
HETATM    8  N   UNL     1     -10.594  14.083  66.323  1.00  0.00    -0.279 NA 
ENDROOT
BRANCH   2   9
HETATM    9  C   UNL     1      -7.604  16.668  68.111  1.00  0.00    -0.171 A  
HETATM   10  C   UNL     1      -8.181  17.948  68.041  1.00  0.00    -0.257 A  
HETATM   11  C   UNL     1      -6.469  16.508  68.931  1.00  0.00    -0.163 A  
HETATM   12  C   UNL     1      -6.508  18.847  69.525  1.00  0.00    -0.243 A  
HETATM   13  C   UNL     1      -7.640  19.031  68.739  1.00  0.00    -0.375 A  
HETATM   14 BR   UNL     1      -5.756  20.318  70.444  1.00  0.00    -0.366 Br 
HETATM   15  C   UNL     1      -5.923  17.590  69.631  1.00  0.00    -0.252 A  
ENDBRANCH   2   9
BRANCH   8  16
HETATM   16  C   UNL     1     -11.756  14.835  66.832  1.00  0.00    -0.302 C  
BRANCH  16  17
HETATM   17  C   UNL     1     -12.138  14.505  68.279  1.00  0.00    -0.234 C  
BRANCH  17  18
HETATM   18  C   UNL     1     -12.153  15.739  69.180  1.00  0.00    -0.217 C  
BRANCH  18  19
HETATM   19  C   UNL     1     -12.058  15.353  70.643  1.00  0.00    -0.369 C  
HETATM   20  O   UNL     1     -11.649  16.121  71.511  1.00  0.00    -0.450 OA 
BRANCH  19  21
HETATM   21  C   UNL     1     -12.437  13.967  71.031  1.00  0.00    -0.452 A  
HETATM   22  C   UNL     1     -11.836  12.904  70.344  1.00  0.00    -0.239 A  
HETATM   23  C   UNL     1     -12.170  11.587  70.658  1.00  0.00    -0.473 A  
HETATM   24  C   UNL     1     -13.094  11.338  71.666  1.00  0.00    -0.408 A  
HETATM   25  F   UNL     1     -13.413  10.072  71.969  1.00  0.00    -0.445 F  
HETATM   26  C   UNL     1     -13.689  12.382  72.368  1.00  0.00    -0.192 A  
HETATM   27  C   UNL     1     -13.362  13.702  72.051  1.00  0.00    -0.548 A  
ENDBRANCH  19  21
ENDBRANCH  18  19
ENDBRANCH  17  18
ENDBRANCH  16  17
ENDBRANCH   8  16
TORSDOF 6
ENDMDL
MODEL      142
REMARK 921   NORMALIZED FREE ENERGY PREDICTED BY IDOCK:   -4.77 KCAL/MOL
REMARK 922        TOTAL FREE ENERGY PREDICTED BY IDOCK:   -7.66 KCAL/MOL
REMARK 923 INTER-LIGAND FREE ENERGY PREDICTED BY IDOCK:   -6.39 KCAL/MOL
REMARK 924 INTRA-LIGAND FREE ENERGY PREDICTED BY IDOCK:   -1.27 KCAL/MOL
REMARK 927      BINDING AFFINITY PREDICTED BY RF-SCORE:    0.00 PKD
ROOT
HETATM    1  O   UNL     1      -9.142  11.486  69.256  1.00  0.00    -0.376 OA 
HETATM    2  C   UNL     1     -10.096  10.564  68.699  1.00  0.00    -0.180 C  
HETATM    3  H   UNL     1      -9.593  12.306  69.422  1.00  0.00     0.000 HD 
HETATM    4  C   UNL     1      -9.364   9.236  68.429  1.00  0.00    -0.142 C  
HETATM    5  C   UNL     1     -11.238  10.391  69.721  1.00  0.00    -0.353 C  
HETATM    6  C   UNL     1      -9.021   8.505  69.729  1.00  0.00    -0.145 C  
HETATM    7  C   UNL     1     -10.806   9.579  70.945  1.00  0.00    -0.337 C  
HETATM    8  N   UNL     1     -10.177   8.292  70.609  1.00  0.00    -0.191 NA 
ENDROOT
BRANCH   2   9
HETATM    9  C   UNL     1     -10.637  11.172  67.397  1.00  0.00    -0.272 A  
HETATM   10  C   UNL     1     -10.281  10.644  66.143  1.00  0.00    -0.308 A  
HETATM   11  C   UNL     1     -11.487  12.295  67.416  1.00  0.00    -0.422 A  
HETATM   12  C   UNL     1     -11.557  12.342  65.003  1.00  0.00    -0.343 A  
HETATM   13  C   UNL     1     -10.735  11.222  64.954  1.00  0.00    -0.337 A  
HETATM   14 BR   UNL     1     -12.144  13.144  63.396  1.00  0.00    -0.410 Br 
HETATM   15  C   UNL     1     -11.942  12.878  66.228  1.00  0.00    -0.472 A  
ENDBRANCH   2   9
BRANCH   8  16
HETATM   16  C   UNL     1     -11.163   7.331  70.082  1.00  0.00    -0.239 C  
BRANCH  16  17
HETATM   17  C   UNL     1     -10.548   6.130  69.356  1.00  0.00    -0.349 C  
BRANCH  17  18
HETATM   18  C   UNL     1     -10.867   6.118  67.862  1.00  0.00    -0.406 C  
BRANCH  18  19
HETATM   19  C   UNL     1      -9.975   5.144  67.116  1.00  0.00    -0.191 C  
HETATM   20  O   UNL     1      -9.784   3.991  67.495  1.00  0.00    -0.184 OA 
BRANCH  19  21
HETATM   21  C   UNL     1      -9.270   5.628  65.898  1.00  0.00    -0.145 A  
HETATM   22  C   UNL     1      -8.898   6.978  65.845  1.00  0.00    -0.126 A  
HETATM   23  C   UNL     1      -8.249   7.484  64.719  1.00  0.00    -0.068 A  
HETATM   24  C   UNL     1      -7.965   6.635  63.656  1.00  0.00    -0.070 A  
HETATM   25  F   UNL     1      -7.340   7.122  62.574  1.00  0.00    -0.065 F  
HETATM   26  C   UNL     1      -8.314   5.289  63.698  1.00  0.00    -0.118 A  
HETATM   27  C   UNL     1      -8.970   4.781  64.821  1.00  0.00    -0.146 A  
ENDBRANCH  19  21
ENDBRANCH  18  19
ENDBRANCH  17  18
ENDBRANCH  16  17
ENDBRANCH   8  16
TORSDOF 6
ENDMDL
MODEL      143
REMARK 921   NORMALIZED FREE ENERGY PREDICTED BY IDOCK:   -4.73 KCAL/MOL
REMARK 922        TOTAL FREE ENERGY PREDICTED BY IDOCK:   -7.60 KCAL/MOL
REMARK 923 INTER-LIGAND FREE ENERGY PREDICTED BY IDOCK:   -6.69 KCAL/MOL
REMARK 924 INTRA-LIGAND FREE ENERGY PREDICTED BY IDOCK:   -0.91 KCAL/MOL
REMARK 927      BINDING AFFINITY PREDICTED BY RF-SCORE:    0.00 PKD
ROOT
HETATM    1  O   UNL     1     -10.170  13.234  66.530  1.00  0.00    -0.271 OA 
HETATM    2  C   UNL     1     -10.320  12.121  67.430  1.00  0.00    -0.205 C  
HETATM    3  H   UNL     1      -9.728  13.931  67.002  1.00  0.00     0.000 HD 
HETATM    4  C   UNL     1     -11.035  10.992  66.664  1.00  0.00    -0.253 C  
HETATM    5  C   UNL     1      -8.912  11.695  67.893  1.00  0.00    -0.170 C  
HETATM    6  C   UNL     1     -10.125  10.357  65.610  1.00  0.00    -0.269 C  
HETATM    7  C   UNL     1      -8.118  11.002  66.784  1.00  0.00    -0.151 C  
HETATM    8  N   UNL     1      -8.840   9.890  66.146  1.00  0.00    -0.141 NA 
ENDROOT
BRANCH   2   9
HETATM    9  C   UNL     1     -11.154  12.591  68.629  1.00  0.00    -0.305 A  
HETATM   10  C   UNL     1     -11.465  13.950  68.814  1.00  0.00    -0.327 A  
HETATM   11  C   UNL     1     -11.615  11.678  69.598  1.00  0.00    -0.401 A  
HETATM   12  C   UNL     1     -12.611  13.466  70.879  1.00  0.00    -0.327 A  
HETATM   13  C   UNL     1     -12.186  14.387  69.929  1.00  0.00    -0.394 A  
HETATM   14 BR   UNL     1     -13.557  14.060  72.404  1.00  0.00    -0.693 Br 
HETATM   15  C   UNL     1     -12.336  12.112  70.717  1.00  0.00    -0.391 A  
ENDBRANCH   2   9
BRANCH   8  16
HETATM   16  C   UNL     1      -8.954   8.731  67.051  1.00  0.00    -0.131 C  
BRANCH  16  17
HETATM   17  C   UNL     1     -10.286   7.981  66.952  1.00  0.00    -0.408 C  
BRANCH  17  18
HETATM   18  C   UNL     1     -10.222   6.583  67.565  1.00  0.00    -0.221 C  
BRANCH  18  19
HETATM   19  C   UNL     1     -10.614   6.605  69.030  1.00  0.00    -0.239 C  
HETATM   20  O   UNL     1     -11.714   6.234  69.432  1.00  0.00    -0.319 OA 
BRANCH  19  21
HETATM   21  C   UNL     1      -9.633   7.142  70.012  1.00  0.00    -0.164 A  
HETATM   22  C   UNL     1      -9.735   8.493  70.373  1.00  0.00    -0.193 A  
HETATM   23  C   UNL     1      -8.831   9.047  71.277  1.00  0.00    -0.259 A  
HETATM   24  C   UNL     1      -7.835   8.248  71.825  1.00  0.00    -0.118 A  
HETATM   25  F   UNL     1      -6.966   8.782  72.695  1.00  0.00    -0.109 F  
HETATM   26  C   UNL     1      -7.728   6.902  71.489  1.00  0.00    -0.095 A  
HETATM   27  C   UNL     1      -8.628   6.345  70.579  1.00  0.00    -0.143 A  
ENDBRANCH  19  21
ENDBRANCH  18  19
ENDBRANCH  17  18
ENDBRANCH  16  17
ENDBRANCH   8  16
TORSDOF 6
ENDMDL
MODEL      144
REMARK 921   NORMALIZED FREE ENERGY PREDICTED BY IDOCK:   -4.72 KCAL/MOL
REMARK 922        TOTAL FREE ENERGY PREDICTED BY IDOCK:   -7.58 KCAL/MOL
REMARK 923 INTER-LIGAND FREE ENERGY PREDICTED BY IDOCK:   -6.40 KCAL/MOL
REMARK 924 INTRA-LIGAND FREE ENERGY PREDICTED BY IDOCK:   -1.18 KCAL/MOL
REMARK 927      BINDING AFFINITY PREDICTED BY RF-SCORE:    0.00 PKD
ROOT
HETATM    1  O   UNL     1     -10.795   6.360  71.438  1.00  0.00    -0.236 OA 
HETATM    2  C   UNL     1     -10.596   7.332  70.395  1.00  0.00    -0.226 C  
HETATM    3  H   UNL     1     -11.727   6.187  71.499  1.00  0.00     0.000 HD 
HETATM    4  C   UNL     1      -9.085   7.613  70.297  1.00  0.00    -0.149 C  
HETATM    5  C   UNL     1     -11.155   6.741  69.085  1.00  0.00    -0.270 C  
HETATM    6  C   UNL     1      -8.326   6.426  69.697  1.00  0.00    -0.126 C  
HETATM    7  C   UNL     1     -10.278   5.614  68.533  1.00  0.00    -0.193 C  
HETATM    8  N   UNL     1      -8.859   5.980  68.403  1.00  0.00    -0.113 NA 
ENDROOT
BRANCH   2   9
HETATM    9  C   UNL     1     -11.370   8.601  70.778  1.00  0.00    -0.299 A  
HETATM   10  C   UNL     1     -11.069   9.844  70.192  1.00  0.00    -0.353 A  
HETATM   11  C   UNL     1     -12.391   8.567  71.748  1.00  0.00    -0.388 A  
HETATM   12  C   UNL     1     -12.730  10.949  71.545  1.00  0.00    -0.428 A  
HETATM   13  C   UNL     1     -11.741  11.009  70.571  1.00  0.00    -0.416 A  
HETATM   14 BR   UNL     1     -13.616  12.530  72.082  1.00  0.00    -0.265 Br 
HETATM   15  C   UNL     1     -13.065   9.732  72.132  1.00  0.00    -0.513 A  
ENDBRANCH   2   9
BRANCH   8  16
HETATM   16  C   UNL     1      -8.647   6.941  67.305  1.00  0.00    -0.120 C  
BRANCH  16  17
HETATM   17  C   UNL     1      -8.043   8.278  67.743  1.00  0.00    -0.127 C  
BRANCH  17  18
HETATM   18  C   UNL     1      -7.623   9.151  66.561  1.00  0.00    -0.093 C  
BRANCH  18  19
HETATM   19  C   UNL     1      -8.810   9.883  65.968  1.00  0.00    -0.146 C  
HETATM   20  O   UNL     1      -9.304   9.585  64.883  1.00  0.00    -0.246 OA 
BRANCH  19  21
HETATM   21  C   UNL     1      -9.368  11.042  66.718  1.00  0.00    -0.199 A  
HETATM   22  C   UNL     1      -8.482  11.829  67.466  1.00  0.00    -0.154 A  
HETATM   23  C   UNL     1      -8.958  12.916  68.199  1.00  0.00    -0.202 A  
HETATM   24  C   UNL     1     -10.314  13.218  68.172  1.00  0.00    -0.244 A  
HETATM   25  F   UNL     1     -10.770  14.263  68.876  1.00  0.00    -0.232 F  
HETATM   26  C   UNL     1     -11.205  12.455  67.423  1.00  0.00    -0.351 A  
HETATM   27  C   UNL     1     -10.733  11.362  66.693  1.00  0.00    -0.316 A  
ENDBRANCH  19  21
ENDBRANCH  18  19
ENDBRANCH  17  18
ENDBRANCH  16  17
ENDBRANCH   8  16
TORSDOF 6
ENDMDL
MODEL      145
REMARK 921   NORMALIZED FREE ENERGY PREDICTED BY IDOCK:   -4.72 KCAL/MOL
REMARK 922        TOTAL FREE ENERGY PREDICTED BY IDOCK:   -7.58 KCAL/MOL
REMARK 923 INTER-LIGAND FREE ENERGY PREDICTED BY IDOCK:   -6.15 KCAL/MOL
REMARK 924 INTRA-LIGAND FREE ENERGY PREDICTED BY IDOCK:   -1.43 KCAL/MOL
REMARK 927      BINDING AFFINITY PREDICTED BY RF-SCORE:    0.00 PKD
ROOT
HETATM    1  O   UNL     1     -10.825   5.792  71.734  1.00  0.00    -0.241 OA 
HETATM    2  C   UNL     1     -11.064   6.803  70.738  1.00  0.00    -0.276 C  
HETATM    3  H   UNL     1      -9.887   5.743  71.877  1.00  0.00     0.000 HD 
HETATM    4  C   UNL     1     -12.585   6.883  70.505  1.00  0.00     0.004 C  
HETATM    5  C   UNL     1     -10.497   8.134  71.270  1.00  0.00    -0.254 C  
HETATM    6  C   UNL     1     -13.308   7.512  71.698  1.00  0.00    -0.358 C  
HETATM    7  C   UNL     1     -11.340   8.714  72.409  1.00  0.00    -0.282 C  
HETATM    8  N   UNL     1     -12.771   8.823  72.087  1.00  0.00    -0.375 NA 
ENDROOT
BRANCH   2   9
HETATM    9  C   UNL     1     -10.330   6.388  69.456  1.00  0.00    -0.252 A  
HETATM   10  C   UNL     1      -8.946   6.138  69.455  1.00  0.00    -0.133 A  
HETATM   11  C   UNL     1     -11.015   6.268  68.231  1.00  0.00    -0.408 A  
HETATM   12  C   UNL     1      -8.965   5.712  67.083  1.00  0.00    -0.112 A  
HETATM   13  C   UNL     1      -8.266   5.804  68.281  1.00  0.00    -0.108 A  
HETATM   14 BR   UNL     1      -8.041   5.293  65.488  1.00  0.00    -0.124 Br 
HETATM   15  C   UNL     1     -10.338   5.935  67.052  1.00  0.00    -0.298 A  
ENDBRANCH   2   9
BRANCH   8  16
HETATM   16  C   UNL     1     -13.024   9.891  71.102  1.00  0.00    -0.369 C  
BRANCH  16  17
HETATM   17  C   UNL     1     -11.788  10.722  70.741  1.00  0.00    -0.443 C  
BRANCH  17  18
HETATM   18  C   UNL     1     -12.148  12.087  70.155  1.00  0.00    -0.377 C  
BRANCH  18  19
HETATM   19  C   UNL     1     -11.156  12.507  69.088  1.00  0.00    -0.196 C  
HETATM   20  O   UNL     1     -11.057  13.665  68.688  1.00  0.00    -0.249 OA 
BRANCH  19  21
HETATM   21  C   UNL     1     -10.298  11.458  68.473  1.00  0.00    -0.219 A  
HETATM   22  C   UNL     1     -10.834  10.706  67.418  1.00  0.00    -0.353 A  
HETATM   23  C   UNL     1     -10.077   9.700  66.819  1.00  0.00    -0.301 A  
HETATM   24  C   UNL     1      -8.785   9.458  67.268  1.00  0.00    -0.128 A  
HETATM   25  F   UNL     1      -8.057   8.491  66.690  1.00  0.00    -0.098 F  
HETATM   26  C   UNL     1      -8.232  10.204  68.304  1.00  0.00    -0.110 A  
HETATM   27  C   UNL     1      -8.990  11.208  68.911  1.00  0.00    -0.089 A  
ENDBRANCH  19  21
ENDBRANCH  18  19
ENDBRANCH  17  18
ENDBRANCH  16  17
ENDBRANCH   8  16
TORSDOF 6
ENDMDL
MODEL      146
REMARK 921   NORMALIZED FREE ENERGY PREDICTED BY IDOCK:   -4.71 KCAL/MOL
REMARK 922        TOTAL FREE ENERGY PREDICTED BY IDOCK:   -7.58 KCAL/MOL
REMARK 923 INTER-LIGAND FREE ENERGY PREDICTED BY IDOCK:   -6.27 KCAL/MOL
REMARK 924 INTRA-LIGAND FREE ENERGY PREDICTED BY IDOCK:   -1.31 KCAL/MOL
REMARK 927      BINDING AFFINITY PREDICTED BY RF-SCORE:    0.00 PKD
ROOT
HETATM    1  O   UNL     1     -12.075  11.772  71.422  1.00  0.00    -0.122 OA 
HETATM    2  C   UNL     1     -11.962  10.786  70.381  1.00  0.00    -0.357 C  
HETATM    3  H   UNL     1     -12.826  12.320  71.223  1.00  0.00     0.000 HD 
HETATM    4  C   UNL     1     -10.745   9.899  70.704  1.00  0.00    -0.372 C  
HETATM    5  C   UNL     1     -13.273   9.972  70.357  1.00  0.00     0.066 C  
HETATM    6  C   UNL     1     -11.012   8.986  71.904  1.00  0.00    -0.353 C  
HETATM    7  C   UNL     1     -13.400   9.037  71.562  1.00  0.00    -0.339 C  
HETATM    8  N   UNL     1     -12.227   8.172  71.766  1.00  0.00    -0.303 NA 
ENDROOT
BRANCH   2   9
HETATM    9  C   UNL     1     -11.771  11.523  69.049  1.00  0.00    -0.400 A  
HETATM   10  C   UNL     1     -12.038  12.899  68.931  1.00  0.00    -0.182 A  
HETATM   11  C   UNL     1     -11.345  10.839  67.893  1.00  0.00    -0.372 A  
HETATM   12  C   UNL     1     -11.505  12.859  66.580  1.00  0.00    -0.343 A  
HETATM   13  C   UNL     1     -11.908  13.564  67.709  1.00  0.00    -0.398 A  
HETATM   14 BR   UNL     1     -11.361  13.751  64.920  1.00  0.00    -0.375 Br 
HETATM   15  C   UNL     1     -11.215  11.501  66.666  1.00  0.00    -0.336 A  
ENDBRANCH   2   9
BRANCH   8  16
HETATM   16  C   UNL     1     -12.136   7.131  70.726  1.00  0.00    -0.288 C  
BRANCH  16  17
HETATM   17  C   UNL     1     -10.737   6.532  70.553  1.00  0.00    -0.305 C  
BRANCH  17  18
HETATM   18  C   UNL     1     -10.650   5.571  69.368  1.00  0.00    -0.349 C  
BRANCH  18  19
HETATM   19  C   UNL     1     -10.375   6.314  68.075  1.00  0.00    -0.192 C  
HETATM   20  O   UNL     1     -11.250   6.556  67.246  1.00  0.00    -0.376 OA 
BRANCH  19  21
HETATM   21  C   UNL     1      -8.975   6.725  67.784  1.00  0.00    -0.116 A  
HETATM   22  C   UNL     1      -8.629   8.069  67.982  1.00  0.00    -0.129 A  
HETATM   23  C   UNL     1      -7.334   8.507  67.708  1.00  0.00    -0.093 A  
HETATM   24  C   UNL     1      -6.387   7.599  67.249  1.00  0.00    -0.054 A  
HETATM   25  F   UNL     1      -5.143   8.021  66.988  1.00  0.00    -0.024 F  
HETATM   26  C   UNL     1      -6.710   6.259  67.061  1.00  0.00    -0.061 A  
HETATM   27  C   UNL     1      -8.008   5.818  67.328  1.00  0.00    -0.102 A  
ENDBRANCH  19  21
ENDBRANCH  18  19
ENDBRANCH  17  18
ENDBRANCH  16  17
ENDBRANCH   8  16
TORSDOF 6
ENDMDL
MODEL      147
REMARK 921   NORMALIZED FREE ENERGY PREDICTED BY IDOCK:   -4.70 KCAL/MOL
REMARK 922        TOTAL FREE ENERGY PREDICTED BY IDOCK:   -7.56 KCAL/MOL
REMARK 923 INTER-LIGAND FREE ENERGY PREDICTED BY IDOCK:   -6.52 KCAL/MOL
REMARK 924 INTRA-LIGAND FREE ENERGY PREDICTED BY IDOCK:   -1.03 KCAL/MOL
REMARK 927      BINDING AFFINITY PREDICTED BY RF-SCORE:    0.00 PKD
ROOT
HETATM    1  O   UNL     1      -7.932   8.351  67.419  1.00  0.00    -0.104 OA 
HETATM    2  C   UNL     1      -8.845   8.318  66.307  1.00  0.00    -0.161 C  
HETATM    3  H   UNL     1      -7.100   8.000  67.121  1.00  0.00     0.000 HD 
HETATM    4  C   UNL     1     -10.193   8.885  66.789  1.00  0.00    -0.348 C  
HETATM    5  C   UNL     1      -8.239   9.169  65.173  1.00  0.00    -0.147 C  
HETATM    6  C   UNL     1     -10.121  10.395  67.025  1.00  0.00    -0.215 C  
HETATM    7  C   UNL     1      -8.287  10.668  65.480  1.00  0.00    -0.158 C  
HETATM    8  N   UNL     1      -9.623  11.150  65.867  1.00  0.00    -0.209 NA 
ENDROOT
BRANCH   2   9
HETATM    9  C   UNL     1      -8.989   6.858  65.856  1.00  0.00    -0.092 A  
HETATM   10  C   UNL     1      -8.181   6.326  64.835  1.00  0.00    -0.119 A  
HETATM   11  C   UNL     1      -9.954   6.009  66.432  1.00  0.00    -0.145 A  
HETATM   12  C   UNL     1      -9.314   4.203  64.964  1.00  0.00    -0.165 A  
HETATM   13  C   UNL     1      -8.340   5.011  64.390  1.00  0.00    -0.136 A  
HETATM   14 BR   UNL     1      -9.552   2.435  64.340  1.00  0.00    -0.080 Br 
HETATM   15  C   UNL     1     -10.119   4.692  65.988  1.00  0.00    -0.287 A  
ENDBRANCH   2   9
BRANCH   8  16
HETATM   16  C   UNL     1     -10.546  11.161  64.717  1.00  0.00    -0.303 C  
BRANCH  16  17
HETATM   17  C   UNL     1     -10.501  12.445  63.883  1.00  0.00    -0.469 C  
BRANCH  17  18
HETATM   18  C   UNL     1     -11.561  13.462  64.309  1.00  0.00    -0.442 C  
BRANCH  18  19
HETATM   19  C   UNL     1     -10.952  14.579  65.134  1.00  0.00    -0.379 C  
HETATM   20  O   UNL     1     -10.180  15.411  64.663  1.00  0.00    -0.234 OA 
BRANCH  19  21
HETATM   21  C   UNL     1     -11.274  14.636  66.586  1.00  0.00    -0.349 A  
HETATM   22  C   UNL     1     -11.026  15.836  67.267  1.00  0.00    -0.259 A  
HETATM   23  C   UNL     1     -11.296  15.935  68.632  1.00  0.00    -0.376 A  
HETATM   24  C   UNL     1     -11.822  14.840  69.307  1.00  0.00    -0.318 A  
HETATM   25  F   UNL     1     -12.081  14.938  70.618  1.00  0.00    -0.277 F  
HETATM   26  C   UNL     1     -12.087  13.647  68.642  1.00  0.00    -0.325 A  
HETATM   27  C   UNL     1     -11.812  13.542  67.277  1.00  0.00    -0.427 A  
ENDBRANCH  19  21
ENDBRANCH  18  19
ENDBRANCH  17  18
ENDBRANCH  16  17
ENDBRANCH   8  16
TORSDOF 6
ENDMDL
MODEL      148
REMARK 921   NORMALIZED FREE ENERGY PREDICTED BY IDOCK:   -4.69 KCAL/MOL
REMARK 922        TOTAL FREE ENERGY PREDICTED BY IDOCK:   -7.55 KCAL/MOL
REMARK 923 INTER-LIGAND FREE ENERGY PREDICTED BY IDOCK:   -6.61 KCAL/MOL
REMARK 924 INTRA-LIGAND FREE ENERGY PREDICTED BY IDOCK:   -0.94 KCAL/MOL
REMARK 927      BINDING AFFINITY PREDICTED BY RF-SCORE:    0.00 PKD
ROOT
HETATM    1  O   UNL     1     -11.570   6.472  67.396  1.00  0.00    -0.719 OA 
HETATM    2  C   UNL     1     -10.519   7.094  68.156  1.00  0.00    -0.200 C  
HETATM    3  H   UNL     1     -12.396   6.684  67.816  1.00  0.00     0.000 HD 
HETATM    4  C   UNL     1      -9.180   6.750  67.476  1.00  0.00    -0.122 C  
HETATM    5  C   UNL     1     -10.781   8.614  68.168  1.00  0.00    -0.116 C  
HETATM    6  C   UNL     1      -9.015   7.488  66.146  1.00  0.00    -0.153 C  
HETATM    7  C   UNL     1     -10.510   9.263  66.808  1.00  0.00    -0.193 C  
HETATM    8  N   UNL     1      -9.185   8.944  66.254  1.00  0.00    -0.190 NA 
ENDROOT
BRANCH   2   9
HETATM    9  C   UNL     1     -10.573   6.535  69.584  1.00  0.00    -0.291 A  
HETATM   10  C   UNL     1     -11.037   7.317  70.657  1.00  0.00    -0.287 A  
HETATM   11  C   UNL     1     -10.134   5.228  69.872  1.00  0.00    -0.333 A  
HETATM   12  C   UNL     1     -10.588   5.539  72.222  1.00  0.00    -0.224 A  
HETATM   13  C   UNL     1     -11.045   6.827  71.966  1.00  0.00    -0.283 A  
HETATM   14 BR   UNL     1     -10.567   4.888  73.996  1.00  0.00    -0.352 Br 
HETATM   15  C   UNL     1     -10.138   4.734  71.181  1.00  0.00    -0.261 A  
ENDBRANCH   2   9
BRANCH   8  16
HETATM   16  C   UNL     1      -8.110   9.618  67.003  1.00  0.00    -0.113 C  
BRANCH  16  17
HETATM   17  C   UNL     1      -7.778  11.028  66.502  1.00  0.00    -0.154 C  
BRANCH  17  18
HETATM   18  C   UNL     1      -8.317  12.122  67.422  1.00  0.00    -0.174 C  
BRANCH  18  19
HETATM   19  C   UNL     1      -9.324  12.999  66.704  1.00  0.00    -0.241 C  
HETATM   20  O   UNL     1      -9.864  12.669  65.650  1.00  0.00    -0.260 OA 
BRANCH  19  21
HETATM   21  C   UNL     1      -9.634  14.335  67.283  1.00  0.00    -0.232 A  
HETATM   22  C   UNL     1      -9.431  15.464  66.478  1.00  0.00    -0.298 A  
HETATM   23  C   UNL     1      -9.690  16.738  66.980  1.00  0.00    -0.254 A  
HETATM   24  C   UNL     1     -10.163  16.879  68.280  1.00  0.00    -0.318 A  
HETATM   25  F   UNL     1     -10.413  18.104  68.761  1.00  0.00    -0.353 F  
HETATM   26  C   UNL     1     -10.384  15.767  69.087  1.00  0.00    -0.240 A  
HETATM   27  C   UNL     1     -10.118  14.490  68.590  1.00  0.00    -0.244 A  
ENDBRANCH  19  21
ENDBRANCH  18  19
ENDBRANCH  17  18
ENDBRANCH  16  17
ENDBRANCH   8  16
TORSDOF 6
ENDMDL
MODEL      149
REMARK 921   NORMALIZED FREE ENERGY PREDICTED BY IDOCK:   -4.66 KCAL/MOL
REMARK 922        TOTAL FREE ENERGY PREDICTED BY IDOCK:   -7.51 KCAL/MOL
REMARK 923 INTER-LIGAND FREE ENERGY PREDICTED BY IDOCK:   -6.68 KCAL/MOL
REMARK 924 INTRA-LIGAND FREE ENERGY PREDICTED BY IDOCK:   -0.83 KCAL/MOL
REMARK 927      BINDING AFFINITY PREDICTED BY RF-SCORE:    0.00 PKD
ROOT
HETATM    1  O   UNL     1      -9.120  16.667  69.248  1.00  0.00    -0.198 OA 
HETATM    2  C   UNL     1      -9.074  16.218  67.882  1.00  0.00    -0.196 C  
HETATM    3  H   UNL     1      -9.621  17.474  69.271  1.00  0.00     0.000 HD 
HETATM    4  C   UNL     1      -8.263  14.909  67.844  1.00  0.00    -0.148 C  
HETATM    5  C   UNL     1     -10.525  16.005  67.405  1.00  0.00    -0.308 C  
HETATM    6  C   UNL     1      -9.032  13.747  68.477  1.00  0.00    -0.120 C  
HETATM    7  C   UNL     1     -11.173  14.773  68.041  1.00  0.00    -0.299 C  
HETATM    8  N   UNL     1     -10.371  13.547  67.905  1.00  0.00    -0.243 NA 
ENDROOT
BRANCH   2   9
HETATM    9  C   UNL     1      -8.396  17.312  67.047  1.00  0.00    -0.231 A  
HETATM   10  C   UNL     1      -7.164  17.085  66.407  1.00  0.00    -0.311 A  
HETATM   11  C   UNL     1      -8.974  18.590  66.914  1.00  0.00    -0.280 A  
HETATM   12  C   UNL     1      -7.106  19.350  65.586  1.00  0.00    -0.267 A  
HETATM   13  C   UNL     1      -6.522  18.093  65.684  1.00  0.00    -0.287 A  
HETATM   14 BR   UNL     1      -6.222  20.724  64.635  1.00  0.00    -0.309 Br 
HETATM   15  C   UNL     1      -8.333  19.604  66.192  1.00  0.00    -0.352 A  
ENDBRANCH   2   9
BRANCH   8  16
HETATM   16  C   UNL     1     -10.361  13.059  66.514  1.00  0.00    -0.274 C  
BRANCH  16  17
HETATM   17  C   UNL     1     -10.500  11.539  66.376  1.00  0.00    -0.292 C  
BRANCH  17  18
HETATM   18  C   UNL     1      -9.156  10.815  66.457  1.00  0.00    -0.181 C  
BRANCH  18  19
HETATM   19  C   UNL     1      -9.306   9.340  66.140  1.00  0.00    -0.212 C  
HETATM   20  O   UNL     1      -9.073   8.870  65.029  1.00  0.00    -0.165 OA 
BRANCH  19  21
HETATM   21  C   UNL     1      -9.799   8.437  67.215  1.00  0.00    -0.264 A  
HETATM   22  C   UNL     1     -10.593   7.343  66.842  1.00  0.00    -0.375 A  
HETATM   23  C   UNL     1     -11.093   6.477  67.813  1.00  0.00    -0.366 A  
HETATM   24  C   UNL     1     -10.789   6.700  69.151  1.00  0.00    -0.283 A  
HETATM   25  F   UNL     1     -11.269   5.865  70.083  1.00  0.00    -0.387 F  
HETATM   26  C   UNL     1      -9.990   7.772  69.536  1.00  0.00    -0.187 A  
HETATM   27  C   UNL     1      -9.493   8.646  68.567  1.00  0.00    -0.146 A  
ENDBRANCH  19  21
ENDBRANCH  18  19
ENDBRANCH  17  18
ENDBRANCH  16  17
ENDBRANCH   8  16
TORSDOF 6
ENDMDL
MODEL      150
REMARK 921   NORMALIZED FREE ENERGY PREDICTED BY IDOCK:   -4.65 KCAL/MOL
REMARK 922        TOTAL FREE ENERGY PREDICTED BY IDOCK:   -7.49 KCAL/MOL
REMARK 923 INTER-LIGAND FREE ENERGY PREDICTED BY IDOCK:   -6.63 KCAL/MOL
REMARK 924 INTRA-LIGAND FREE ENERGY PREDICTED BY IDOCK:   -0.86 KCAL/MOL
REMARK 927      BINDING AFFINITY PREDICTED BY RF-SCORE:    0.00 PKD
ROOT
HETATM    1  O   UNL     1      -8.568  11.069  65.913  1.00  0.00    -0.176 OA 
HETATM    2  C   UNL     1      -9.361  11.601  66.990  1.00  0.00    -0.181 C  
HETATM    3  H   UNL     1      -7.737  11.530  65.910  1.00  0.00     0.000 HD 
HETATM    4  C   UNL     1     -10.708  10.853  66.996  1.00  0.00    -0.323 C  
HETATM    5  C   UNL     1      -8.581  11.384  68.303  1.00  0.00    -0.156 C  
HETATM    6  C   UNL     1     -10.552   9.408  67.474  1.00  0.00    -0.267 C  
HETATM    7  C   UNL     1      -8.553   9.915  68.729  1.00  0.00    -0.130 C  
HETATM    8  N   UNL     1      -9.884   9.288  68.777  1.00  0.00    -0.161 NA 
ENDROOT
BRANCH   2   9
HETATM    9  C   UNL     1      -9.563  13.101  66.733  1.00  0.00    -0.249 A  
HETATM   10  C   UNL     1      -8.659  14.055  67.234  1.00  0.00    -0.228 A  
HETATM   11  C   UNL     1     -10.674  13.573  66.008  1.00  0.00    -0.280 A  
HETATM   12  C   UNL     1      -9.980  15.861  66.339  1.00  0.00    -0.287 A  
HETATM   13  C   UNL     1      -8.863  15.424  67.042  1.00  0.00    -0.252 A  
HETATM   14 BR   UNL     1     -10.275  17.713  66.106  1.00  0.00    -0.295 Br 
HETATM   15  C   UNL     1     -10.884  14.943  65.814  1.00  0.00    -0.343 A  
ENDBRANCH   2   9
BRANCH   8  16
HETATM   16  C   UNL     1     -10.681   9.798  69.908  1.00  0.00    -0.268 C  
BRANCH  16  17
HETATM   17  C   UNL     1     -10.371   9.129  71.251  1.00  0.00    -0.405 C  
BRANCH  17  18
HETATM   18  C   UNL     1     -11.502   8.220  71.731  1.00  0.00    -0.353 C  
BRANCH  18  19
HETATM   19  C   UNL     1     -11.465   6.878  71.028  1.00  0.00    -0.314 C  
HETATM   20  O   UNL     1     -11.924   6.701  69.902  1.00  0.00    -0.301 OA 
BRANCH  19  21
HETATM   21  C   UNL     1     -10.887   5.717  71.759  1.00  0.00    -0.301 A  
HETATM   22  C   UNL     1      -9.794   5.055  71.182  1.00  0.00    -0.254 A  
HETATM   23  C   UNL     1      -9.226   3.953  71.819  1.00  0.00    -0.184 A  
HETATM   24  C   UNL     1      -9.745   3.523  73.034  1.00  0.00    -0.123 A  
HETATM   25  F   UNL     1      -9.198   2.463  73.646  1.00  0.00    -0.079 F  
HETATM   26  C   UNL     1     -10.821   4.177  73.627  1.00  0.00    -0.346 A  
HETATM   27  C   UNL     1     -11.396   5.277  72.989  1.00  0.00    -0.376 A  
ENDBRANCH  19  21
ENDBRANCH  18  19
ENDBRANCH  17  18
ENDBRANCH  16  17
ENDBRANCH   8  16
TORSDOF 6
ENDMDL
MODEL      151
REMARK 921   NORMALIZED FREE ENERGY PREDICTED BY IDOCK:   -4.64 KCAL/MOL
REMARK 922        TOTAL FREE ENERGY PREDICTED BY IDOCK:   -7.47 KCAL/MOL
REMARK 923 INTER-LIGAND FREE ENERGY PREDICTED BY IDOCK:   -5.89 KCAL/MOL
REMARK 924 INTRA-LIGAND FREE ENERGY PREDICTED BY IDOCK:   -1.59 KCAL/MOL
REMARK 927      BINDING AFFINITY PREDICTED BY RF-SCORE:    0.00 PKD
ROOT
HETATM    1  O   UNL     1     -12.740   6.628  72.345  1.00  0.00    -0.532 OA 
HETATM    2  C   UNL     1     -11.426   7.187  72.167  1.00  0.00    -0.269 C  
HETATM    3  H   UNL     1     -13.141   6.551  71.486  1.00  0.00     0.000 HD 
HETATM    4  C   UNL     1     -10.777   7.312  73.558  1.00  0.00    -0.367 C  
HETATM    5  C   UNL     1     -10.630   6.239  71.247  1.00  0.00    -0.285 C  
HETATM    6  C   UNL     1     -10.405   5.944  74.135  1.00  0.00    -0.284 C  
HETATM    7  C   UNL     1     -10.243   4.935  71.949  1.00  0.00    -0.201 C  
HETATM    8  N   UNL     1      -9.566   5.136  73.240  1.00  0.00    -0.140 NA 
ENDROOT
BRANCH   2   9
HETATM    9  C   UNL     1     -11.582   8.562  71.504  1.00  0.00    -0.352 A  
HETATM   10  C   UNL     1     -10.611   9.058  70.615  1.00  0.00    -0.290 A  
HETATM   11  C   UNL     1     -12.691   9.384  71.784  1.00  0.00    -0.476 A  
HETATM   12  C   UNL     1     -11.824  11.126  70.355  1.00  0.00    -0.369 A  
HETATM   13  C   UNL     1     -10.728  10.329  70.045  1.00  0.00    -0.345 A  
HETATM   14 BR   UNL     1     -11.965  12.857  69.610  1.00  0.00    -0.317 Br 
HETATM   15  C   UNL     1     -12.811  10.658  71.217  1.00  0.00    -0.535 A  
ENDBRANCH   2   9
BRANCH   8  16
HETATM   16  C   UNL     1      -8.202   5.665  73.057  1.00  0.00    -0.118 C  
BRANCH  16  17
HETATM   17  C   UNL     1      -7.377   4.931  71.994  1.00  0.00    -0.081 C  
BRANCH  17  18
HETATM   18  C   UNL     1      -6.347   5.836  71.320  1.00  0.00    -0.040 C  
BRANCH  18  19
HETATM   19  C   UNL     1      -6.991   7.098  70.781  1.00  0.00    -0.061 C  
HETATM   20  O   UNL     1      -7.120   8.120  71.451  1.00  0.00    -0.058 OA 
BRANCH  19  21
HETATM   21  C   UNL     1      -7.528   7.076  69.393  1.00  0.00    -0.097 A  
HETATM   22  C   UNL     1      -7.927   5.841  68.862  1.00  0.00    -0.098 A  
HETATM   23  C   UNL     1      -8.421   5.765  67.561  1.00  0.00    -0.103 A  
HETATM   24  C   UNL     1      -8.527   6.923  66.800  1.00  0.00    -0.118 A  
HETATM   25  F   UNL     1      -9.003   6.849  65.550  1.00  0.00    -0.136 F  
HETATM   26  C   UNL     1      -8.149   8.159  67.317  1.00  0.00    -0.121 A  
HETATM   27  C   UNL     1      -7.647   8.238  68.618  1.00  0.00    -0.099 A  
ENDBRANCH  19  21
ENDBRANCH  18  19
ENDBRANCH  17  18
ENDBRANCH  16  17
ENDBRANCH   8  16
TORSDOF 6
ENDMDL
MODEL      152
REMARK 921   NORMALIZED FREE ENERGY PREDICTED BY IDOCK:   -4.64 KCAL/MOL
REMARK 922        TOTAL FREE ENERGY PREDICTED BY IDOCK:   -7.47 KCAL/MOL
REMARK 923 INTER-LIGAND FREE ENERGY PREDICTED BY IDOCK:   -6.15 KCAL/MOL
REMARK 924 INTRA-LIGAND FREE ENERGY PREDICTED BY IDOCK:   -1.32 KCAL/MOL
REMARK 927      BINDING AFFINITY PREDICTED BY RF-SCORE:    0.00 PKD
ROOT
HETATM    1  O   UNL     1     -10.883  14.073  69.762  1.00  0.00    -0.453 OA 
HETATM    2  C   UNL     1     -10.700  13.905  68.345  1.00  0.00    -0.257 C  
HETATM    3  H   UNL     1     -11.700  14.539  69.895  1.00  0.00     0.000 HD 
HETATM    4  C   UNL     1      -9.375  13.149  68.129  1.00  0.00    -0.217 C  
HETATM    5  C   UNL     1     -11.906  13.110  67.804  1.00  0.00    -0.392 C  
HETATM    6  C   UNL     1      -9.482  11.684  68.556  1.00  0.00    -0.173 C  
HETATM    7  C   UNL     1     -11.872  11.640  68.227  1.00  0.00    -0.265 C  
HETATM    8  N   UNL     1     -10.599  10.967  67.926  1.00  0.00    -0.193 NA 
ENDROOT
BRANCH   2   9
HETATM    9  C   UNL     1     -10.652  15.299  67.705  1.00  0.00    -0.270 A  
HETATM   10  C   UNL     1     -10.556  15.459  66.311  1.00  0.00    -0.311 A  
HETATM   11  C   UNL     1     -10.677  16.464  68.495  1.00  0.00    -0.320 A  
HETATM   12  C   UNL     1     -10.474  17.858  66.534  1.00  0.00    -0.313 A  
HETATM   13  C   UNL     1     -10.466  16.725  65.727  1.00  0.00    -0.305 A  
HETATM   14 BR   UNL     1     -10.319  19.569  65.748  1.00  0.00    -0.373 Br 
HETATM   15  C   UNL     1     -10.585  17.735  67.915  1.00  0.00    -0.389 A  
ENDBRANCH   2   9
BRANCH   8  16
HETATM   16  C   UNL     1     -10.431  10.751  66.477  1.00  0.00    -0.240 C  
BRANCH  16  17
HETATM   17  C   UNL     1      -9.943   9.349  66.099  1.00  0.00    -0.351 C  
BRANCH  17  18
HETATM   18  C   UNL     1     -10.346   8.289  67.125  1.00  0.00    -0.387 C  
BRANCH  18  19
HETATM   19  C   UNL     1      -9.137   7.533  67.638  1.00  0.00    -0.125 C  
HETATM   20  O   UNL     1      -8.909   6.361  67.344  1.00  0.00    -0.107 OA 
BRANCH  19  21
HETATM   21  C   UNL     1      -8.214   8.232  68.574  1.00  0.00    -0.131 A  
HETATM   22  C   UNL     1      -8.652   8.452  69.887  1.00  0.00    -0.131 A  
HETATM   23  C   UNL     1      -7.832   9.117  70.797  1.00  0.00    -0.173 A  
HETATM   24  C   UNL     1      -6.574   9.550  70.395  1.00  0.00    -0.086 A  
HETATM   25  F   UNL     1      -5.785  10.188  71.271  1.00  0.00    -0.074 F  
HETATM   26  C   UNL     1      -6.118   9.327  69.099  1.00  0.00    -0.042 A  
HETATM   27  C   UNL     1      -6.940   8.667  68.183  1.00  0.00    -0.074 A  
ENDBRANCH  19  21
ENDBRANCH  18  19
ENDBRANCH  17  18
ENDBRANCH  16  17
ENDBRANCH   8  16
TORSDOF 6
ENDMDL
MODEL      153
REMARK 921   NORMALIZED FREE ENERGY PREDICTED BY IDOCK:   -4.63 KCAL/MOL
REMARK 922        TOTAL FREE ENERGY PREDICTED BY IDOCK:   -7.46 KCAL/MOL
REMARK 923 INTER-LIGAND FREE ENERGY PREDICTED BY IDOCK:   -6.49 KCAL/MOL
REMARK 924 INTRA-LIGAND FREE ENERGY PREDICTED BY IDOCK:   -0.98 KCAL/MOL
REMARK 927      BINDING AFFINITY PREDICTED BY RF-SCORE:    0.00 PKD
ROOT
HETATM    1  O   UNL     1     -13.815  14.227  70.509  1.00  0.00    -0.192 OA 
HETATM    2  C   UNL     1     -12.451  13.770  70.504  1.00  0.00    -0.339 C  
HETATM    3  H   UNL     1     -14.176  14.054  71.372  1.00  0.00     0.000 HD 
HETATM    4  C   UNL     1     -11.867  14.050  69.107  1.00  0.00    -0.391 C  
HETATM    5  C   UNL     1     -11.692  14.537  71.606  1.00  0.00    -0.146 C  
HETATM    6  C   UNL     1     -11.643  15.546  68.876  1.00  0.00    -0.373 C  
HETATM    7  C   UNL     1     -11.455  16.004  71.238  1.00  0.00    -0.417 C  
HETATM    8  N   UNL     1     -10.831  16.189  69.918  1.00  0.00    -0.338 NA 
ENDROOT
BRANCH   2   9
HETATM    9  C   UNL     1     -12.454  12.266  70.811  1.00  0.00    -0.356 A  
HETATM   10  C   UNL     1     -11.603  11.380  70.126  1.00  0.00    -0.368 A  
HETATM   11  C   UNL     1     -13.329  11.720  71.771  1.00  0.00    -0.342 A  
HETATM   12  C   UNL     1     -12.522   9.492  71.309  1.00  0.00    -0.346 A  
HETATM   13  C   UNL     1     -11.635  10.004  70.369  1.00  0.00    -0.379 A  
HETATM   14 BR   UNL     1     -12.590   7.628  71.615  1.00  0.00    -0.379 Br 
HETATM   15  C   UNL     1     -13.366  10.343  72.016  1.00  0.00    -0.440 A  
ENDBRANCH   2   9
BRANCH   8  16
HETATM   16  C   UNL     1      -9.419  15.765  69.924  1.00  0.00     0.025 C  
BRANCH  16  17
HETATM   17  C   UNL     1      -8.462  16.745  69.238  1.00  0.00     0.037 C  
BRANCH  17  18
HETATM   18  C   UNL     1      -7.558  16.065  68.210  1.00  0.00    -0.137 C  
BRANCH  18  19
HETATM   19  C   UNL     1      -7.433  16.898  66.950  1.00  0.00    -0.219 C  
HETATM   20  O   UNL     1      -6.391  16.974  66.302  1.00  0.00    -0.214 OA 
BRANCH  19  21
HETATM   21  C   UNL     1      -8.613  17.691  66.510  1.00  0.00    -0.287 A  
HETATM   22  C   UNL     1      -8.497  19.087  66.490  1.00  0.00    -0.320 A  
HETATM   23  C   UNL     1      -9.580  19.875  66.102  1.00  0.00    -0.492 A  
HETATM   24  C   UNL     1     -10.769  19.264  65.723  1.00  0.00    -0.330 A  
HETATM   25  F   UNL     1     -11.809  20.022  65.348  1.00  0.00     0.508 F  
HETATM   26  C   UNL     1     -10.896  17.878  65.723  1.00  0.00     0.047 A  
HETATM   27  C   UNL     1      -9.816  17.087  66.119  1.00  0.00    -0.297 A  
ENDBRANCH  19  21
ENDBRANCH  18  19
ENDBRANCH  17  18
ENDBRANCH  16  17
ENDBRANCH   8  16
TORSDOF 6
ENDMDL
MODEL      154
REMARK 921   NORMALIZED FREE ENERGY PREDICTED BY IDOCK:   -4.63 KCAL/MOL
REMARK 922        TOTAL FREE ENERGY PREDICTED BY IDOCK:   -7.46 KCAL/MOL
REMARK 923 INTER-LIGAND FREE ENERGY PREDICTED BY IDOCK:   -5.02 KCAL/MOL
REMARK 924 INTRA-LIGAND FREE ENERGY PREDICTED BY IDOCK:   -2.44 KCAL/MOL
REMARK 927      BINDING AFFINITY PREDICTED BY RF-SCORE:    0.00 PKD
ROOT
HETATM    1  O   UNL     1      -7.509  10.298  68.376  1.00  0.00    -0.086 OA 
HETATM    2  C   UNL     1      -8.135   9.058  68.752  1.00  0.00    -0.105 C  
HETATM    3  H   UNL     1      -7.314  10.777  69.173  1.00  0.00     0.000 HD 
HETATM    4  C   UNL     1      -8.451   8.281  67.460  1.00  0.00    -0.130 C  
HETATM    5  C   UNL     1      -7.152   8.287  69.657  1.00  0.00    -0.056 C  
HETATM    6  C   UNL     1      -7.181   7.743  66.797  1.00  0.00    -0.088 C  
HETATM    7  C   UNL     1      -5.960   7.728  68.878  1.00  0.00    -0.038 C  
HETATM    8  N   UNL     1      -6.342   6.939  67.696  1.00  0.00    -0.046 NA 
ENDROOT
BRANCH   2   9
HETATM    9  C   UNL     1      -9.419   9.391  69.524  1.00  0.00    -0.187 A  
HETATM   10  C   UNL     1     -10.516   9.999  68.889  1.00  0.00    -0.229 A  
HETATM   11  C   UNL     1      -9.530   9.121  70.903  1.00  0.00    -0.343 A  
HETATM   12  C   UNL     1     -11.743  10.085  70.962  1.00  0.00    -0.392 A  
HETATM   13  C   UNL     1     -11.669  10.345  69.599  1.00  0.00    -0.283 A  
HETATM   14 BR   UNL     1     -13.288  10.582  71.930  1.00  0.00    -0.359 Br 
HETATM   15  C   UNL     1     -10.682   9.468  71.618  1.00  0.00    -0.164 A  
ENDBRANCH   2   9
BRANCH   8  16
HETATM   16  C   UNL     1      -6.942   5.648  68.079  1.00  0.00    -0.066 C  
BRANCH  16  17
HETATM   17  C   UNL     1      -6.233   4.942  69.240  1.00  0.00    -0.030 C  
BRANCH  17  18
HETATM   18  C   UNL     1      -7.119   4.810  70.478  1.00  0.00    -0.048 C  
BRANCH  18  19
HETATM   19  C   UNL     1      -8.462   4.198  70.131  1.00  0.00    -0.064 C  
HETATM   20  O   UNL     1      -8.576   3.086  69.620  1.00  0.00    -0.058 OA 
BRANCH  19  21
HETATM   21  C   UNL     1      -9.689   5.004  70.382  1.00  0.00    -0.280 A  
HETATM   22  C   UNL     1     -10.129   5.137  71.706  1.00  0.00    -0.260 A  
HETATM   23  C   UNL     1     -11.281   5.867  71.992  1.00  0.00    -0.330 A  
HETATM   24  C   UNL     1     -11.982   6.471  70.955  1.00  0.00    -0.291 A  
HETATM   25  F   UNL     1     -13.089   7.175  71.231  1.00  0.00    -0.393 F  
HETATM   26  C   UNL     1     -11.551   6.361  69.637  1.00  0.00    -0.351 A  
HETATM   27  C   UNL     1     -10.401   5.625  69.346  1.00  0.00    -0.343 A  
ENDBRANCH  19  21
ENDBRANCH  18  19
ENDBRANCH  17  18
ENDBRANCH  16  17
ENDBRANCH   8  16
TORSDOF 6
ENDMDL
MODEL      155
REMARK 921   NORMALIZED FREE ENERGY PREDICTED BY IDOCK:   -4.62 KCAL/MOL
REMARK 922        TOTAL FREE ENERGY PREDICTED BY IDOCK:   -7.46 KCAL/MOL
REMARK 923 INTER-LIGAND FREE ENERGY PREDICTED BY IDOCK:   -6.32 KCAL/MOL
REMARK 924 INTRA-LIGAND FREE ENERGY PREDICTED BY IDOCK:   -1.14 KCAL/MOL
REMARK 927      BINDING AFFINITY PREDICTED BY RF-SCORE:    0.00 PKD
ROOT
HETATM    1  O   UNL     1      -6.670   8.499  63.891  1.00  0.00    -0.075 OA 
HETATM    2  C   UNL     1      -7.686   8.453  64.909  1.00  0.00    -0.106 C  
HETATM    3  H   UNL     1      -6.293   9.372  63.897  1.00  0.00     0.000 HD 
HETATM    4  C   UNL     1      -8.298   7.039  64.898  1.00  0.00    -0.016 C  
HETATM    5  C   UNL     1      -7.016   8.776  66.260  1.00  0.00    -0.081 C  
HETATM    6  C   UNL     1      -7.324   5.997  65.451  1.00  0.00    -0.076 C  
HETATM    7  C   UNL     1      -6.126   7.635  66.757  1.00  0.00    -0.048 C  
HETATM    8  N   UNL     1      -6.800   6.327  66.784  1.00  0.00    -0.060 NA 
ENDROOT
BRANCH   2   9
HETATM    9  C   UNL     1      -8.743   9.515  64.573  1.00  0.00    -0.232 A  
HETATM   10  C   UNL     1      -9.661   9.962  65.539  1.00  0.00    -0.370 A  
HETATM   11  C   UNL     1      -8.843  10.057  63.276  1.00  0.00    -0.246 A  
HETATM   12  C   UNL     1     -10.740  11.399  63.932  1.00  0.00    -0.397 A  
HETATM   13  C   UNL     1     -10.653  10.895  65.225  1.00  0.00    -0.259 A  
HETATM   14 BR   UNL     1     -12.102  12.635  63.497  1.00  0.00    -0.638 Br 
HETATM   15  C   UNL     1      -9.836  10.990  62.957  1.00  0.00    -0.370 A  
ENDBRANCH   2   9
BRANCH   8  16
HETATM   16  C   UNL     1      -7.809   6.262  67.857  1.00  0.00    -0.103 C  
BRANCH  16  17
HETATM   17  C   UNL     1      -8.801   5.102  67.721  1.00  0.00    -0.106 C  
BRANCH  17  18
HETATM   18  C   UNL     1     -10.232   5.506  68.077  1.00  0.00    -0.233 C  
BRANCH  18  19
HETATM   19  C   UNL     1     -10.448   5.505  69.577  1.00  0.00    -0.297 C  
HETATM   20  O   UNL     1     -10.257   4.514  70.278  1.00  0.00    -0.219 OA 
BRANCH  19  21
HETATM   21  C   UNL     1     -10.956   6.751  70.215  1.00  0.00    -0.339 A  
HETATM   22  C   UNL     1     -10.500   7.978  69.716  1.00  0.00    -0.227 A  
HETATM   23  C   UNL     1     -10.934   9.173  70.290  1.00  0.00    -0.279 A  
HETATM   24  C   UNL     1     -11.829   9.135  71.352  1.00  0.00    -0.345 A  
HETATM   25  F   UNL     1     -12.246  10.284  71.902  1.00  0.00    -0.448 F  
HETATM   26  C   UNL     1     -12.302   7.925  71.850  1.00  0.00    -0.350 A  
HETATM   27  C   UNL     1     -11.865   6.727  71.282  1.00  0.00    -0.396 A  
ENDBRANCH  19  21
ENDBRANCH  18  19
ENDBRANCH  17  18
ENDBRANCH  16  17
ENDBRANCH   8  16
TORSDOF 6
ENDMDL
MODEL      156
REMARK 921   NORMALIZED FREE ENERGY PREDICTED BY IDOCK:   -4.61 KCAL/MOL
REMARK 922        TOTAL FREE ENERGY PREDICTED BY IDOCK:   -7.45 KCAL/MOL
REMARK 923 INTER-LIGAND FREE ENERGY PREDICTED BY IDOCK:   -6.25 KCAL/MOL
REMARK 924 INTRA-LIGAND FREE ENERGY PREDICTED BY IDOCK:   -1.19 KCAL/MOL
REMARK 927      BINDING AFFINITY PREDICTED BY RF-SCORE:    0.00 PKD
ROOT
HETATM    1  O   UNL     1      -7.103   7.423  67.440  1.00  0.00    -0.079 OA 
HETATM    2  C   UNL     1      -8.503   7.194  67.681  1.00  0.00    -0.120 C  
HETATM    3  H   UNL     1      -7.016   7.790  66.568  1.00  0.00     0.000 HD 
HETATM    4  C   UNL     1      -8.644   6.598  69.095  1.00  0.00    -0.130 C  
HETATM    5  C   UNL     1      -9.232   8.547  67.555  1.00  0.00    -0.151 C  
HETATM    6  C   UNL     1      -8.358   7.640  70.179  1.00  0.00    -0.130 C  
HETATM    7  C   UNL     1      -8.935   9.481  68.731  1.00  0.00    -0.133 C  
HETATM    8  N   UNL     1      -9.159   8.864  70.047  1.00  0.00    -0.157 NA 
ENDROOT
BRANCH   2   9
HETATM    9  C   UNL     1      -9.012   6.214  66.616  1.00  0.00    -0.133 A  
HETATM   10  C   UNL     1     -10.278   5.609  66.726  1.00  0.00    -0.276 A  
HETATM   11  C   UNL     1      -8.219   5.869  65.504  1.00  0.00    -0.137 A  
HETATM   12  C   UNL     1      -9.913   4.346  64.705  1.00  0.00    -0.091 A  
HETATM   13  C   UNL     1     -10.727   4.682  65.781  1.00  0.00    -0.195 A  
HETATM   14 BR   UNL     1     -10.506   3.068  63.445  1.00  0.00    -0.233 Br 
HETATM   15  C   UNL     1      -8.664   4.940  64.557  1.00  0.00    -0.148 A  
ENDBRANCH   2   9
BRANCH   8  16
HETATM   16  C   UNL     1     -10.596   8.671  70.316  1.00  0.00    -0.223 C  
BRANCH  16  17
HETATM   17  C   UNL     1     -11.291   9.887  70.937  1.00  0.00    -0.446 C  
BRANCH  17  18
HETATM   18  C   UNL     1     -12.331  10.510  70.005  1.00  0.00    -0.290 C  
BRANCH  18  19
HETATM   19  C   UNL     1     -12.109  12.001  69.851  1.00  0.00    -0.263 C  
HETATM   20  O   UNL     1     -12.164  12.785  70.797  1.00  0.00    -0.367 OA 
BRANCH  19  21
HETATM   21  C   UNL     1     -11.858  12.538  68.486  1.00  0.00    -0.341 A  
HETATM   22  C   UNL     1     -11.601  11.622  67.456  1.00  0.00    -0.345 A  
HETATM   23  C   UNL     1     -11.344  12.076  66.163  1.00  0.00    -0.407 A  
HETATM   24  C   UNL     1     -11.355  13.440  65.902  1.00  0.00    -0.309 A  
HETATM   25  F   UNL     1     -11.108  13.875  64.658  1.00  0.00    -0.333 F  
HETATM   26  C   UNL     1     -11.622  14.362  66.910  1.00  0.00    -0.404 A  
HETATM   27  C   UNL     1     -11.874  13.912  68.207  1.00  0.00    -0.412 A  
ENDBRANCH  19  21
ENDBRANCH  18  19
ENDBRANCH  17  18
ENDBRANCH  16  17
ENDBRANCH   8  16
TORSDOF 6
ENDMDL
MODEL      157
REMARK 921   NORMALIZED FREE ENERGY PREDICTED BY IDOCK:   -4.56 KCAL/MOL
REMARK 922        TOTAL FREE ENERGY PREDICTED BY IDOCK:   -7.37 KCAL/MOL
REMARK 923 INTER-LIGAND FREE ENERGY PREDICTED BY IDOCK:   -5.87 KCAL/MOL
REMARK 924 INTRA-LIGAND FREE ENERGY PREDICTED BY IDOCK:   -1.49 KCAL/MOL
REMARK 927      BINDING AFFINITY PREDICTED BY RF-SCORE:    0.00 PKD
ROOT
HETATM    1  O   UNL     1      -8.706  10.788  64.710  1.00  0.00    -0.236 OA 
HETATM    2  C   UNL     1      -8.976  10.437  66.079  1.00  0.00    -0.159 C  
HETATM    3  H   UNL     1      -8.149  11.558  64.713  1.00  0.00     0.000 HD 
HETATM    4  C   UNL     1      -9.880   9.189  66.075  1.00  0.00    -0.342 C  
HETATM    5  C   UNL     1      -7.626  10.163  66.772  1.00  0.00    -0.105 C  
HETATM    6  C   UNL     1      -9.117   7.939  65.628  1.00  0.00     0.037 C  
HETATM    7  C   UNL     1      -6.989   8.850  66.308  1.00  0.00    -0.079 C  
HETATM    8  N   UNL     1      -7.891   7.691  66.398  1.00  0.00    -0.092 NA 
ENDROOT
BRANCH   2   9
HETATM    9  C   UNL     1      -9.682  11.627  66.743  1.00  0.00    -0.220 A  
HETATM   10  C   UNL     1     -11.018  11.537  67.173  1.00  0.00    -0.338 A  
HETATM   11  C   UNL     1      -9.021  12.859  66.921  1.00  0.00    -0.210 A  
HETATM   12  C   UNL     1     -11.006  13.841  67.881  1.00  0.00    -0.253 A  
HETATM   13  C   UNL     1     -11.678  12.632  67.737  1.00  0.00    -0.412 A  
HETATM   14 BR   UNL     1     -11.908  15.332  68.613  1.00  0.00    -0.278 Br 
HETATM   15  C   UNL     1      -9.678  13.959  67.483  1.00  0.00    -0.232 A  
ENDBRANCH   2   9
BRANCH   8  16
HETATM   16  C   UNL     1      -8.131   7.301  67.799  1.00  0.00    -0.115 C  
BRANCH  16  17
HETATM   17  C   UNL     1      -9.336   6.376  67.999  1.00  0.00    -0.115 C  
BRANCH  17  18
HETATM   18  C   UNL     1      -9.457   5.869  69.436  1.00  0.00    -0.157 C  
BRANCH  18  19
HETATM   19  C   UNL     1      -9.037   6.932  70.432  1.00  0.00    -0.156 C  
HETATM   20  O   UNL     1      -7.950   6.917  71.005  1.00  0.00    -0.100 OA 
BRANCH  19  21
HETATM   21  C   UNL     1     -10.008   8.012  70.759  1.00  0.00    -0.202 A  
HETATM   22  C   UNL     1     -11.042   7.718  71.658  1.00  0.00    -0.275 A  
HETATM   23  C   UNL     1     -11.985   8.691  71.983  1.00  0.00    -0.442 A  
HETATM   24  C   UNL     1     -11.886   9.957  71.418  1.00  0.00    -0.394 A  
HETATM   25  F   UNL     1     -12.793  10.892  71.733  1.00  0.00    -0.469 F  
HETATM   26  C   UNL     1     -10.857  10.270  70.535  1.00  0.00    -0.281 A  
HETATM   27  C   UNL     1      -9.914   9.296  70.201  1.00  0.00    -0.251 A  
ENDBRANCH  19  21
ENDBRANCH  18  19
ENDBRANCH  17  18
ENDBRANCH  16  17
ENDBRANCH   8  16
TORSDOF 6
ENDMDL
MODEL      158
REMARK 921   NORMALIZED FREE ENERGY PREDICTED BY IDOCK:   -4.55 KCAL/MOL
REMARK 922        TOTAL FREE ENERGY PREDICTED BY IDOCK:   -7.36 KCAL/MOL
REMARK 923 INTER-LIGAND FREE ENERGY PREDICTED BY IDOCK:   -6.76 KCAL/MOL
REMARK 924 INTRA-LIGAND FREE ENERGY PREDICTED BY IDOCK:   -0.60 KCAL/MOL
REMARK 927      BINDING AFFINITY PREDICTED BY RF-SCORE:    0.00 PKD
ROOT
HETATM    1  O   UNL     1     -10.723  17.531  67.586  1.00  0.00    -0.362 OA 
HETATM    2  C   UNL     1     -10.099  16.385  68.194  1.00  0.00    -0.251 C  
HETATM    3  H   UNL     1     -10.881  18.171  68.270  1.00  0.00     0.000 HD 
HETATM    4  C   UNL     1      -9.842  15.347  67.085  1.00  0.00    -0.221 C  
HETATM    5  C   UNL     1      -8.786  16.856  68.852  1.00  0.00    -0.216 C  
HETATM    6  C   UNL     1      -8.719  15.789  66.144  1.00  0.00    -0.258 C  
HETATM    7  C   UNL     1      -7.708  17.198  67.822  1.00  0.00    -0.177 C  
HETATM    8  N   UNL     1      -7.470  16.131  66.837  1.00  0.00    -0.228 NA 
ENDROOT
BRANCH   2   9
HETATM    9  C   UNL     1     -11.058  15.833  69.257  1.00  0.00    -0.297 A  
HETATM   10  C   UNL     1     -11.112  16.386  70.549  1.00  0.00    -0.214 A  
HETATM   11  C   UNL     1     -11.898  14.736  68.981  1.00  0.00    -0.337 A  
HETATM   12  C   UNL     1     -12.754  14.762  71.238  1.00  0.00    -0.336 A  
HETATM   13  C   UNL     1     -11.951  15.857  71.533  1.00  0.00    -0.537 A  
HETATM   14 BR   UNL     1     -13.864  14.025  72.579  1.00  0.00    -0.549 Br 
HETATM   15  C   UNL     1     -12.738  14.202  69.965  1.00  0.00    -0.155 A  
ENDBRANCH   2   9
BRANCH   8  16
HETATM   16  C   UNL     1      -6.789  14.975  67.449  1.00  0.00    -0.111 C  
BRANCH  16  17
HETATM   17  C   UNL     1      -7.725  13.830  67.851  1.00  0.00    -0.161 C  
BRANCH  17  18
HETATM   18  C   UNL     1      -7.145  12.454  67.526  1.00  0.00    -0.145 C  
BRANCH  18  19
HETATM   19  C   UNL     1      -8.231  11.486  67.097  1.00  0.00    -0.161 C  
HETATM   20  O   UNL     1      -8.329  11.062  65.948  1.00  0.00    -0.164 OA 
BRANCH  19  21
HETATM   21  C   UNL     1      -9.243  11.073  68.106  1.00  0.00    -0.165 A  
HETATM   22  C   UNL     1     -10.575  11.458  67.898  1.00  0.00    -0.224 A  
HETATM   23  C   UNL     1     -11.558  11.109  68.823  1.00  0.00    -0.389 A  
HETATM   24  C   UNL     1     -11.209  10.367  69.945  1.00  0.00    -0.306 A  
HETATM   25  F   UNL     1     -12.156  10.031  70.833  1.00  0.00    -0.334 F  
HETATM   26  C   UNL     1      -9.895   9.965  70.160  1.00  0.00    -0.272 A  
HETATM   27  C   UNL     1      -8.906  10.318  69.239  1.00  0.00    -0.186 A  
ENDBRANCH  19  21
ENDBRANCH  18  19
ENDBRANCH  17  18
ENDBRANCH  16  17
ENDBRANCH   8  16
TORSDOF 6
ENDMDL
MODEL      159
REMARK 921   NORMALIZED FREE ENERGY PREDICTED BY IDOCK:   -4.54 KCAL/MOL
REMARK 922        TOTAL FREE ENERGY PREDICTED BY IDOCK:   -7.34 KCAL/MOL
REMARK 923 INTER-LIGAND FREE ENERGY PREDICTED BY IDOCK:   -5.39 KCAL/MOL
REMARK 924 INTRA-LIGAND FREE ENERGY PREDICTED BY IDOCK:   -1.95 KCAL/MOL
REMARK 927      BINDING AFFINITY PREDICTED BY RF-SCORE:    0.00 PKD
ROOT
HETATM    1  O   UNL     1     -12.722  14.120  69.221  1.00  0.00    -0.440 OA 
HETATM    2  C   UNL     1     -11.429  14.040  68.594  1.00  0.00    -0.302 C  
HETATM    3  H   UNL     1     -12.707  13.557  69.987  1.00  0.00     0.000 HD 
HETATM    4  C   UNL     1     -11.452  14.951  67.352  1.00  0.00    -0.354 C  
HETATM    5  C   UNL     1     -10.376  14.501  69.623  1.00  0.00     0.043 C  
HETATM    6  C   UNL     1     -11.467  16.432  67.737  1.00  0.00     0.068 C  
HETATM    7  C   UNL     1     -10.429  16.010  69.874  1.00  0.00    -0.287 C  
HETATM    8  N   UNL     1     -10.377  16.817  68.645  1.00  0.00    -0.296 NA 
ENDROOT
BRANCH   2   9
HETATM    9  C   UNL     1     -11.182  12.577  68.201  1.00  0.00    -0.312 A  
HETATM   10  C   UNL     1     -11.189  11.552  69.164  1.00  0.00    -0.337 A  
HETATM   11  C   UNL     1     -10.915  12.216  66.866  1.00  0.00    -0.317 A  
HETATM   12  C   UNL     1     -10.640   9.901  67.495  1.00  0.00    -0.275 A  
HETATM   13  C   UNL     1     -10.919  10.225  68.818  1.00  0.00    -0.285 A  
HETATM   14 BR   UNL     1     -10.243   8.113  67.031  1.00  0.00    -0.395 Br 
HETATM   15  C   UNL     1     -10.643  10.889  66.515  1.00  0.00    -0.295 A  
ENDBRANCH   2   9
BRANCH   8  16
HETATM   16  C   UNL     1      -9.039  16.774  68.026  1.00  0.00    -0.228 C  
BRANCH  16  17
HETATM   17  C   UNL     1      -7.898  16.491  69.009  1.00  0.00    -0.226 C  
BRANCH  17  18
HETATM   18  C   UNL     1      -6.755  15.701  68.372  1.00  0.00    -0.116 C  
BRANCH  18  19
HETATM   19  C   UNL     1      -7.232  14.354  67.866  1.00  0.00    -0.160 C  
HETATM   20  O   UNL     1      -7.912  14.226  66.851  1.00  0.00    -0.069 OA 
BRANCH  19  21
HETATM   21  C   UNL     1      -6.894  13.143  68.664  1.00  0.00    -0.099 A  
HETATM   22  C   UNL     1      -7.538  11.942  68.339  1.00  0.00    -0.120 A  
HETATM   23  C   UNL     1      -7.269  10.783  69.067  1.00  0.00    -0.096 A  
HETATM   24  C   UNL     1      -6.349  10.828  70.107  1.00  0.00    -0.147 A  
HETATM   25  F   UNL     1      -6.090   9.713  70.806  1.00  0.00    -0.054 F  
HETATM   26  C   UNL     1      -5.690  12.009  70.433  1.00  0.00    -0.168 A  
HETATM   27  C   UNL     1      -5.963  13.173  69.711  1.00  0.00    -0.127 A  
ENDBRANCH  19  21
ENDBRANCH  18  19
ENDBRANCH  17  18
ENDBRANCH  16  17
ENDBRANCH   8  16
TORSDOF 6
ENDMDL
MODEL      160
REMARK 921   NORMALIZED FREE ENERGY PREDICTED BY IDOCK:   -4.52 KCAL/MOL
REMARK 922        TOTAL FREE ENERGY PREDICTED BY IDOCK:   -7.32 KCAL/MOL
REMARK 923 INTER-LIGAND FREE ENERGY PREDICTED BY IDOCK:   -6.49 KCAL/MOL
REMARK 924 INTRA-LIGAND FREE ENERGY PREDICTED BY IDOCK:   -0.83 KCAL/MOL
REMARK 927      BINDING AFFINITY PREDICTED BY RF-SCORE:    0.00 PKD
ROOT
HETATM    1  O   UNL     1     -12.030   7.207  69.855  1.00  0.00    -0.558 OA 
HETATM    2  C   UNL     1     -10.647   7.586  69.972  1.00  0.00    -0.237 C  
HETATM    3  H   UNL     1     -12.367   7.064  70.732  1.00  0.00     0.000 HD 
HETATM    4  C   UNL     1     -10.101   7.817  68.550  1.00  0.00    -0.216 C  
HETATM    5  C   UNL     1     -10.580   8.869  70.826  1.00  0.00    -0.281 C  
HETATM    6  C   UNL     1     -10.672   9.092  67.925  1.00  0.00    -0.162 C  
HETATM    7  C   UNL     1     -11.103  10.096  70.077  1.00  0.00    -0.308 C  
HETATM    8  N   UNL     1     -10.485  10.290  68.755  1.00  0.00    -0.191 NA 
ENDROOT
BRANCH   2   9
HETATM    9  C   UNL     1      -9.900   6.443  70.672  1.00  0.00    -0.206 A  
HETATM   10  C   UNL     1     -10.448   5.149  70.745  1.00  0.00    -0.263 A  
HETATM   11  C   UNL     1      -8.650   6.657  71.286  1.00  0.00    -0.126 A  
HETATM   12  C   UNL     1      -8.569   4.363  72.034  1.00  0.00    -0.112 A  
HETATM   13  C   UNL     1      -9.792   4.117  71.420  1.00  0.00    -0.254 A  
HETATM   14 BR   UNL     1      -7.697   2.976  72.976  1.00  0.00    -0.056 Br 
HETATM   15  C   UNL     1      -7.991   5.626  71.965  1.00  0.00    -0.107 A  
ENDBRANCH   2   9
BRANCH   8  16
HETATM   16  C   UNL     1      -9.081  10.724  68.874  1.00  0.00    -0.164 C  
BRANCH  16  17
HETATM   17  C   UNL     1      -8.721  11.939  68.012  1.00  0.00    -0.173 C  
BRANCH  17  18
HETATM   18  C   UNL     1      -9.496  13.194  68.410  1.00  0.00    -0.166 C  
BRANCH  18  19
HETATM   19  C   UNL     1     -10.180  13.822  67.211  1.00  0.00    -0.253 C  
HETATM   20  O   UNL     1     -10.610  13.163  66.268  1.00  0.00    -0.278 OA 
BRANCH  19  21
HETATM   21  C   UNL     1     -10.293  15.306  67.163  1.00  0.00    -0.265 A  
HETATM   22  C   UNL     1     -10.325  16.003  68.378  1.00  0.00    -0.251 A  
HETATM   23  C   UNL     1     -10.446  17.392  68.386  1.00  0.00    -0.384 A  
HETATM   24  C   UNL     1     -10.522  18.079  67.180  1.00  0.00    -0.367 A  
HETATM   25  F   UNL     1     -10.637  19.414  67.189  1.00  0.00    -0.447 F  
HETATM   26  C   UNL     1     -10.477  17.403  65.965  1.00  0.00    -0.278 A  
HETATM   27  C   UNL     1     -10.363  16.011  65.953  1.00  0.00    -0.386 A  
ENDBRANCH  19  21
ENDBRANCH  18  19
ENDBRANCH  17  18
ENDBRANCH  16  17
ENDBRANCH   8  16
TORSDOF 6
ENDMDL
MODEL      161
REMARK 921   NORMALIZED FREE ENERGY PREDICTED BY IDOCK:   -4.52 KCAL/MOL
REMARK 922        TOTAL FREE ENERGY PREDICTED BY IDOCK:   -7.32 KCAL/MOL
REMARK 923 INTER-LIGAND FREE ENERGY PREDICTED BY IDOCK:   -6.48 KCAL/MOL
REMARK 924 INTRA-LIGAND FREE ENERGY PREDICTED BY IDOCK:   -0.84 KCAL/MOL
REMARK 927      BINDING AFFINITY PREDICTED BY RF-SCORE:    0.00 PKD
ROOT
HETATM    1  O   UNL     1      -7.044   7.226  67.250  1.00  0.00    -0.085 OA 
HETATM    2  C   UNL     1      -8.439   7.044  67.554  1.00  0.00    -0.122 C  
HETATM    3  H   UNL     1      -6.981   7.535  66.353  1.00  0.00     0.000 HD 
HETATM    4  C   UNL     1      -8.541   6.544  69.008  1.00  0.00    -0.125 C  
HETATM    5  C   UNL     1      -9.144   8.403  67.366  1.00  0.00    -0.152 C  
HETATM    6  C   UNL     1      -8.194   7.646  70.011  1.00  0.00    -0.125 C  
HETATM    7  C   UNL     1      -8.786   9.403  68.467  1.00  0.00    -0.128 C  
HETATM    8  N   UNL     1      -8.974   8.877  69.829  1.00  0.00    -0.144 NA 
ENDROOT
BRANCH   2   9
HETATM    9  C   UNL     1      -9.007   6.010  66.573  1.00  0.00    -0.137 A  
HETATM   10  C   UNL     1      -8.192   5.402  65.600  1.00  0.00    -0.124 A  
HETATM   11  C   UNL     1     -10.370   5.656  66.597  1.00  0.00    -0.311 A  
HETATM   12  C   UNL     1     -10.069   4.178  64.711  1.00  0.00    -0.192 A  
HETATM   13  C   UNL     1      -8.716   4.495  64.676  1.00  0.00    -0.147 A  
HETATM   14 BR   UNL     1     -10.784   2.976  63.440  1.00  0.00    -0.221 Br 
HETATM   15  C   UNL     1     -10.899   4.748  65.671  1.00  0.00    -0.117 A  
ENDBRANCH   2   9
BRANCH   8  16
HETATM   16  C   UNL     1     -10.404   8.734  70.159  1.00  0.00    -0.208 C  
BRANCH  16  17
HETATM   17  C   UNL     1     -10.992   9.912  70.943  1.00  0.00    -0.392 C  
BRANCH  17  18
HETATM   18  C   UNL     1     -12.198  10.540  70.246  1.00  0.00    -0.393 C  
BRANCH  18  19
HETATM   19  C   UNL     1     -12.685  11.769  70.989  1.00  0.00    -0.275 C  
HETATM   20  O   UNL     1     -13.359  11.705  72.015  1.00  0.00    -0.481 OA 
BRANCH  19  21
HETATM   21  C   UNL     1     -12.368  13.107  70.420  1.00  0.00    -0.351 A  
HETATM   22  C   UNL     1     -11.751  13.157  69.162  1.00  0.00    -0.376 A  
HETATM   23  C   UNL     1     -11.419  14.386  68.593  1.00  0.00    -0.316 A  
HETATM   24  C   UNL     1     -11.714  15.559  69.277  1.00  0.00    -0.365 A  
HETATM   25  F   UNL     1     -11.395  16.739  68.729  1.00  0.00    -0.299 F  
HETATM   26  C   UNL     1     -12.339  15.527  70.520  1.00  0.00    -0.461 A  
HETATM   27  C   UNL     1     -12.667  14.298  71.096  1.00  0.00    -0.430 A  
ENDBRANCH  19  21
ENDBRANCH  18  19
ENDBRANCH  17  18
ENDBRANCH  16  17
ENDBRANCH   8  16
TORSDOF 6
ENDMDL
MODEL      162
REMARK 921   NORMALIZED FREE ENERGY PREDICTED BY IDOCK:   -4.48 KCAL/MOL
REMARK 922        TOTAL FREE ENERGY PREDICTED BY IDOCK:   -7.26 KCAL/MOL
REMARK 923 INTER-LIGAND FREE ENERGY PREDICTED BY IDOCK:   -6.59 KCAL/MOL
REMARK 924 INTRA-LIGAND FREE ENERGY PREDICTED BY IDOCK:   -0.67 KCAL/MOL
REMARK 927      BINDING AFFINITY PREDICTED BY RF-SCORE:    0.00 PKD
ROOT
HETATM    1  O   UNL     1      -9.538   3.781  67.705  1.00  0.00    -0.191 OA 
HETATM    2  C   UNL     1      -9.446   4.915  68.585  1.00  0.00    -0.144 C  
HETATM    3  H   UNL     1     -10.392   3.385  67.830  1.00  0.00     0.000 HD 
HETATM    4  C   UNL     1      -8.061   5.557  68.382  1.00  0.00    -0.099 C  
HETATM    5  C   UNL     1     -10.586   5.888  68.222  1.00  0.00    -0.310 C  
HETATM    6  C   UNL     1      -7.958   6.265  67.029  1.00  0.00    -0.109 C  
HETATM    7  C   UNL     1     -10.344   6.599  66.888  1.00  0.00    -0.254 C  
HETATM    8  N   UNL     1      -9.026   7.246  66.795  1.00  0.00    -0.131 NA 
ENDROOT
BRANCH   2   9
HETATM    9  C   UNL     1      -9.616   4.412  70.025  1.00  0.00    -0.273 A  
HETATM   10  C   UNL     1      -9.500   3.046  70.340  1.00  0.00    -0.218 A  
HETATM   11  C   UNL     1      -9.920   5.300  71.076  1.00  0.00    -0.266 A  
HETATM   12  C   UNL     1     -10.017   3.476  72.654  1.00  0.00    -0.160 A  
HETATM   13  C   UNL     1      -9.699   2.579  71.641  1.00  0.00    -0.222 A  
HETATM   14 BR   UNL     1     -10.319   2.841  74.409  1.00  0.00    -0.210 Br 
HETATM   15  C   UNL     1     -10.122   4.836  72.381  1.00  0.00    -0.235 A  
ENDBRANCH   2   9
BRANCH   8  16
HETATM   16  C   UNL     1      -8.946   8.437  67.661  1.00  0.00    -0.135 C  
BRANCH  16  17
HETATM   17  C   UNL     1     -10.016   9.497  67.377  1.00  0.00    -0.241 C  
BRANCH  17  18
HETATM   18  C   UNL     1      -9.516  10.919  67.627  1.00  0.00    -0.170 C  
BRANCH  18  19
HETATM   19  C   UNL     1     -10.650  11.923  67.550  1.00  0.00    -0.219 C  
HETATM   20  O   UNL     1     -10.976  12.482  66.505  1.00  0.00    -0.251 OA 
BRANCH  19  21
HETATM   21  C   UNL     1     -11.365  12.274  68.807  1.00  0.00    -0.337 A  
HETATM   22  C   UNL     1     -11.646  11.242  69.714  1.00  0.00    -0.408 A  
HETATM   23  C   UNL     1     -12.328  11.517  70.898  1.00  0.00    -0.460 A  
HETATM   24  C   UNL     1     -12.716  12.821  71.177  1.00  0.00    -0.263 A  
HETATM   25  F   UNL     1     -13.371  13.084  72.317  1.00  0.00    -0.525 F  
HETATM   26  C   UNL     1     -12.432  13.859  70.295  1.00  0.00    -0.380 A  
HETATM   27  C   UNL     1     -11.755  13.587  69.105  1.00  0.00    -0.374 A  
ENDBRANCH  19  21
ENDBRANCH  18  19
ENDBRANCH  17  18
ENDBRANCH  16  17
ENDBRANCH   8  16
TORSDOF 6
ENDMDL
MODEL      163
REMARK 921   NORMALIZED FREE ENERGY PREDICTED BY IDOCK:   -4.47 KCAL/MOL
REMARK 922        TOTAL FREE ENERGY PREDICTED BY IDOCK:   -7.24 KCAL/MOL
REMARK 923 INTER-LIGAND FREE ENERGY PREDICTED BY IDOCK:   -5.87 KCAL/MOL
REMARK 924 INTRA-LIGAND FREE ENERGY PREDICTED BY IDOCK:   -1.38 KCAL/MOL
REMARK 927      BINDING AFFINITY PREDICTED BY RF-SCORE:    0.00 PKD
ROOT
HETATM    1  O   UNL     1      -9.263   7.099  70.086  1.00  0.00    -0.155 OA 
HETATM    2  C   UNL     1      -9.305   7.825  68.845  1.00  0.00    -0.146 C  
HETATM    3  H   UNL     1      -8.502   6.529  70.062  1.00  0.00     0.000 HD 
HETATM    4  C   UNL     1     -10.538   8.748  68.882  1.00  0.00    -0.178 C  
HETATM    5  C   UNL     1      -7.994   8.628  68.723  1.00  0.00    -0.114 C  
HETATM    6  C   UNL     1     -10.348   9.909  69.861  1.00  0.00    -0.258 C  
HETATM    7  C   UNL     1      -7.943   9.811  69.692  1.00  0.00    -0.150 C  
HETATM    8  N   UNL     1      -9.124  10.686  69.622  1.00  0.00     0.040 NA 
ENDROOT
BRANCH   2   9
HETATM    9  C   UNL     1      -9.412   6.806  67.702  1.00  0.00    -0.126 A  
HETATM   10  C   UNL     1      -8.278   6.409  66.970  1.00  0.00    -0.113 A  
HETATM   11  C   UNL     1     -10.654   6.254  67.333  1.00  0.00    -0.361 A  
HETATM   12  C   UNL     1      -9.621   5.002  65.546  1.00  0.00    -0.089 A  
HETATM   13  C   UNL     1      -8.379   5.516  65.900  1.00  0.00    -0.125 A  
HETATM   14 BR   UNL     1      -9.762   3.820  64.078  1.00  0.00    -0.177 Br 
HETATM   15  C   UNL     1     -10.759   5.360  66.260  1.00  0.00    -0.234 A  
ENDBRANCH   2   9
BRANCH   8  16
HETATM   16  C   UNL     1      -9.145  11.466  68.371  1.00  0.00    -0.179 C  
BRANCH  16  17
HETATM   17  C   UNL     1     -10.331  12.428  68.246  1.00  0.00    -0.232 C  
BRANCH  17  18
HETATM   18  C   UNL     1     -10.356  13.161  66.905  1.00  0.00    -0.247 C  
BRANCH  18  19
HETATM   19  C   UNL     1     -11.166  12.398  65.875  1.00  0.00    -0.336 C  
HETATM   20  O   UNL     1     -12.386  12.501  65.778  1.00  0.00    -0.627 OA 
BRANCH  19  21
HETATM   21  C   UNL     1     -10.449  11.452  64.977  1.00  0.00    -0.361 A  
HETATM   22  C   UNL     1     -10.501  11.689  63.597  1.00  0.00    -0.483 A  
HETATM   23  C   UNL     1      -9.859  10.823  62.712  1.00  0.00    -0.239 A  
HETATM   24  C   UNL     1      -9.160   9.730  63.211  1.00  0.00    -0.237 A  
HETATM   25  F   UNL     1      -8.543   8.899  62.360  1.00  0.00    -0.180 F  
HETATM   26  C   UNL     1      -9.087   9.489  64.580  1.00  0.00    -0.250 A  
HETATM   27  C   UNL     1      -9.734  10.351  65.468  1.00  0.00    -0.307 A  
ENDBRANCH  19  21
ENDBRANCH  18  19
ENDBRANCH  17  18
ENDBRANCH  16  17
ENDBRANCH   8  16
TORSDOF 6
ENDMDL
MODEL      164
REMARK 921   NORMALIZED FREE ENERGY PREDICTED BY IDOCK:   -4.46 KCAL/MOL
REMARK 922        TOTAL FREE ENERGY PREDICTED BY IDOCK:   -7.23 KCAL/MOL
REMARK 923 INTER-LIGAND FREE ENERGY PREDICTED BY IDOCK:   -6.33 KCAL/MOL
REMARK 924 INTRA-LIGAND FREE ENERGY PREDICTED BY IDOCK:   -0.90 KCAL/MOL
REMARK 927      BINDING AFFINITY PREDICTED BY RF-SCORE:    0.00 PKD
ROOT
HETATM    1  O   UNL     1     -12.539   9.328  72.358  1.00  0.00    -0.351 OA 
HETATM    2  C   UNL     1     -11.480   8.898  71.483  1.00  0.00    -0.321 C  
HETATM    3  H   UNL     1     -13.311   9.482  71.825  1.00  0.00     0.000 HD 
HETATM    4  C   UNL     1     -10.230   8.649  72.347  1.00  0.00    -0.319 C  
HETATM    5  C   UNL     1     -11.949   7.613  70.771  1.00  0.00    -0.192 C  
HETATM    6  C   UNL     1     -10.380   7.397  73.213  1.00  0.00    -0.355 C  
HETATM    7  C   UNL     1     -11.989   6.407  71.712  1.00  0.00    -0.316 C  
HETATM    8  N   UNL     1     -10.735   6.192  72.451  1.00  0.00    -0.221 NA 
ENDROOT
BRANCH   2   9
HETATM    9  C   UNL     1     -11.231  10.013  70.458  1.00  0.00    -0.408 A  
HETATM   10  C   UNL     1     -10.190   9.919  69.516  1.00  0.00    -0.243 A  
HETATM   11  C   UNL     1     -12.021  11.179  70.443  1.00  0.00    -0.469 A  
HETATM   12  C   UNL     1     -10.716  12.099  68.632  1.00  0.00    -0.233 A  
HETATM   13  C   UNL     1      -9.931  10.952  68.611  1.00  0.00    -0.196 A  
HETATM   14 BR   UNL     1     -10.345  13.510  67.431  1.00  0.00    -0.237 Br 
HETATM   15  C   UNL     1     -11.764  12.216  69.539  1.00  0.00    -0.402 A  
ENDBRANCH   2   9
BRANCH   8  16
HETATM   16  C   UNL     1      -9.662   5.706  71.565  1.00  0.00    -0.161 C  
BRANCH  16  17
HETATM   17  C   UNL     1     -10.048   4.494  70.711  1.00  0.00    -0.233 C  
BRANCH  17  18
HETATM   18  C   UNL     1      -9.964   4.779  69.211  1.00  0.00    -0.254 C  
BRANCH  18  19
HETATM   19  C   UNL     1      -9.198   3.691  68.486  1.00  0.00    -0.161 C  
HETATM   20  O   UNL     1      -8.394   2.952  69.050  1.00  0.00    -0.058 OA 
BRANCH  19  21
HETATM   21  C   UNL     1      -9.400   3.547  67.018  1.00  0.00    -0.221 A  
HETATM   22  C   UNL     1      -8.847   2.425  66.385  1.00  0.00    -0.135 A  
HETATM   23  C   UNL     1      -8.995   2.253  65.009  1.00  0.00    -0.126 A  
HETATM   24  C   UNL     1      -9.704   3.195  64.274  1.00  0.00    -0.156 A  
HETATM   25  F   UNL     1      -9.847   3.028  62.952  1.00  0.00    -0.093 F  
HETATM   26  C   UNL     1     -10.272   4.306  64.890  1.00  0.00    -0.193 A  
HETATM   27  C   UNL     1     -10.120   4.486  66.266  1.00  0.00    -0.280 A  
ENDBRANCH  19  21
ENDBRANCH  18  19
ENDBRANCH  17  18
ENDBRANCH  16  17
ENDBRANCH   8  16
TORSDOF 6
ENDMDL
MODEL      165
REMARK 921   NORMALIZED FREE ENERGY PREDICTED BY IDOCK:   -4.44 KCAL/MOL
REMARK 922        TOTAL FREE ENERGY PREDICTED BY IDOCK:   -7.21 KCAL/MOL
REMARK 923 INTER-LIGAND FREE ENERGY PREDICTED BY IDOCK:   -6.39 KCAL/MOL
REMARK 924 INTRA-LIGAND FREE ENERGY PREDICTED BY IDOCK:   -0.82 KCAL/MOL
REMARK 927      BINDING AFFINITY PREDICTED BY RF-SCORE:    0.00 PKD
ROOT
HETATM    1  O   UNL     1      -7.941   7.803  67.794  1.00  0.00    -0.120 OA 
HETATM    2  C   UNL     1      -8.681   7.906  66.564  1.00  0.00    -0.147 C  
HETATM    3  H   UNL     1      -7.041   7.589  67.574  1.00  0.00     0.000 HD 
HETATM    4  C   UNL     1     -10.139   8.252  66.921  1.00  0.00    -0.366 C  
HETATM    5  C   UNL     1      -8.025   9.009  65.709  1.00  0.00    -0.103 C  
HETATM    6  C   UNL     1     -10.272   9.689  67.430  1.00  0.00    -0.227 C  
HETATM    7  C   UNL     1      -8.286  10.411  66.266  1.00  0.00    -0.144 C  
HETATM    8  N   UNL     1      -9.708  10.692  66.517  1.00  0.00    -0.187 NA 
ENDROOT
BRANCH   2   9
HETATM    9  C   UNL     1      -8.594   6.554  65.844  1.00  0.00    -0.153 A  
HETATM   10  C   UNL     1      -8.994   5.363  66.477  1.00  0.00    -0.120 A  
HETATM   11  C   UNL     1      -8.087   6.458  64.533  1.00  0.00    -0.088 A  
HETATM   12  C   UNL     1      -8.351   4.058  64.554  1.00  0.00    -0.099 A  
HETATM   13  C   UNL     1      -8.873   4.124  65.841  1.00  0.00    -0.121 A  
HETATM   14 BR   UNL     1      -8.157   2.381  63.706  1.00  0.00    -0.082 Br 
HETATM   15  C   UNL     1      -7.963   5.220  63.893  1.00  0.00    -0.105 A  
ENDBRANCH   2   9
BRANCH   8  16
HETATM   16  C   UNL     1     -10.459  10.845  65.257  1.00  0.00    -0.230 C  
BRANCH  16  17
HETATM   17  C   UNL     1     -11.122  12.215  65.080  1.00  0.00    -0.368 C  
BRANCH  17  18
HETATM   18  C   UNL     1     -11.871  12.673  66.331  1.00  0.00    -0.466 C  
BRANCH  18  19
HETATM   19  C   UNL     1     -11.555  14.118  66.664  1.00  0.00    -0.384 C  
HETATM   20  O   UNL     1     -11.246  14.946  65.810  1.00  0.00    -0.335 OA 
BRANCH  19  21
HETATM   21  C   UNL     1     -11.579  14.532  68.093  1.00  0.00    -0.359 A  
HETATM   22  C   UNL     1     -12.060  13.614  69.036  1.00  0.00    -0.348 A  
HETATM   23  C   UNL     1     -12.118  13.960  70.385  1.00  0.00    -0.421 A  
HETATM   24  C   UNL     1     -11.685  15.218  70.788  1.00  0.00    -0.337 A  
HETATM   25  F   UNL     1     -11.740  15.549  72.086  1.00  0.00    -0.396 F  
HETATM   26  C   UNL     1     -11.191  16.136  69.866  1.00  0.00    -0.349 A  
HETATM   27  C   UNL     1     -11.138  15.795  68.514  1.00  0.00    -0.335 A  
ENDBRANCH  19  21
ENDBRANCH  18  19
ENDBRANCH  17  18
ENDBRANCH  16  17
ENDBRANCH   8  16
TORSDOF 6
ENDMDL
MODEL      166
REMARK 921   NORMALIZED FREE ENERGY PREDICTED BY IDOCK:   -4.42 KCAL/MOL
REMARK 922        TOTAL FREE ENERGY PREDICTED BY IDOCK:   -7.19 KCAL/MOL
REMARK 923 INTER-LIGAND FREE ENERGY PREDICTED BY IDOCK:   -5.42 KCAL/MOL
REMARK 924 INTRA-LIGAND FREE ENERGY PREDICTED BY IDOCK:   -1.76 KCAL/MOL
REMARK 927      BINDING AFFINITY PREDICTED BY RF-SCORE:    0.00 PKD
ROOT
HETATM    1  O   UNL     1     -12.566   9.374  72.130  1.00  0.00    -0.368 OA 
HETATM    2  C   UNL     1     -11.447   8.898  71.360  1.00  0.00    -0.311 C  
HETATM    3  H   UNL     1     -13.294   9.503  71.533  1.00  0.00     0.000 HD 
HETATM    4  C   UNL     1     -10.266   8.689  72.327  1.00  0.00    -0.372 C  
HETATM    5  C   UNL     1     -11.868   7.580  70.679  1.00  0.00    -0.205 C  
HETATM    6  C   UNL     1     -10.489   7.482  73.241  1.00  0.00    -0.371 C  
HETATM    7  C   UNL     1     -11.986   6.422  71.673  1.00  0.00    -0.291 C  
HETATM    8  N   UNL     1     -10.793   6.242  72.515  1.00  0.00    -0.229 NA 
ENDROOT
BRANCH   2   9
HETATM    9  C   UNL     1     -11.114   9.959  70.302  1.00  0.00    -0.368 A  
HETATM   10  C   UNL     1      -9.867   9.974  69.651  1.00  0.00    -0.261 A  
HETATM   11  C   UNL     1     -12.038  10.969  69.968  1.00  0.00    -0.441 A  
HETATM   12  C   UNL     1     -10.468  11.961  68.424  1.00  0.00    -0.217 A  
HETATM   13  C   UNL     1      -9.544  10.966  68.721  1.00  0.00    -0.195 A  
HETATM   14 BR   UNL     1     -10.019  13.321  67.191  1.00  0.00    -0.242 Br 
HETATM   15  C   UNL     1     -11.717  11.964  69.038  1.00  0.00    -0.391 A  
ENDBRANCH   2   9
BRANCH   8  16
HETATM   16  C   UNL     1      -9.659   5.709  71.737  1.00  0.00    -0.156 C  
BRANCH  16  17
HETATM   17  C   UNL     1     -10.064   4.814  70.562  1.00  0.00    -0.291 C  
BRANCH  17  18
HETATM   18  C   UNL     1      -9.404   5.234  69.248  1.00  0.00    -0.167 C  
BRANCH  18  19
HETATM   19  C   UNL     1      -7.905   5.385  69.409  1.00  0.00    -0.089 C  
HETATM   20  O   UNL     1      -7.165   4.444  69.689  1.00  0.00    -0.049 OA 
BRANCH  19  21
HETATM   21  C   UNL     1      -7.315   6.744  69.262  1.00  0.00    -0.093 A  
HETATM   22  C   UNL     1      -7.014   7.460  70.429  1.00  0.00    -0.056 A  
HETATM   23  C   UNL     1      -6.476   8.743  70.345  1.00  0.00    -0.041 A  
HETATM   24  C   UNL     1      -6.230   9.301  69.097  1.00  0.00    -0.042 A  
HETATM   25  F   UNL     1      -5.711  10.535  69.017  1.00  0.00    -0.042 F  
HETATM   26  C   UNL     1      -6.509   8.599  67.929  1.00  0.00    -0.057 A  
HETATM   27  C   UNL     1      -7.055   7.316  68.009  1.00  0.00    -0.081 A  
ENDBRANCH  19  21
ENDBRANCH  18  19
ENDBRANCH  17  18
ENDBRANCH  16  17
ENDBRANCH   8  16
TORSDOF 6
ENDMDL
MODEL      167
REMARK 921   NORMALIZED FREE ENERGY PREDICTED BY IDOCK:   -4.40 KCAL/MOL
REMARK 922        TOTAL FREE ENERGY PREDICTED BY IDOCK:   -7.16 KCAL/MOL
REMARK 923 INTER-LIGAND FREE ENERGY PREDICTED BY IDOCK:   -6.20 KCAL/MOL
REMARK 924 INTRA-LIGAND FREE ENERGY PREDICTED BY IDOCK:   -0.95 KCAL/MOL
REMARK 927      BINDING AFFINITY PREDICTED BY RF-SCORE:    0.00 PKD
ROOT
HETATM    1  O   UNL     1      -9.201   8.852  72.468  1.00  0.00    -0.334 OA 
HETATM    2  C   UNL     1      -9.749   8.216  71.299  1.00  0.00    -0.164 C  
HETATM    3  H   UNL     1      -8.370   8.434  72.662  1.00  0.00     0.000 HD 
HETATM    4  C   UNL     1     -11.097   8.894  70.984  1.00  0.00    -0.340 C  
HETATM    5  C   UNL     1      -8.738   8.392  70.148  1.00  0.00    -0.136 C  
HETATM    6  C   UNL     1     -10.905  10.313  70.446  1.00  0.00    -0.253 C  
HETATM    7  C   UNL     1      -8.684   9.833  69.635  1.00  0.00    -0.199 C  
HETATM    8  N   UNL     1     -10.002  10.389  69.290  1.00  0.00    -0.221 NA 
ENDROOT
BRANCH   2   9
HETATM    9  C   UNL     1      -9.940   6.727  71.615  1.00  0.00    -0.183 A  
HETATM   10  C   UNL     1     -11.005   6.282  72.419  1.00  0.00    -0.291 A  
HETATM   11  C   UNL     1      -9.039   5.758  71.131  1.00  0.00    -0.157 A  
HETATM   12  C   UNL     1     -10.240   4.001  72.270  1.00  0.00    -0.157 A  
HETATM   13  C   UNL     1     -11.156   4.932  72.746  1.00  0.00    -0.283 A  
HETATM   14 BR   UNL     1     -10.425   2.179  72.739  1.00  0.00    -0.222 Br 
HETATM   15  C   UNL     1      -9.185   4.405  71.458  1.00  0.00    -0.190 A  
ENDBRANCH   2   9
BRANCH   8  16
HETATM   16  C   UNL     1     -10.544   9.772  68.065  1.00  0.00    -0.243 C  
BRANCH  16  17
HETATM   17  C   UNL     1     -11.110  10.772  67.052  1.00  0.00    -0.245 C  
BRANCH  17  18
HETATM   18  C   UNL     1     -10.253  10.881  65.791  1.00  0.00    -0.318 C  
BRANCH  18  19
HETATM   19  C   UNL     1     -10.174  12.314  65.302  1.00  0.00    -0.278 C  
HETATM   20  O   UNL     1     -10.342  12.627  64.125  1.00  0.00    -0.373 OA 
BRANCH  19  21
HETATM   21  C   UNL     1      -9.834  13.376  66.288  1.00  0.00    -0.295 A  
HETATM   22  C   UNL     1     -10.749  14.423  66.468  1.00  0.00    -0.306 A  
HETATM   23  C   UNL     1     -10.469  15.451  67.368  1.00  0.00    -0.277 A  
HETATM   24  C   UNL     1      -9.283  15.422  68.092  1.00  0.00    -0.186 A  
HETATM   25  F   UNL     1      -9.015  16.410  68.957  1.00  0.00    -0.225 F  
HETATM   26  C   UNL     1      -8.371  14.383  67.935  1.00  0.00    -0.162 A  
HETATM   27  C   UNL     1      -8.645  13.356  67.030  1.00  0.00    -0.168 A  
ENDBRANCH  19  21
ENDBRANCH  18  19
ENDBRANCH  17  18
ENDBRANCH  16  17
ENDBRANCH   8  16
TORSDOF 6
ENDMDL
MODEL      168
REMARK 921   NORMALIZED FREE ENERGY PREDICTED BY IDOCK:   -4.36 KCAL/MOL
REMARK 922        TOTAL FREE ENERGY PREDICTED BY IDOCK:   -7.10 KCAL/MOL
REMARK 923 INTER-LIGAND FREE ENERGY PREDICTED BY IDOCK:   -5.68 KCAL/MOL
REMARK 924 INTRA-LIGAND FREE ENERGY PREDICTED BY IDOCK:   -1.42 KCAL/MOL
REMARK 927      BINDING AFFINITY PREDICTED BY RF-SCORE:    0.00 PKD
ROOT
HETATM    1  O   UNL     1      -7.987   9.315  71.443  1.00  0.00    -0.335 OA 
HETATM    2  C   UNL     1      -8.696   8.871  70.272  1.00  0.00    -0.169 C  
HETATM    3  H   UNL     1      -7.940   8.583  72.048  1.00  0.00     0.000 HD 
HETATM    4  C   UNL     1      -8.772  10.057  69.291  1.00  0.00    -0.182 C  
HETATM    5  C   UNL     1      -7.919   7.682  69.672  1.00  0.00    -0.124 C  
HETATM    6  C   UNL     1      -7.409  10.367  68.671  1.00  0.00    -0.085 C  
HETATM    7  C   UNL     1      -6.610   8.116  69.010  1.00  0.00    -0.048 C  
HETATM    8  N   UNL     1      -6.772   9.206  68.035  1.00  0.00    -0.067 NA 
ENDROOT
BRANCH   2   9
HETATM    9  C   UNL     1     -10.098   8.424  70.708  1.00  0.00    -0.226 A  
HETATM   10  C   UNL     1     -10.686   8.913  71.889  1.00  0.00    -0.426 A  
HETATM   11  C   UNL     1     -10.832   7.488  69.953  1.00  0.00    -0.250 A  
HETATM   12  C   UNL     1     -12.636   7.535  71.558  1.00  0.00    -0.355 A  
HETATM   13  C   UNL     1     -11.943   8.474  72.313  1.00  0.00    -0.454 A  
HETATM   14 BR   UNL     1     -14.321   6.916  72.148  1.00  0.00    -0.110 Br 
HETATM   15  C   UNL     1     -12.090   7.044  70.375  1.00  0.00    -0.204 A  
ENDBRANCH   2   9
BRANCH   8  16
HETATM   16  C   UNL     1      -7.457   8.741  66.815  1.00  0.00    -0.086 C  
BRANCH  16  17
HETATM   17  C   UNL     1      -6.990   9.429  65.527  1.00  0.00    -0.086 C  
BRANCH  17  18
HETATM   18  C   UNL     1      -7.664  10.783  65.305  1.00  0.00     0.059 C  
BRANCH  18  19
HETATM   19  C   UNL     1      -9.173  10.648  65.272  1.00  0.00    -0.197 C  
HETATM   20  O   UNL     1      -9.762   9.936  64.460  1.00  0.00    -0.291 OA 
BRANCH  19  21
HETATM   21  C   UNL     1      -9.973  11.449  66.238  1.00  0.00    -0.259 A  
HETATM   22  C   UNL     1     -10.993  10.799  66.946  1.00  0.00    -0.255 A  
HETATM   23  C   UNL     1     -11.781  11.510  67.850  1.00  0.00    -0.317 A  
HETATM   24  C   UNL     1     -11.539  12.864  68.052  1.00  0.00    -0.342 A  
HETATM   25  F   UNL     1     -12.297  13.546  68.922  1.00  0.00    -0.368 F  
HETATM   26  C   UNL     1     -10.521  13.521  67.367  1.00  0.00    -0.247 A  
HETATM   27  C   UNL     1      -9.735  12.814  66.456  1.00  0.00    -0.255 A  
ENDBRANCH  19  21
ENDBRANCH  18  19
ENDBRANCH  17  18
ENDBRANCH  16  17
ENDBRANCH   8  16
TORSDOF 6
ENDMDL
MODEL      169
REMARK 921   NORMALIZED FREE ENERGY PREDICTED BY IDOCK:   -4.34 KCAL/MOL
REMARK 922        TOTAL FREE ENERGY PREDICTED BY IDOCK:   -7.07 KCAL/MOL
REMARK 923 INTER-LIGAND FREE ENERGY PREDICTED BY IDOCK:   -6.45 KCAL/MOL
REMARK 924 INTRA-LIGAND FREE ENERGY PREDICTED BY IDOCK:   -0.61 KCAL/MOL
REMARK 927      BINDING AFFINITY PREDICTED BY RF-SCORE:    0.00 PKD
ROOT
HETATM    1  O   UNL     1     -11.653  16.637  67.833  1.00  0.00    -0.008 OA 
HETATM    2  C   UNL     1     -10.642  15.657  68.131  1.00  0.00    -0.274 C  
HETATM    3  H   UNL     1     -11.499  16.953  66.951  1.00  0.00     0.000 HD 
HETATM    4  C   UNL     1     -10.892  15.144  69.562  1.00  0.00    -0.270 C  
HETATM    5  C   UNL     1     -10.760  14.526  67.089  1.00  0.00    -0.286 C  
HETATM    6  C   UNL     1     -12.141  14.264  69.638  1.00  0.00    -0.346 C  
HETATM    7  C   UNL     1     -12.003  13.661  67.305  1.00  0.00    -0.381 C  
HETATM    8  N   UNL     1     -12.137  13.151  68.679  1.00  0.00    -0.268 NA 
ENDROOT
BRANCH   2   9
HETATM    9  C   UNL     1      -9.273  16.341  68.020  1.00  0.00    -0.196 A  
HETATM   10  C   UNL     1      -8.345  16.293  69.076  1.00  0.00    -0.239 A  
HETATM   11  C   UNL     1      -8.910  17.061  66.865  1.00  0.00    -0.251 A  
HETATM   12  C   UNL     1      -6.793  17.672  67.852  1.00  0.00    -0.190 A  
HETATM   13  C   UNL     1      -7.116  16.953  68.997  1.00  0.00    -0.232 A  
HETATM   14 BR   UNL     1      -5.145  18.592  67.757  1.00  0.00    -0.163 Br 
HETATM   15  C   UNL     1      -7.680  17.725  66.782  1.00  0.00    -0.258 A  
ENDBRANCH   2   9
BRANCH   8  16
HETATM   16  C   UNL     1     -11.131  12.113  68.970  1.00  0.00    -0.237 C  
BRANCH  16  17
HETATM   17  C   UNL     1     -11.714  10.803  69.511  1.00  0.00    -0.384 C  
BRANCH  17  18
HETATM   18  C   UNL     1     -10.711  10.017  70.355  1.00  0.00    -0.369 C  
BRANCH  18  19
HETATM   19  C   UNL     1     -10.943   8.523  70.237  1.00  0.00    -0.235 C  
HETATM   20  O   UNL     1     -11.407   7.846  71.152  1.00  0.00    -0.257 OA 
BRANCH  19  21
HETATM   21  C   UNL     1     -10.548   7.847  68.971  1.00  0.00    -0.177 A  
HETATM   22  C   UNL     1     -10.798   6.473  68.853  1.00  0.00    -0.354 A  
HETATM   23  C   UNL     1     -10.432   5.791  67.694  1.00  0.00    -0.299 A  
HETATM   24  C   UNL     1      -9.828   6.487  66.653  1.00  0.00    -0.148 A  
HETATM   25  F   UNL     1      -9.477   5.830  65.539  1.00  0.00    -0.130 F  
HETATM   26  C   UNL     1      -9.585   7.854  66.749  1.00  0.00    -0.278 A  
HETATM   27  C   UNL     1      -9.945   8.539  67.911  1.00  0.00    -0.225 A  
ENDBRANCH  19  21
ENDBRANCH  18  19
ENDBRANCH  17  18
ENDBRANCH  16  17
ENDBRANCH   8  16
TORSDOF 6
ENDMDL
MODEL      170
REMARK 921   NORMALIZED FREE ENERGY PREDICTED BY IDOCK:   -4.33 KCAL/MOL
REMARK 922        TOTAL FREE ENERGY PREDICTED BY IDOCK:   -7.07 KCAL/MOL
REMARK 923 INTER-LIGAND FREE ENERGY PREDICTED BY IDOCK:   -6.13 KCAL/MOL
REMARK 924 INTRA-LIGAND FREE ENERGY PREDICTED BY IDOCK:   -0.94 KCAL/MOL
REMARK 927      BINDING AFFINITY PREDICTED BY RF-SCORE:    0.00 PKD
ROOT
HETATM    1  O   UNL     1     -11.228  14.165  71.161  1.00  0.00    -0.288 OA 
HETATM    2  C   UNL     1     -11.594  13.354  70.029  1.00  0.00    -0.148 C  
HETATM    3  H   UNL     1     -10.613  13.667  71.687  1.00  0.00     0.000 HD 
HETATM    4  C   UNL     1     -12.592  14.160  69.177  1.00  0.00     0.219 C  
HETATM    5  C   UNL     1     -10.306  13.027  69.246  1.00  0.00     0.289 C  
HETATM    6  C   UNL     1     -11.910  15.324  68.456  1.00  0.00    -0.281 C  
HETATM    7  C   UNL     1      -9.753  14.244  68.501  1.00  0.00    -0.225 C  
HETATM    8  N   UNL     1     -10.747  14.921  67.654  1.00  0.00    -0.265 NA 
ENDROOT
BRANCH   2   9
HETATM    9  C   UNL     1     -12.235  12.064  70.559  1.00  0.00    -0.414 A  
HETATM   10  C   UNL     1     -12.067  10.837  69.891  1.00  0.00    -0.410 A  
HETATM   11  C   UNL     1     -13.035  12.070  71.719  1.00  0.00    -0.445 A  
HETATM   12  C   UNL     1     -13.485   9.710  71.481  1.00  0.00    -0.352 A  
HETATM   13  C   UNL     1     -12.686   9.670  70.344  1.00  0.00     0.146 A  
HETATM   14 BR   UNL     1     -14.350   8.139  72.076  1.00  0.00    -0.524 Br 
HETATM   15  C   UNL     1     -13.658  10.903  72.175  1.00  0.00    -0.092 A  
ENDBRANCH   2   9
BRANCH   8  16
HETATM   16  C   UNL     1     -11.089  14.112  66.469  1.00  0.00    -0.318 C  
BRANCH  16  17
HETATM   17  C   UNL     1     -11.250  14.920  65.177  1.00  0.00    -0.389 C  
BRANCH  17  18
HETATM   18  C   UNL     1     -10.068  15.853  64.915  1.00  0.00     0.269 C  
BRANCH  18  19
HETATM   19  C   UNL     1     -10.421  17.292  65.234  1.00  0.00     0.070 C  
HETATM   20  O   UNL     1     -11.270  17.925  64.611  1.00  0.00    -0.664 OA 
BRANCH  19  21
HETATM   21  C   UNL     1      -9.670  17.976  66.323  1.00  0.00    -0.276 A  
HETATM   22  C   UNL     1     -10.377  18.350  67.474  1.00  0.00    -0.416 A  
HETATM   23  C   UNL     1      -9.723  19.007  68.515  1.00  0.00    -0.458 A  
HETATM   24  C   UNL     1      -8.364  19.278  68.406  1.00  0.00    -0.348 A  
HETATM   25  F   UNL     1      -7.736  19.909  69.408  1.00  0.00    -0.332 F  
HETATM   26  C   UNL     1      -7.645  18.900  67.277  1.00  0.00    -0.242 A  
HETATM   27  C   UNL     1      -8.298  18.248  66.229  1.00  0.00    -0.230 A  
ENDBRANCH  19  21
ENDBRANCH  18  19
ENDBRANCH  17  18
ENDBRANCH  16  17
ENDBRANCH   8  16
TORSDOF 6
ENDMDL
MODEL      171
REMARK 921   NORMALIZED FREE ENERGY PREDICTED BY IDOCK:   -4.32 KCAL/MOL
REMARK 922        TOTAL FREE ENERGY PREDICTED BY IDOCK:   -7.05 KCAL/MOL
REMARK 923 INTER-LIGAND FREE ENERGY PREDICTED BY IDOCK:   -6.48 KCAL/MOL
REMARK 924 INTRA-LIGAND FREE ENERGY PREDICTED BY IDOCK:   -0.57 KCAL/MOL
REMARK 927      BINDING AFFINITY PREDICTED BY RF-SCORE:    0.00 PKD
ROOT
HETATM    1  O   UNL     1     -12.015   6.940  70.576  1.00  0.00    -0.472 OA 
HETATM    2  C   UNL     1     -11.405   8.060  71.243  1.00  0.00    -0.264 C  
HETATM    3  H   UNL     1     -11.992   6.200  71.172  1.00  0.00     0.000 HD 
HETATM    4  C   UNL     1     -11.442   9.259  70.277  1.00  0.00    -0.198 C  
HETATM    5  C   UNL     1     -12.208   8.337  72.530  1.00  0.00    -0.367 C  
HETATM    6  C   UNL     1     -12.862   9.800  70.099  1.00  0.00     0.417 C  
HETATM    7  C   UNL     1     -13.581   8.949  72.240  1.00  0.00    -0.462 C  
HETATM    8  N   UNL     1     -13.529  10.132  71.366  1.00  0.00    -0.295 NA 
ENDROOT
BRANCH   2   9
HETATM    9  C   UNL     1      -9.961   7.674  71.591  1.00  0.00    -0.207 A  
HETATM   10  C   UNL     1      -9.282   6.667  70.880  1.00  0.00    -0.157 A  
HETATM   11  C   UNL     1      -9.275   8.300  72.651  1.00  0.00    -0.345 A  
HETATM   12  C   UNL     1      -7.339   6.904  72.287  1.00  0.00    -0.086 A  
HETATM   13  C   UNL     1      -7.984   6.282  71.224  1.00  0.00    -0.116 A  
HETATM   14 BR   UNL     1      -5.596   6.361  72.773  1.00  0.00    -0.038 Br 
HETATM   15  C   UNL     1      -7.975   7.916  72.999  1.00  0.00    -0.183 A  
ENDBRANCH   2   9
BRANCH   8  16
HETATM   16  C   UNL     1     -12.947  11.293  72.063  1.00  0.00    -0.274 C  
BRANCH  16  17
HETATM   17  C   UNL     1     -12.797  12.544  71.191  1.00  0.00    -0.303 C  
BRANCH  17  18
HETATM   18  C   UNL     1     -13.037  13.837  71.969  1.00  0.00    -0.485 C  
BRANCH  18  19
HETATM   19  C   UNL     1     -13.074  15.038  71.044  1.00  0.00    -0.422 C  
HETATM   20  O   UNL     1     -13.885  15.953  71.171  1.00  0.00    -0.401 OA 
BRANCH  19  21
HETATM   21  C   UNL     1     -12.112  15.081  69.909  1.00  0.00    -0.376 A  
HETATM   22  C   UNL     1     -10.930  15.815  70.077  1.00  0.00    -0.344 A  
HETATM   23  C   UNL     1     -10.005  15.900  69.037  1.00  0.00    -0.233 A  
HETATM   24  C   UNL     1     -10.258  15.242  67.840  1.00  0.00    -0.235 A  
HETATM   25  F   UNL     1      -9.367  15.324  66.842  1.00  0.00    -0.206 F  
HETATM   26  C   UNL     1     -11.420  14.497  67.663  1.00  0.00    -0.374 A  
HETATM   27  C   UNL     1     -12.352  14.416  68.699  1.00  0.00    -0.051 A  
ENDBRANCH  19  21
ENDBRANCH  18  19
ENDBRANCH  17  18
ENDBRANCH  16  17
ENDBRANCH   8  16
TORSDOF 6
ENDMDL
MODEL      172
REMARK 921   NORMALIZED FREE ENERGY PREDICTED BY IDOCK:   -4.31 KCAL/MOL
REMARK 922        TOTAL FREE ENERGY PREDICTED BY IDOCK:   -7.04 KCAL/MOL
REMARK 923 INTER-LIGAND FREE ENERGY PREDICTED BY IDOCK:   -5.77 KCAL/MOL
REMARK 924 INTRA-LIGAND FREE ENERGY PREDICTED BY IDOCK:   -1.27 KCAL/MOL
REMARK 927      BINDING AFFINITY PREDICTED BY RF-SCORE:    0.00 PKD
ROOT
HETATM    1  O   UNL     1      -9.987  14.127  65.874  1.00  0.00    -0.298 OA 
HETATM    2  C   UNL     1     -10.413  12.840  66.358  1.00  0.00    -0.250 C  
HETATM    3  H   UNL     1     -10.328  14.233  64.993  1.00  0.00     0.000 HD 
HETATM    4  C   UNL     1      -9.859  12.668  67.785  1.00  0.00    -0.212 C  
HETATM    5  C   UNL     1     -11.955  12.815  66.336  1.00  0.00    -0.443 C  
HETATM    6  C   UNL     1     -10.578  13.577  68.785  1.00  0.00    -0.218 C  
HETATM    7  C   UNL     1     -12.568  13.697  67.426  1.00  0.00     0.356 C  
HETATM    8  N   UNL     1     -12.039  13.427  68.772  1.00  0.00    -0.310 NA 
ENDROOT
BRANCH   2   9
HETATM    9  C   UNL     1      -9.851  11.769  65.414  1.00  0.00    -0.261 A  
HETATM   10  C   UNL     1     -10.240  11.709  64.063  1.00  0.00    -0.391 A  
HETATM   11  C   UNL     1      -8.945  10.794  65.875  1.00  0.00    -0.200 A  
HETATM   12  C   UNL     1      -8.887   9.747  63.701  1.00  0.00    -0.236 A  
HETATM   13  C   UNL     1      -9.765  10.707  63.212  1.00  0.00    -0.385 A  
HETATM   14 BR   UNL     1      -8.271   8.373  62.559  1.00  0.00    -0.159 Br 
HETATM   15  C   UNL     1      -8.468   9.788  65.027  1.00  0.00    -0.161 A  
ENDBRANCH   2   9
BRANCH   8  16
HETATM   16  C   UNL     1     -12.513  12.130  69.288  1.00  0.00     0.306 C  
BRANCH  16  17
HETATM   17  C   UNL     1     -11.935  11.745  70.654  1.00  0.00    -0.320 C  
BRANCH  17  18
HETATM   18  C   UNL     1     -12.777  10.692  71.374  1.00  0.00    -0.545 C  
BRANCH  18  19
HETATM   19  C   UNL     1     -11.938   9.492  71.769  1.00  0.00    -0.371 C  
HETATM   20  O   UNL     1     -12.192   8.795  72.749  1.00  0.00    -0.275 OA 
BRANCH  19  21
HETATM   21  C   UNL     1     -10.732   9.178  70.955  1.00  0.00    -0.363 A  
HETATM   22  C   UNL     1      -9.500   9.083  71.616  1.00  0.00    -0.293 A  
HETATM   23  C   UNL     1      -8.338   8.808  70.897  1.00  0.00    -0.196 A  
HETATM   24  C   UNL     1      -8.414   8.617  69.522  1.00  0.00    -0.129 A  
HETATM   25  F   UNL     1      -7.297   8.351  68.831  1.00  0.00    -0.080 F  
HETATM   26  C   UNL     1      -9.632   8.694  68.853  1.00  0.00    -0.159 A  
HETATM   27  C   UNL     1     -10.796   8.976  69.569  1.00  0.00    -0.177 A  
ENDBRANCH  19  21
ENDBRANCH  18  19
ENDBRANCH  17  18
ENDBRANCH  16  17
ENDBRANCH   8  16
TORSDOF 6
ENDMDL
MODEL      173
REMARK 921   NORMALIZED FREE ENERGY PREDICTED BY IDOCK:   -4.30 KCAL/MOL
REMARK 922        TOTAL FREE ENERGY PREDICTED BY IDOCK:   -7.02 KCAL/MOL
REMARK 923 INTER-LIGAND FREE ENERGY PREDICTED BY IDOCK:   -4.62 KCAL/MOL
REMARK 924 INTRA-LIGAND FREE ENERGY PREDICTED BY IDOCK:   -2.40 KCAL/MOL
REMARK 927      BINDING AFFINITY PREDICTED BY RF-SCORE:    0.00 PKD
ROOT
HETATM    1  O   UNL     1     -11.022  11.265  70.143  1.00  0.00    -0.468 OA 
HETATM    2  C   UNL     1     -10.390  10.360  69.220  1.00  0.00    -0.230 C  
HETATM    3  H   UNL     1     -10.495  11.288  70.933  1.00  0.00     0.000 HD 
HETATM    4  C   UNL     1     -11.244  10.323  67.938  1.00  0.00    -0.290 C  
HETATM    5  C   UNL     1      -8.966  10.886  68.943  1.00  0.00    -0.146 C  
HETATM    6  C   UNL     1     -11.133  11.627  67.146  1.00  0.00    -0.299 C  
HETATM    7  C   UNL     1      -8.969  12.148  68.078  1.00  0.00    -0.189 C  
HETATM    8  N   UNL     1      -9.750  12.013  66.838  1.00  0.00    -0.200 NA 
ENDROOT
BRANCH   2   9
HETATM    9  C   UNL     1     -10.325   8.977  69.882  1.00  0.00    -0.219 A  
HETATM   10  C   UNL     1      -9.659   8.784  71.106  1.00  0.00    -0.309 A  
HETATM   11  C   UNL     1     -10.909   7.849  69.272  1.00  0.00    -0.077 A  
HETATM   12  C   UNL     1     -10.129   6.420  71.054  1.00  0.00    -0.182 A  
HETATM   13  C   UNL     1      -9.560   7.518  71.689  1.00  0.00    -0.171 A  
HETATM   14 BR   UNL     1      -9.966   4.702  71.825  1.00  0.00    -0.263 Br 
HETATM   15  C   UNL     1     -10.810   6.579  69.851  1.00  0.00    -0.341 A  
ENDBRANCH   2   9
BRANCH   8  16
HETATM   16  C   UNL     1      -9.080  11.123  65.872  1.00  0.00    -0.203 C  
BRANCH  16  17
HETATM   17  C   UNL     1      -7.721  10.592  66.340  1.00  0.00    -0.141 C  
BRANCH  17  18
HETATM   18  C   UNL     1      -7.429   9.184  65.823  1.00  0.00    -0.090 C  
BRANCH  18  19
HETATM   19  C   UNL     1      -8.381   8.168  66.424  1.00  0.00    -0.115 C  
HETATM   20  O   UNL     1      -9.559   8.076  66.085  1.00  0.00    -0.179 OA 
BRANCH  19  21
HETATM   21  C   UNL     1      -7.871   7.278  67.502  1.00  0.00    -0.112 A  
HETATM   22  C   UNL     1      -8.154   5.908  67.412  1.00  0.00    -0.102 A  
HETATM   23  C   UNL     1      -7.713   5.035  68.405  1.00  0.00    -0.079 A  
HETATM   24  C   UNL     1      -6.981   5.531  69.477  1.00  0.00    -0.062 A  
HETATM   25  F   UNL     1      -6.556   4.691  70.431  1.00  0.00    -0.030 F  
HETATM   26  C   UNL     1      -6.679   6.886  69.574  1.00  0.00    -0.050 A  
HETATM   27  C   UNL     1      -7.125   7.765  68.585  1.00  0.00    -0.076 A  
ENDBRANCH  19  21
ENDBRANCH  18  19
ENDBRANCH  17  18
ENDBRANCH  16  17
ENDBRANCH   8  16
TORSDOF 6
ENDMDL
MODEL      174
REMARK 921   NORMALIZED FREE ENERGY PREDICTED BY IDOCK:   -4.29 KCAL/MOL
REMARK 922        TOTAL FREE ENERGY PREDICTED BY IDOCK:   -7.00 KCAL/MOL
REMARK 923 INTER-LIGAND FREE ENERGY PREDICTED BY IDOCK:   -5.84 KCAL/MOL
REMARK 924 INTRA-LIGAND FREE ENERGY PREDICTED BY IDOCK:   -1.17 KCAL/MOL
REMARK 927      BINDING AFFINITY PREDICTED BY RF-SCORE:    0.00 PKD
ROOT
HETATM    1  O   UNL     1      -8.555  11.272  69.224  1.00  0.00    -0.377 OA 
HETATM    2  C   UNL     1      -9.444  10.245  68.750  1.00  0.00    -0.176 C  
HETATM    3  H   UNL     1      -9.076  12.046  69.405  1.00  0.00     0.000 HD 
HETATM    4  C   UNL     1      -8.600   8.991  68.456  1.00  0.00    -0.129 C  
HETATM    5  C   UNL     1     -10.493   9.984  69.851  1.00  0.00    -0.317 C  
HETATM    6  C   UNL     1      -8.098   8.331  69.742  1.00  0.00    -0.118 C  
HETATM    7  C   UNL     1      -9.901   9.251  71.057  1.00  0.00    -0.285 C  
HETATM    8  N   UNL     1      -9.167   8.026  70.703  1.00  0.00    -0.152 NA 
ENDROOT
BRANCH   2   9
HETATM    9  C   UNL     1     -10.129  10.762  67.477  1.00  0.00    -0.218 A  
HETATM   10  C   UNL     1      -9.774  10.272  66.207  1.00  0.00    -0.263 A  
HETATM   11  C   UNL     1     -11.118  11.763  67.537  1.00  0.00    -0.330 A  
HETATM   12  C   UNL     1     -11.322  11.774  65.131  1.00  0.00    -0.218 A  
HETATM   13  C   UNL     1     -10.362  10.772  65.043  1.00  0.00    -0.357 A  
HETATM   14 BR   UNL     1     -12.094  12.475  63.555  1.00  0.00    -0.650 Br 
HETATM   15  C   UNL     1     -11.708  12.269  66.373  1.00  0.00    -0.431 A  
ENDBRANCH   2   9
BRANCH   8  16
HETATM   16  C   UNL     1     -10.081   6.957  70.262  1.00  0.00    -0.183 C  
BRANCH  16  17
HETATM   17  C   UNL     1      -9.537   5.538  70.459  1.00  0.00    -0.225 C  
BRANCH  17  18
HETATM   18  C   UNL     1      -9.906   4.600  69.311  1.00  0.00    -0.260 C  
BRANCH  18  19
HETATM   19  C   UNL     1      -8.888   4.674  68.190  1.00  0.00    -0.106 C  
HETATM   20  O   UNL     1      -7.713   4.981  68.375  1.00  0.00    -0.078 OA 
BRANCH  19  21
HETATM   21  C   UNL     1      -9.351   4.406  66.800  1.00  0.00    -0.173 A  
HETATM   22  C   UNL     1      -8.486   3.715  65.941  1.00  0.00    -0.111 A  
HETATM   23  C   UNL     1      -8.866   3.453  64.626  1.00  0.00    -0.116 A  
HETATM   24  C   UNL     1     -10.113   3.873  64.178  1.00  0.00    -0.201 A  
HETATM   25  F   UNL     1     -10.478   3.620  62.913  1.00  0.00    -0.154 F  
HETATM   26  C   UNL     1     -10.989   4.547  65.022  1.00  0.00    -0.007 A  
HETATM   27  C   UNL     1     -10.609   4.817  66.338  1.00  0.00    -0.203 A  
ENDBRANCH  19  21
ENDBRANCH  18  19
ENDBRANCH  17  18
ENDBRANCH  16  17
ENDBRANCH   8  16
TORSDOF 6
ENDMDL
MODEL      175
REMARK 921   NORMALIZED FREE ENERGY PREDICTED BY IDOCK:   -4.27 KCAL/MOL
REMARK 922        TOTAL FREE ENERGY PREDICTED BY IDOCK:   -6.98 KCAL/MOL
REMARK 923 INTER-LIGAND FREE ENERGY PREDICTED BY IDOCK:   -6.01 KCAL/MOL
REMARK 924 INTRA-LIGAND FREE ENERGY PREDICTED BY IDOCK:   -0.97 KCAL/MOL
REMARK 927      BINDING AFFINITY PREDICTED BY RF-SCORE:    0.00 PKD
ROOT
HETATM    1  O   UNL     1      -7.665   6.049  67.189  1.00  0.00    -0.098 OA 
HETATM    2  C   UNL     1      -8.286   7.239  67.706  1.00  0.00    -0.118 C  
HETATM    3  H   UNL     1      -8.344   5.394  67.075  1.00  0.00     0.000 HD 
HETATM    4  C   UNL     1      -7.185   8.301  67.893  1.00  0.00    -0.095 C  
HETATM    5  C   UNL     1      -9.353   7.694  66.690  1.00  0.00    -0.239 C  
HETATM    6  C   UNL     1      -6.677   8.831  66.550  1.00  0.00    -0.071 C  
HETATM    7  C   UNL     1      -8.734   8.279  65.417  1.00  0.00    -0.113 C  
HETATM    8  N   UNL     1      -7.742   9.335  65.673  1.00  0.00    -0.094 NA 
ENDROOT
BRANCH   2   9
HETATM    9  C   UNL     1      -8.946   6.886  69.046  1.00  0.00    -0.132 A  
HETATM   10  C   UNL     1     -10.324   7.075  69.253  1.00  0.00    -0.210 A  
HETATM   11  C   UNL     1      -8.187   6.385  70.122  1.00  0.00    -0.129 A  
HETATM   12  C   UNL     1     -10.143   6.322  71.536  1.00  0.00    -0.190 A  
HETATM   13  C   UNL     1     -10.921   6.797  70.486  1.00  0.00    -0.327 A  
HETATM   14 BR   UNL     1     -10.942   5.977  73.213  1.00  0.00    -0.191 Br 
HETATM   15  C   UNL     1      -8.780   6.107  71.359  1.00  0.00    -0.135 A  
ENDBRANCH   2   9
BRANCH   8  16
HETATM   16  C   UNL     1      -8.382  10.571  66.158  1.00  0.00    -0.155 C  
BRANCH  16  17
HETATM   17  C   UNL     1      -9.776  10.831  65.577  1.00  0.00    -0.290 C  
BRANCH  17  18
HETATM   18  C   UNL     1     -10.819  11.122  66.656  1.00  0.00    -0.308 C  
BRANCH  18  19
HETATM   19  C   UNL     1     -10.910  12.608  66.946  1.00  0.00    -0.254 C  
HETATM   20  O   UNL     1     -10.533  13.467  66.153  1.00  0.00    -0.285 OA 
BRANCH  19  21
HETATM   21  C   UNL     1     -11.439  13.034  68.271  1.00  0.00    -0.347 A  
HETATM   22  C   UNL     1     -11.762  12.038  69.202  1.00  0.00    -0.389 A  
HETATM   23  C   UNL     1     -12.277  12.385  70.450  1.00  0.00    -0.370 A  
HETATM   24  C   UNL     1     -12.455  13.727  70.767  1.00  0.00    -0.370 A  
HETATM   25  F   UNL     1     -12.949  14.060  71.968  1.00  0.00    -0.377 F  
HETATM   26  C   UNL     1     -12.126  14.729  69.859  1.00  0.00    -0.381 A  
HETATM   27  C   UNL     1     -11.617  14.384  68.606  1.00  0.00    -0.347 A  
ENDBRANCH  19  21
ENDBRANCH  18  19
ENDBRANCH  17  18
ENDBRANCH  16  17
ENDBRANCH   8  16
TORSDOF 6
ENDMDL
MODEL      176
REMARK 921   NORMALIZED FREE ENERGY PREDICTED BY IDOCK:   -4.27 KCAL/MOL
REMARK 922        TOTAL FREE ENERGY PREDICTED BY IDOCK:   -6.98 KCAL/MOL
REMARK 923 INTER-LIGAND FREE ENERGY PREDICTED BY IDOCK:   -6.15 KCAL/MOL
REMARK 924 INTRA-LIGAND FREE ENERGY PREDICTED BY IDOCK:   -0.82 KCAL/MOL
REMARK 927      BINDING AFFINITY PREDICTED BY RF-SCORE:    0.00 PKD
ROOT
HETATM    1  O   UNL     1      -9.784  11.892  69.313  1.00  0.00    -0.378 OA 
HETATM    2  C   UNL     1     -10.485  10.727  68.842  1.00  0.00    -0.205 C  
HETATM    3  H   UNL     1     -10.166  12.652  68.888  1.00  0.00     0.000 HD 
HETATM    4  C   UNL     1      -9.866   9.496  69.530  1.00  0.00    -0.205 C  
HETATM    5  C   UNL     1     -11.975  10.896  69.204  1.00  0.00    -0.359 C  
HETATM    6  C   UNL     1     -10.225   9.437  71.016  1.00  0.00    -0.299 C  
HETATM    7  C   UNL     1     -12.232  10.741  70.705  1.00  0.00    -0.379 C  
HETATM    8  N   UNL     1     -11.669   9.508  71.277  1.00  0.00    -0.340 NA 
ENDROOT
BRANCH   2   9
HETATM    9  C   UNL     1     -10.314  10.654  67.319  1.00  0.00    -0.265 A  
HETATM   10  C   UNL     1      -9.483   9.688  66.723  1.00  0.00    -0.209 A  
HETATM   11  C   UNL     1     -10.963  11.570  66.468  1.00  0.00    -0.346 A  
HETATM   12  C   UNL     1      -9.928  10.575  64.527  1.00  0.00    -0.345 A  
HETATM   13  C   UNL     1      -9.289   9.647  65.340  1.00  0.00    -0.320 A  
HETATM   14 BR   UNL     1      -9.639  10.541  62.659  1.00  0.00    -0.221 Br 
HETATM   15  C   UNL     1     -10.770  11.533  65.082  1.00  0.00    -0.348 A  
ENDBRANCH   2   9
BRANCH   8  16
HETATM   16  C   UNL     1     -12.417   8.317  70.833  1.00  0.00     0.011 C  
BRANCH  16  17
HETATM   17  C   UNL     1     -12.573   7.233  71.905  1.00  0.00    -0.326 C  
BRANCH  17  18
HETATM   18  C   UNL     1     -11.432   6.217  71.888  1.00  0.00    -0.360 C  
BRANCH  18  19
HETATM   19  C   UNL     1     -10.897   6.014  70.484  1.00  0.00    -0.314 C  
HETATM   20  O   UNL     1     -11.620   6.002  69.490  1.00  0.00    -0.303 OA 
BRANCH  19  21
HETATM   21  C   UNL     1      -9.437   5.777  70.314  1.00  0.00    -0.196 A  
HETATM   22  C   UNL     1      -9.013   5.069  69.181  1.00  0.00    -0.130 A  
HETATM   23  C   UNL     1      -7.658   4.807  68.985  1.00  0.00    -0.067 A  
HETATM   24  C   UNL     1      -6.732   5.262  69.915  1.00  0.00    -0.047 A  
HETATM   25  F   UNL     1      -5.429   5.010  69.725  1.00  0.00    -0.008 F  
HETATM   26  C   UNL     1      -7.135   5.979  71.038  1.00  0.00    -0.069 A  
HETATM   27  C   UNL     1      -8.492   6.237  71.241  1.00  0.00    -0.124 A  
ENDBRANCH  19  21
ENDBRANCH  18  19
ENDBRANCH  17  18
ENDBRANCH  16  17
ENDBRANCH   8  16
TORSDOF 6
ENDMDL
MODEL      177
REMARK 921   NORMALIZED FREE ENERGY PREDICTED BY IDOCK:   -4.24 KCAL/MOL
REMARK 922        TOTAL FREE ENERGY PREDICTED BY IDOCK:   -6.94 KCAL/MOL
REMARK 923 INTER-LIGAND FREE ENERGY PREDICTED BY IDOCK:   -5.90 KCAL/MOL
REMARK 924 INTRA-LIGAND FREE ENERGY PREDICTED BY IDOCK:   -1.04 KCAL/MOL
REMARK 927      BINDING AFFINITY PREDICTED BY RF-SCORE:    0.00 PKD
ROOT
HETATM    1  O   UNL     1      -8.268   7.988  73.617  1.00  0.00    -0.185 OA 
HETATM    2  C   UNL     1      -8.727   7.374  72.399  1.00  0.00    -0.120 C  
HETATM    3  H   UNL     1      -7.318   7.962  73.614  1.00  0.00     0.000 HD 
HETATM    4  C   UNL     1     -10.267   7.417  72.403  1.00  0.00    -0.240 C  
HETATM    5  C   UNL     1      -8.135   8.170  71.217  1.00  0.00    -0.119 C  
HETATM    6  C   UNL     1     -10.794   8.838  72.196  1.00  0.00    -0.330 C  
HETATM    7  C   UNL     1      -8.789   9.544  71.055  1.00  0.00     0.160 C  
HETATM    8  N   UNL     1     -10.258   9.498  70.998  1.00  0.00    -0.292 NA 
ENDROOT
BRANCH   2   9
HETATM    9  C   UNL     1      -8.214   5.928  72.375  1.00  0.00    -0.110 A  
HETATM   10  C   UNL     1      -6.932   5.616  71.887  1.00  0.00    -0.076 A  
HETATM   11  C   UNL     1      -9.021   4.862  72.818  1.00  0.00    -0.129 A  
HETATM   12  C   UNL     1      -7.305   3.262  72.247  1.00  0.00    -0.051 A  
HETATM   13  C   UNL     1      -6.479   4.296  71.821  1.00  0.00    -0.019 A  
HETATM   14 BR   UNL     1      -6.706   1.474  72.128  1.00  0.00    -0.015 Br 
HETATM   15  C   UNL     1      -8.572   3.538  72.752  1.00  0.00    -0.089 A  
ENDBRANCH   2   9
BRANCH   8  16
HETATM   16  C   UNL     1     -10.731   8.912  69.730  1.00  0.00    -0.225 C  
BRANCH  16  17
HETATM   17  C   UNL     1     -10.672   9.866  68.532  1.00  0.00    -0.260 C  
BRANCH  17  18
HETATM   18  C   UNL     1     -11.786  10.912  68.557  1.00  0.00    -0.307 C  
BRANCH  18  19
HETATM   19  C   UNL     1     -11.261  12.264  69.000  1.00  0.00    -0.265 C  
HETATM   20  O   UNL     1     -10.235  12.763  68.545  1.00  0.00    -0.230 OA 
BRANCH  19  21
HETATM   21  C   UNL     1     -12.004  12.992  70.065  1.00  0.00    -0.383 A  
HETATM   22  C   UNL     1     -12.661  12.234  71.045  1.00  0.00    -0.352 A  
HETATM   23  C   UNL     1     -13.383  12.869  72.054  1.00  0.00    -0.579 A  
HETATM   24  C   UNL     1     -13.437  14.257  72.088  1.00  0.00    -0.433 A  
HETATM   25  F   UNL     1     -14.130  14.866  73.059  1.00  0.00    -0.426 F  
HETATM   26  C   UNL     1     -12.778  15.024  71.132  1.00  0.00    -0.431 A  
HETATM   27  C   UNL     1     -12.059  14.392  70.115  1.00  0.00    -0.397 A  
ENDBRANCH  19  21
ENDBRANCH  18  19
ENDBRANCH  17  18
ENDBRANCH  16  17
ENDBRANCH   8  16
TORSDOF 6
ENDMDL
MODEL      178
REMARK 921   NORMALIZED FREE ENERGY PREDICTED BY IDOCK:   -4.24 KCAL/MOL
REMARK 922        TOTAL FREE ENERGY PREDICTED BY IDOCK:   -6.94 KCAL/MOL
REMARK 923 INTER-LIGAND FREE ENERGY PREDICTED BY IDOCK:   -5.90 KCAL/MOL
REMARK 924 INTRA-LIGAND FREE ENERGY PREDICTED BY IDOCK:   -1.03 KCAL/MOL
REMARK 927      BINDING AFFINITY PREDICTED BY RF-SCORE:    0.00 PKD
ROOT
HETATM    1  O   UNL     1      -6.777   8.554  64.222  1.00  0.00    -0.070 OA 
HETATM    2  C   UNL     1      -7.720   8.673  65.302  1.00  0.00    -0.092 C  
HETATM    3  H   UNL     1      -6.423   9.419  64.050  1.00  0.00     0.000 HD 
HETATM    4  C   UNL     1      -8.296   7.272  65.581  1.00  0.00    -0.142 C  
HETATM    5  C   UNL     1      -6.969   9.237  66.526  1.00  0.00    -0.081 C  
HETATM    6  C   UNL     1      -7.260   6.355  66.236  1.00  0.00    -0.072 C  
HETATM    7  C   UNL     1      -6.018   8.211  67.149  1.00  0.00    -0.050 C  
HETATM    8  N   UNL     1      -6.656   6.920  67.450  1.00  0.00    -0.049 NA 
ENDROOT
BRANCH   2   9
HETATM    9  C   UNL     1      -8.823   9.646  64.863  1.00  0.00    -0.234 A  
HETATM   10  C   UNL     1      -9.696  10.232  65.798  1.00  0.00    -0.297 A  
HETATM   11  C   UNL     1      -9.014   9.965  63.504  1.00  0.00    -0.277 A  
HETATM   12  C   UNL     1     -10.906  11.363  64.048  1.00  0.00    -0.383 A  
HETATM   13  C   UNL     1     -10.729  11.082  65.397  1.00  0.00    -0.222 A  
HETATM   14 BR   UNL     1     -12.324  12.486  63.502  1.00  0.00    -0.574 Br 
HETATM   15  C   UNL     1     -10.050  10.815  63.098  1.00  0.00    -0.268 A  
ENDBRANCH   2   9
BRANCH   8  16
HETATM   16  C   UNL     1      -7.588   7.031  68.587  1.00  0.00    -0.108 C  
BRANCH  16  17
HETATM   17  C   UNL     1      -6.948   7.547  69.880  1.00  0.00    -0.059 C  
BRANCH  17  18
HETATM   18  C   UNL     1      -7.799   7.255  71.116  1.00  0.00    -0.093 C  
BRANCH  18  19
HETATM   19  C   UNL     1      -8.738   8.405  71.422  1.00  0.00    -0.172 C  
HETATM   20  O   UNL     1      -8.341   9.537  71.687  1.00  0.00    -0.117 OA 
BRANCH  19  21
HETATM   21  C   UNL     1     -10.201   8.132  71.446  1.00  0.00    -0.248 A  
HETATM   22  C   UNL     1     -10.657   6.939  70.867  1.00  0.00    -0.243 A  
HETATM   23  C   UNL     1     -12.020   6.645  70.849  1.00  0.00    -0.413 A  
HETATM   24  C   UNL     1     -12.920   7.537  71.419  1.00  0.00    -0.335 A  
HETATM   25  F   UNL     1     -14.229   7.253  71.402  1.00  0.00    -0.482 F  
HETATM   26  C   UNL     1     -12.482   8.718  72.010  1.00  0.00    -0.452 A  
HETATM   27  C   UNL     1     -11.119   9.020  72.024  1.00  0.00    -0.371 A  
ENDBRANCH  19  21
ENDBRANCH  18  19
ENDBRANCH  17  18
ENDBRANCH  16  17
ENDBRANCH   8  16
TORSDOF 6
ENDMDL
MODEL      179
REMARK 921   NORMALIZED FREE ENERGY PREDICTED BY IDOCK:   -4.23 KCAL/MOL
REMARK 922        TOTAL FREE ENERGY PREDICTED BY IDOCK:   -6.93 KCAL/MOL
REMARK 923 INTER-LIGAND FREE ENERGY PREDICTED BY IDOCK:   -4.79 KCAL/MOL
REMARK 924 INTRA-LIGAND FREE ENERGY PREDICTED BY IDOCK:   -2.13 KCAL/MOL
REMARK 927      BINDING AFFINITY PREDICTED BY RF-SCORE:    0.00 PKD
ROOT
HETATM    1  O   UNL     1      -9.903   8.851  65.378  1.00  0.00    -0.425 OA 
HETATM    2  C   UNL     1      -9.476   8.192  66.583  1.00  0.00    -0.213 C  
HETATM    3  H   UNL     1     -10.733   8.468  65.116  1.00  0.00     0.000 HD 
HETATM    4  C   UNL     1      -8.131   8.812  67.007  1.00  0.00    -0.099 C  
HETATM    5  C   UNL     1     -10.568   8.407  67.651  1.00  0.00    -0.265 C  
HETATM    6  C   UNL     1      -8.307  10.238  67.535  1.00  0.00    -0.114 C  
HETATM    7  C   UNL     1     -10.603   9.848  68.166  1.00  0.00    -0.227 C  
HETATM    8  N   UNL     1      -9.295  10.348  68.617  1.00  0.00    -0.159 NA 
ENDROOT
BRANCH   2   9
HETATM    9  C   UNL     1      -9.322   6.696  66.276  1.00  0.00    -0.144 A  
HETATM   10  C   UNL     1     -10.369   5.789  66.520  1.00  0.00    -0.265 A  
HETATM   11  C   UNL     1      -8.117   6.178  65.762  1.00  0.00    -0.124 A  
HETATM   12  C   UNL     1      -9.009   3.935  65.795  1.00  0.00    -0.131 A  
HETATM   13  C   UNL     1     -10.217   4.420  66.284  1.00  0.00    -0.211 A  
HETATM   14 BR   UNL     1      -8.792   2.080  65.507  1.00  0.00    -0.115 Br 
HETATM   15  C   UNL     1      -7.959   4.808  65.526  1.00  0.00    -0.095 A  
ENDBRANCH   2   9
BRANCH   8  16
HETATM   16  C   UNL     1      -8.878   9.707  69.877  1.00  0.00    -0.221 C  
BRANCH  16  17
HETATM   17  C   UNL     1     -10.037   9.294  70.790  1.00  0.00    -0.358 C  
BRANCH  17  18
HETATM   18  C   UNL     1      -9.570   8.518  72.021  1.00  0.00    -0.371 C  
BRANCH  18  19
HETATM   19  C   UNL     1      -8.378   7.638  71.698  1.00  0.00    -0.108 C  
HETATM   20  O   UNL     1      -7.222   7.956  71.967  1.00  0.00    -0.066 OA 
BRANCH  19  21
HETATM   21  C   UNL     1      -8.624   6.356  70.983  1.00  0.00    -0.131 A  
HETATM   22  C   UNL     1      -9.759   5.613  71.336  1.00  0.00    -0.204 A  
HETATM   23  C   UNL     1     -10.024   4.397  70.708  1.00  0.00    -0.247 A  
HETATM   24  C   UNL     1      -9.161   3.934  69.722  1.00  0.00    -0.143 A  
HETATM   25  F   UNL     1      -9.418   2.766  69.117  1.00  0.00    -0.203 F  
HETATM   26  C   UNL     1      -8.038   4.666  69.350  1.00  0.00    -0.069 A  
HETATM   27  C   UNL     1      -7.765   5.881  69.982  1.00  0.00    -0.088 A  
ENDBRANCH  19  21
ENDBRANCH  18  19
ENDBRANCH  17  18
ENDBRANCH  16  17
ENDBRANCH   8  16
TORSDOF 6
ENDMDL
MODEL      180
REMARK 921   NORMALIZED FREE ENERGY PREDICTED BY IDOCK:   -4.22 KCAL/MOL
REMARK 922        TOTAL FREE ENERGY PREDICTED BY IDOCK:   -6.92 KCAL/MOL
REMARK 923 INTER-LIGAND FREE ENERGY PREDICTED BY IDOCK:   -6.23 KCAL/MOL
REMARK 924 INTRA-LIGAND FREE ENERGY PREDICTED BY IDOCK:   -0.69 KCAL/MOL
REMARK 927      BINDING AFFINITY PREDICTED BY RF-SCORE:    0.00 PKD
ROOT
HETATM    1  O   UNL     1     -11.589  16.655  67.801  1.00  0.00     0.057 OA 
HETATM    2  C   UNL     1     -10.552  15.712  68.126  1.00  0.00    -0.274 C  
HETATM    3  H   UNL     1     -11.491  16.889  66.885  1.00  0.00     0.000 HD 
HETATM    4  C   UNL     1     -10.709  15.334  69.611  1.00  0.00    -0.289 C  
HETATM    5  C   UNL     1     -10.720  14.488  67.203  1.00  0.00    -0.286 C  
HETATM    6  C   UNL     1     -11.943  14.459  69.845  1.00  0.00    -0.335 C  
HETATM    7  C   UNL     1     -11.940  13.641  67.574  1.00  0.00    -0.358 C  
HETATM    8  N   UNL     1     -11.985  13.261  68.995  1.00  0.00    -0.311 NA 
ENDROOT
BRANCH   2   9
HETATM    9  C   UNL     1      -9.199  16.389  67.869  1.00  0.00    -0.202 A  
HETATM   10  C   UNL     1      -8.375  16.802  68.932  1.00  0.00    -0.222 A  
HETATM   11  C   UNL     1      -8.748  16.643  66.559  1.00  0.00    -0.317 A  
HETATM   12  C   UNL     1      -6.754  17.713  67.399  1.00  0.00    -0.160 A  
HETATM   13  C   UNL     1      -7.163  17.459  68.703  1.00  0.00    -0.237 A  
HETATM   14 BR   UNL     1      -5.132  18.632  67.088  1.00  0.00    -0.138 Br 
HETATM   15  C   UNL     1      -7.537  17.303  66.324  1.00  0.00    -0.360 A  
ENDBRANCH   2   9
BRANCH   8  16
HETATM   16  C   UNL     1     -10.953  12.260  69.320  1.00  0.00    -0.097 C  
BRANCH  16  17
HETATM   17  C   UNL     1     -11.461  10.814  69.345  1.00  0.00    -0.366 C  
BRANCH  17  18
HETATM   18  C   UNL     1     -10.442   9.842  69.938  1.00  0.00    -0.309 C  
BRANCH  18  19
HETATM   19  C   UNL     1     -10.631   8.442  69.387  1.00  0.00    -0.197 C  
HETATM   20  O   UNL     1     -10.796   8.213  68.191  1.00  0.00    -0.079 OA 
BRANCH  19  21
HETATM   21  C   UNL     1     -10.662   7.306  70.349  1.00  0.00    -0.253 A  
HETATM   22  C   UNL     1      -9.660   6.331  70.247  1.00  0.00    -0.182 A  
HETATM   23  C   UNL     1      -9.654   5.239  71.113  1.00  0.00    -0.218 A  
HETATM   24  C   UNL     1     -10.642   5.131  72.084  1.00  0.00    -0.211 A  
HETATM   25  F   UNL     1     -10.635   4.082  72.918  1.00  0.00    -0.211 F  
HETATM   26  C   UNL     1     -11.635   6.098  72.208  1.00  0.00    -0.362 A  
HETATM   27  C   UNL     1     -11.648   7.190  71.338  1.00  0.00    -0.316 A  
ENDBRANCH  19  21
ENDBRANCH  18  19
ENDBRANCH  17  18
ENDBRANCH  16  17
ENDBRANCH   8  16
TORSDOF 6
ENDMDL
MODEL      181
REMARK 921   NORMALIZED FREE ENERGY PREDICTED BY IDOCK:   -4.21 KCAL/MOL
REMARK 922        TOTAL FREE ENERGY PREDICTED BY IDOCK:   -6.90 KCAL/MOL
REMARK 923 INTER-LIGAND FREE ENERGY PREDICTED BY IDOCK:   -4.49 KCAL/MOL
REMARK 924 INTRA-LIGAND FREE ENERGY PREDICTED BY IDOCK:   -2.41 KCAL/MOL
REMARK 927      BINDING AFFINITY PREDICTED BY RF-SCORE:    0.00 PKD
ROOT
HETATM    1  O   UNL     1      -6.531   9.124  64.637  1.00  0.00    -0.073 OA 
HETATM    2  C   UNL     1      -7.242   8.062  65.298  1.00  0.00    -0.064 C  
HETATM    3  H   UNL     1      -6.123   9.661  65.308  1.00  0.00     0.000 HD 
HETATM    4  C   UNL     1      -7.903   7.193  64.212  1.00  0.00    -0.111 C  
HETATM    5  C   UNL     1      -6.224   7.259  66.132  1.00  0.00    -0.041 C  
HETATM    6  C   UNL     1      -6.870   6.374  63.435  1.00  0.00    -0.045 C  
HETATM    7  C   UNL     1      -5.291   6.417  65.259  1.00  0.00    -0.017 C  
HETATM    8  N   UNL     1      -5.997   5.561  64.293  1.00  0.00    -0.021 NA 
ENDROOT
BRANCH   2   9
HETATM    9  C   UNL     1      -8.297   8.697  66.215  1.00  0.00    -0.124 A  
HETATM   10  C   UNL     1      -9.449   9.308  65.688  1.00  0.00    -0.324 A  
HETATM   11  C   UNL     1      -8.132   8.711  67.614  1.00  0.00    -0.107 A  
HETATM   12  C   UNL     1     -10.190   9.942  67.893  1.00  0.00    -0.193 A  
HETATM   13  C   UNL     1     -10.389   9.927  66.517  1.00  0.00    -0.259 A  
HETATM   14 BR   UNL     1     -11.443  10.808  69.011  1.00  0.00    -0.377 Br 
HETATM   15  C   UNL     1      -9.069   9.332  68.447  1.00  0.00    -0.128 A  
ENDBRANCH   2   9
BRANCH   8  16
HETATM   16  C   UNL     1      -6.688   4.445  64.964  1.00  0.00    -0.048 C  
BRANCH  16  17
HETATM   17  C   UNL     1      -7.708   3.713  64.085  1.00  0.00    -0.080 C  
BRANCH  17  18
HETATM   18  C   UNL     1      -9.124   3.765  64.658  1.00  0.00    -0.138 C  
BRANCH  18  19
HETATM   19  C   UNL     1      -9.135   3.403  66.130  1.00  0.00    -0.152 C  
HETATM   20  O   UNL     1      -8.710   2.333  66.558  1.00  0.00    -0.110 OA 
BRANCH  19  21
HETATM   21  C   UNL     1      -9.731   4.375  67.088  1.00  0.00    -0.230 A  
HETATM   22  C   UNL     1     -10.529   5.404  66.571  1.00  0.00    -0.352 A  
HETATM   23  C   UNL     1     -11.096   6.349  67.425  1.00  0.00    -0.412 A  
HETATM   24  C   UNL     1     -10.872   6.254  68.793  1.00  0.00    -0.333 A  
HETATM   25  F   UNL     1     -11.419   7.162  69.614  1.00  0.00    -0.237 F  
HETATM   26  C   UNL     1     -10.094   5.231  69.325  1.00  0.00    -0.300 A  
HETATM   27  C   UNL     1      -9.519   4.287  68.472  1.00  0.00    -0.216 A  
ENDBRANCH  19  21
ENDBRANCH  18  19
ENDBRANCH  17  18
ENDBRANCH  16  17
ENDBRANCH   8  16
TORSDOF 6
ENDMDL
MODEL      182
REMARK 921   NORMALIZED FREE ENERGY PREDICTED BY IDOCK:   -4.18 KCAL/MOL
REMARK 922        TOTAL FREE ENERGY PREDICTED BY IDOCK:   -6.86 KCAL/MOL
REMARK 923 INTER-LIGAND FREE ENERGY PREDICTED BY IDOCK:   -5.92 KCAL/MOL
REMARK 924 INTRA-LIGAND FREE ENERGY PREDICTED BY IDOCK:   -0.94 KCAL/MOL
REMARK 927      BINDING AFFINITY PREDICTED BY RF-SCORE:    0.00 PKD
ROOT
HETATM    1  O   UNL     1      -9.299  10.597  69.721  1.00  0.00    -0.409 OA 
HETATM    2  C   UNL     1      -9.886  10.451  68.416  1.00  0.00    -0.162 C  
HETATM    3  H   UNL     1      -8.375  10.383  69.649  1.00  0.00     0.000 HD 
HETATM    4  C   UNL     1     -11.382  10.797  68.532  1.00  0.00    -0.360 C  
HETATM    5  C   UNL     1      -9.150  11.410  67.458  1.00  0.00    -0.157 C  
HETATM    6  C   UNL     1     -11.601  12.296  68.754  1.00  0.00    -0.330 C  
HETATM    7  C   UNL     1      -9.501  12.877  67.717  1.00  0.00    -0.202 C  
HETATM    8  N   UNL     1     -10.948  13.142  67.746  1.00  0.00    -0.245 NA 
ENDROOT
BRANCH   2   9
HETATM    9  C   UNL     1      -9.688   8.997  67.967  1.00  0.00    -0.179 A  
HETATM   10  C   UNL     1     -10.757   8.240  67.452  1.00  0.00    -0.236 A  
HETATM   11  C   UNL     1      -8.435   8.364  68.079  1.00  0.00    -0.132 A  
HETATM   12  C   UNL     1      -9.348   6.298  67.225  1.00  0.00    -0.118 A  
HETATM   13  C   UNL     1     -10.592   6.902  67.085  1.00  0.00    -0.408 A  
HETATM   14 BR   UNL     1      -9.131   4.479  66.760  1.00  0.00    -0.138 Br 
HETATM   15  C   UNL     1      -8.266   7.023  67.715  1.00  0.00    -0.114 A  
ENDBRANCH   2   9
BRANCH   8  16
HETATM   16  C   UNL     1     -11.543  13.040  66.401  1.00  0.00    -0.363 C  
BRANCH  16  17
HETATM   17  C   UNL     1     -11.901  14.387  65.764  1.00  0.00    -0.365 C  
BRANCH  17  18
HETATM   18  C   UNL     1     -10.683  15.107  65.187  1.00  0.00    -0.442 C  
BRANCH  18  19
HETATM   19  C   UNL     1     -10.257  16.264  66.070  1.00  0.00    -0.358 C  
HETATM   20  O   UNL     1     -10.834  17.349  66.071  1.00  0.00    -0.174 OA 
BRANCH  19  21
HETATM   21  C   UNL     1      -9.061  16.084  66.937  1.00  0.00    -0.251 A  
HETATM   22  C   UNL     1      -9.228  16.208  68.323  1.00  0.00    -0.197 A  
HETATM   23  C   UNL     1      -8.136  16.064  69.177  1.00  0.00    -0.238 A  
HETATM   24  C   UNL     1      -6.883  15.786  68.643  1.00  0.00    -0.122 A  
HETATM   25  F   UNL     1      -5.833  15.647  69.465  1.00  0.00    -0.106 F  
HETATM   26  C   UNL     1      -6.702  15.646  67.271  1.00  0.00    -0.167 A  
HETATM   27  C   UNL     1      -7.793  15.795  66.412  1.00  0.00     0.058 A  
ENDBRANCH  19  21
ENDBRANCH  18  19
ENDBRANCH  17  18
ENDBRANCH  16  17
ENDBRANCH   8  16
TORSDOF 6
ENDMDL
MODEL      183
REMARK 921   NORMALIZED FREE ENERGY PREDICTED BY IDOCK:   -4.18 KCAL/MOL
REMARK 922        TOTAL FREE ENERGY PREDICTED BY IDOCK:   -6.85 KCAL/MOL
REMARK 923 INTER-LIGAND FREE ENERGY PREDICTED BY IDOCK:   -6.85 KCAL/MOL
REMARK 924 INTRA-LIGAND FREE ENERGY PREDICTED BY IDOCK:   -0.00 KCAL/MOL
REMARK 927      BINDING AFFINITY PREDICTED BY RF-SCORE:    0.00 PKD
ROOT
HETATM    1  O   UNL     1     -10.808   5.203  71.385  1.00  0.00    -0.144 OA 
HETATM    2  C   UNL     1     -10.894   6.293  70.449  1.00  0.00    -0.299 C  
HETATM    3  H   UNL     1      -9.921   4.863  71.353  1.00  0.00     0.000 HD 
HETATM    4  C   UNL     1     -12.331   6.844  70.500  1.00  0.00    -0.177 C  
HETATM    5  C   UNL     1      -9.858   7.356  70.866  1.00  0.00    -0.177 C  
HETATM    6  C   UNL     1     -12.603   7.596  71.805  1.00  0.00    -0.331 C  
HETATM    7  C   UNL     1     -10.267   8.101  72.139  1.00  0.00    -0.262 C  
HETATM    8  N   UNL     1     -11.628   8.658  72.087  1.00  0.00    -0.364 NA 
ENDROOT
BRANCH   2   9
HETATM    9  C   UNL     1     -10.561   5.746  69.054  1.00  0.00    -0.351 A  
HETATM   10  C   UNL     1      -9.753   4.606  68.890  1.00  0.00    -0.236 A  
HETATM   11  C   UNL     1     -11.033   6.384  67.890  1.00  0.00    -0.416 A  
HETATM   12  C   UNL     1      -9.875   4.793  66.490  1.00  0.00    -0.217 A  
HETATM   13  C   UNL     1      -9.411   4.132  67.621  1.00  0.00    -0.208 A  
HETATM   14 BR   UNL     1      -9.385   4.173  64.774  1.00  0.00    -0.171 Br 
HETATM   15  C   UNL     1     -10.690   5.914  66.617  1.00  0.00    -0.323 A  
ENDBRANCH   2   9
BRANCH   8  16
HETATM   16  C   UNL     1     -11.707   9.804  71.164  1.00  0.00    -0.385 C  
BRANCH  16  17
HETATM   17  C   UNL     1     -11.124   9.536  69.772  1.00  0.00    -0.216 C  
BRANCH  17  18
HETATM   18  C   UNL     1     -10.188  10.649  69.302  1.00  0.00    -0.235 C  
BRANCH  18  19
HETATM   19  C   UNL     1      -9.312  10.183  68.155  1.00  0.00    -0.135 C  
HETATM   20  O   UNL     1      -8.265   9.562  68.325  1.00  0.00    -0.111 OA 
BRANCH  19  21
HETATM   21  C   UNL     1      -9.721  10.537  66.768  1.00  0.00    -0.220 A  
HETATM   22  C   UNL     1      -9.259   9.730  65.720  1.00  0.00    -0.242 A  
HETATM   23  C   UNL     1      -9.601  10.028  64.402  1.00  0.00    -0.325 A  
HETATM   24  C   UNL     1     -10.413  11.125  64.138  1.00  0.00    -0.377 A  
HETATM   25  F   UNL     1     -10.742  11.410  62.871  1.00  0.00    -0.287 F  
HETATM   26  C   UNL     1     -10.892  11.928  65.168  1.00  0.00    -0.350 A  
HETATM   27  C   UNL     1     -10.546  11.636  66.489  1.00  0.00    -0.292 A  
ENDBRANCH  19  21
ENDBRANCH  18  19
ENDBRANCH  17  18
ENDBRANCH  16  17
ENDBRANCH   8  16
TORSDOF 6
ENDMDL
MODEL      184
REMARK 921   NORMALIZED FREE ENERGY PREDICTED BY IDOCK:   -4.17 KCAL/MOL
REMARK 922        TOTAL FREE ENERGY PREDICTED BY IDOCK:   -6.85 KCAL/MOL
REMARK 923 INTER-LIGAND FREE ENERGY PREDICTED BY IDOCK:   -5.97 KCAL/MOL
REMARK 924 INTRA-LIGAND FREE ENERGY PREDICTED BY IDOCK:   -0.89 KCAL/MOL
REMARK 927      BINDING AFFINITY PREDICTED BY RF-SCORE:    0.00 PKD
ROOT
HETATM    1  O   UNL     1      -6.737   7.660  66.049  1.00  0.00    -0.045 OA 
HETATM    2  C   UNL     1      -8.089   7.402  66.470  1.00  0.00    -0.117 C  
HETATM    3  H   UNL     1      -6.751   7.824  65.113  1.00  0.00     0.000 HD 
HETATM    4  C   UNL     1      -8.066   7.135  67.987  1.00  0.00    -0.120 C  
HETATM    5  C   UNL     1      -8.937   8.641  66.119  1.00  0.00    -0.221 C  
HETATM    6  C   UNL     1      -7.782   8.412  68.781  1.00  0.00    -0.102 C  
HETATM    7  C   UNL     1      -8.627   9.835  67.025  1.00  0.00    -0.124 C  
HETATM    8  N   UNL     1      -8.692   9.520  68.461  1.00  0.00    -0.123 NA 
ENDROOT
BRANCH   2   9
HETATM    9  C   UNL     1      -8.598   6.175  65.701  1.00  0.00    -0.148 A  
HETATM   10  C   UNL     1      -8.092   5.848  64.430  1.00  0.00    -0.128 A  
HETATM   11  C   UNL     1      -9.609   5.350  66.233  1.00  0.00    -0.175 A  
HETATM   12  C   UNL     1      -9.596   3.973  64.249  1.00  0.00    -0.166 A  
HETATM   13  C   UNL     1      -8.585   4.758  63.708  1.00  0.00    -0.133 A  
HETATM   14 BR   UNL     1     -10.287   2.519  63.259  1.00  0.00    -0.181 Br 
HETATM   15  C   UNL     1     -10.107   4.259  65.512  1.00  0.00    -0.235 A  
ENDBRANCH   2   9
BRANCH   8  16
HETATM   16  C   UNL     1     -10.081   9.301  68.904  1.00  0.00    -0.195 C  
BRANCH  16  17
HETATM   17  C   UNL     1     -10.584  10.320  69.933  1.00  0.00    -0.324 C  
BRANCH  17  18
HETATM   18  C   UNL     1     -11.440  11.419  69.304  1.00  0.00    -0.370 C  
BRANCH  18  19
HETATM   19  C   UNL     1     -10.602  12.344  68.443  1.00  0.00    -0.236 C  
HETATM   20  O   UNL     1      -9.546  12.840  68.829  1.00  0.00    -0.065 OA 
BRANCH  19  21
HETATM   21  C   UNL     1     -11.111  12.698  67.090  1.00  0.00    -0.321 A  
HETATM   22  C   UNL     1     -11.713  13.952  66.921  1.00  0.00    -0.425 A  
HETATM   23  C   UNL     1     -12.220  14.324  65.676  1.00  0.00    -0.409 A  
HETATM   24  C   UNL     1     -12.112  13.447  64.604  1.00  0.00    -0.410 A  
HETATM   25  F   UNL     1     -12.598  13.806  63.407  1.00  0.00    -0.459 F  
HETATM   26  C   UNL     1     -11.504  12.204  64.751  1.00  0.00    -0.377 A  
HETATM   27  C   UNL     1     -11.001  11.826  65.997  1.00  0.00    -0.355 A  
ENDBRANCH  19  21
ENDBRANCH  18  19
ENDBRANCH  17  18
ENDBRANCH  16  17
ENDBRANCH   8  16
TORSDOF 6
ENDMDL
MODEL      185
REMARK 921   NORMALIZED FREE ENERGY PREDICTED BY IDOCK:   -4.14 KCAL/MOL
REMARK 922        TOTAL FREE ENERGY PREDICTED BY IDOCK:   -6.80 KCAL/MOL
REMARK 923 INTER-LIGAND FREE ENERGY PREDICTED BY IDOCK:   -5.81 KCAL/MOL
REMARK 924 INTRA-LIGAND FREE ENERGY PREDICTED BY IDOCK:   -0.98 KCAL/MOL
REMARK 927      BINDING AFFINITY PREDICTED BY RF-SCORE:    0.00 PKD
ROOT
HETATM    1  O   UNL     1      -7.369  12.408  68.669  1.00  0.00    -0.105 OA 
HETATM    2  C   UNL     1      -8.169  11.467  67.930  1.00  0.00    -0.134 C  
HETATM    3  H   UNL     1      -7.959  12.955  69.175  1.00  0.00     0.000 HD 
HETATM    4  C   UNL     1      -7.214  10.580  67.111  1.00  0.00    -0.092 C  
HETATM    5  C   UNL     1      -8.987  10.643  68.944  1.00  0.00    -0.172 C  
HETATM    6  C   UNL     1      -6.432   9.614  68.004  1.00  0.00    -0.057 C  
HETATM    7  C   UNL     1      -8.119   9.656  69.728  1.00  0.00    -0.155 C  
HETATM    8  N   UNL     1      -7.285   8.795  68.875  1.00  0.00    -0.073 NA 
ENDROOT
BRANCH   2   9
HETATM    9  C   UNL     1      -9.108  12.263  67.012  1.00  0.00    -0.201 A  
HETATM   10  C   UNL     1      -9.076  13.669  66.978  1.00  0.00    -0.254 A  
HETATM   11  C   UNL     1     -10.051  11.611  66.193  1.00  0.00    -0.259 A  
HETATM   12  C   UNL     1     -10.893  13.728  65.394  1.00  0.00    -0.312 A  
HETATM   13  C   UNL     1      -9.960  14.398  66.178  1.00  0.00    -0.328 A  
HETATM   14 BR   UNL     1     -12.110  14.714  64.337  1.00  0.00    -0.407 Br 
HETATM   15  C   UNL     1     -10.939  12.337  65.392  1.00  0.00    -0.341 A  
ENDBRANCH   2   9
BRANCH   8  16
HETATM   16  C   UNL     1      -8.099   7.800  68.152  1.00  0.00    -0.123 C  
BRANCH  16  17
HETATM   17  C   UNL     1      -7.732   6.343  68.456  1.00  0.00    -0.104 C  
BRANCH  17  18
HETATM   18  C   UNL     1      -8.708   5.348  67.831  1.00  0.00    -0.106 C  
BRANCH  18  19
HETATM   19  C   UNL     1     -10.133   5.623  68.271  1.00  0.00    -0.169 C  
HETATM   20  O   UNL     1     -11.024   5.939  67.487  1.00  0.00    -0.282 OA 
BRANCH  19  21
HETATM   21  C   UNL     1     -10.446   5.548  69.725  1.00  0.00    -0.389 A  
HETATM   22  C   UNL     1      -9.986   4.434  70.440  1.00  0.00    -0.253 A  
HETATM   23  C   UNL     1     -10.267   4.310  71.800  1.00  0.00    -0.182 A  
HETATM   24  C   UNL     1     -10.998   5.303  72.441  1.00  0.00    -0.212 A  
HETATM   25  F   UNL     1     -11.267   5.183  73.748  1.00  0.00    -0.342 F  
HETATM   26  C   UNL     1     -11.450   6.422  71.748  1.00  0.00    -0.349 A  
HETATM   27  C   UNL     1     -11.176   6.547  70.385  1.00  0.00    -0.414 A  
ENDBRANCH  19  21
ENDBRANCH  18  19
ENDBRANCH  17  18
ENDBRANCH  16  17
ENDBRANCH   8  16
TORSDOF 6
ENDMDL
MODEL      186
REMARK 921   NORMALIZED FREE ENERGY PREDICTED BY IDOCK:   -4.11 KCAL/MOL
REMARK 922        TOTAL FREE ENERGY PREDICTED BY IDOCK:   -6.76 KCAL/MOL
REMARK 923 INTER-LIGAND FREE ENERGY PREDICTED BY IDOCK:   -5.65 KCAL/MOL
REMARK 924 INTRA-LIGAND FREE ENERGY PREDICTED BY IDOCK:   -1.11 KCAL/MOL
REMARK 927      BINDING AFFINITY PREDICTED BY RF-SCORE:    0.00 PKD
ROOT
HETATM    1  O   UNL     1      -5.196  13.419  69.415  1.00  0.00    -0.078 OA 
HETATM    2  C   UNL     1      -6.386  13.977  68.830  1.00  0.00    -0.090 C  
HETATM    3  H   UNL     1      -4.774  12.879  68.755  1.00  0.00     0.000 HD 
HETATM    4  C   UNL     1      -7.069  14.851  69.898  1.00  0.00    -0.109 C  
HETATM    5  C   UNL     1      -5.965  14.803  67.598  1.00  0.00    -0.060 C  
HETATM    6  C   UNL     1      -6.282  16.136  70.167  1.00  0.00    -0.051 C  
HETATM    7  C   UNL     1      -5.255  16.103  67.983  1.00  0.00    -0.116 C  
HETATM    8  N   UNL     1      -6.000  16.918  68.956  1.00  0.00    -0.158 NA 
ENDROOT
BRANCH   2   9
HETATM    9  C   UNL     1      -7.294  12.814  68.404  1.00  0.00    -0.118 A  
HETATM   10  C   UNL     1      -6.774  11.527  68.177  1.00  0.00    -0.062 A  
HETATM   11  C   UNL     1      -8.675  13.005  68.202  1.00  0.00    -0.190 A  
HETATM   12  C   UNL     1      -8.945  10.700  67.535  1.00  0.00    -0.135 A  
HETATM   13  C   UNL     1      -7.589  10.478  67.745  1.00  0.00    -0.088 A  
HETATM   14 BR   UNL     1     -10.042   9.290  66.920  1.00  0.00    -0.336 Br 
HETATM   15  C   UNL     1      -9.495  11.957  67.768  1.00  0.00    -0.184 A  
ENDBRANCH   2   9
BRANCH   8  16
HETATM   16  C   UNL     1      -7.195  17.528  68.345  1.00  0.00    -0.226 C  
BRANCH  16  17
HETATM   17  C   UNL     1      -7.392  19.009  68.686  1.00  0.00    -0.353 C  
BRANCH  17  18
HETATM   18  C   UNL     1      -8.205  19.754  67.627  1.00  0.00    -0.340 C  
BRANCH  18  19
HETATM   19  C   UNL     1      -9.688  19.478  67.777  1.00  0.00    -0.354 C  
HETATM   20  O   UNL     1     -10.491  20.330  68.152  1.00  0.00    -0.313 OA 
BRANCH  19  21
HETATM   21  C   UNL     1     -10.179  18.101  67.500  1.00  0.00    -0.382 A  
HETATM   22  C   UNL     1     -10.640  17.336  68.580  1.00  0.00    -0.329 A  
HETATM   23  C   UNL     1     -11.095  16.035  68.375  1.00  0.00    -0.351 A  
HETATM   24  C   UNL     1     -11.099  15.506  67.089  1.00  0.00    -0.256 A  
HETATM   25  F   UNL     1     -11.537  14.255  66.893  1.00  0.00    -0.324 F  
HETATM   26  C   UNL     1     -10.658  16.257  66.004  1.00  0.00    -0.288 A  
HETATM   27  C   UNL     1     -10.195  17.558  66.207  1.00  0.00    -0.356 A  
ENDBRANCH  19  21
ENDBRANCH  18  19
ENDBRANCH  17  18
ENDBRANCH  16  17
ENDBRANCH   8  16
TORSDOF 6
ENDMDL
MODEL      187
REMARK 921   NORMALIZED FREE ENERGY PREDICTED BY IDOCK:   -4.10 KCAL/MOL
REMARK 922        TOTAL FREE ENERGY PREDICTED BY IDOCK:   -6.76 KCAL/MOL
REMARK 923 INTER-LIGAND FREE ENERGY PREDICTED BY IDOCK:   -5.79 KCAL/MOL
REMARK 924 INTRA-LIGAND FREE ENERGY PREDICTED BY IDOCK:   -0.96 KCAL/MOL
REMARK 927      BINDING AFFINITY PREDICTED BY RF-SCORE:    0.00 PKD
ROOT
HETATM    1  O   UNL     1     -10.122  14.154  69.562  1.00  0.00    -0.418 OA 
HETATM    2  C   UNL     1      -9.929  14.310  68.145  1.00  0.00    -0.230 C  
HETATM    3  H   UNL     1     -10.924  14.609  69.796  1.00  0.00     0.000 HD 
HETATM    4  C   UNL     1      -8.630  13.574  67.765  1.00  0.00    -0.183 C  
HETATM    5  C   UNL     1     -11.156  13.708  67.431  1.00  0.00    -0.299 C  
HETATM    6  C   UNL     1      -8.796  12.055  67.842  1.00  0.00    -0.174 C  
HETATM    7  C   UNL     1     -11.182  12.179  67.504  1.00  0.00    -0.297 C  
HETATM    8  N   UNL     1      -9.930  11.545  67.061  1.00  0.00    -0.198 NA 
ENDROOT
BRANCH   2   9
HETATM    9  C   UNL     1      -9.822  15.811  67.843  1.00  0.00    -0.217 A  
HETATM   10  C   UNL     1      -9.562  16.277  66.541  1.00  0.00    -0.286 A  
HETATM   11  C   UNL     1      -9.957  16.771  68.865  1.00  0.00    -0.271 A  
HETATM   12  C   UNL     1      -9.538  18.564  67.303  1.00  0.00    -0.294 A  
HETATM   13  C   UNL     1      -9.419  17.641  66.271  1.00  0.00    -0.232 A  
HETATM   14 BR   UNL     1      -9.313  20.406  66.945  1.00  0.00    -0.444 Br 
HETATM   15  C   UNL     1      -9.814  18.137  68.599  1.00  0.00    -0.389 A  
ENDBRANCH   2   9
BRANCH   8  16
HETATM   16  C   UNL     1      -9.753  11.663  65.602  1.00  0.00    -0.236 C  
BRANCH  16  17
HETATM   17  C   UNL     1      -9.767  10.325  64.854  1.00  0.00    -0.385 C  
BRANCH  17  18
HETATM   18  C   UNL     1      -9.735   9.123  65.797  1.00  0.00    -0.299 C  
BRANCH  18  19
HETATM   19  C   UNL     1      -8.371   8.461  65.801  1.00  0.00    -0.146 C  
HETATM   20  O   UNL     1      -7.394   8.951  66.361  1.00  0.00    -0.086 OA 
BRANCH  19  21
HETATM   21  C   UNL     1      -8.207   7.185  65.053  1.00  0.00    -0.095 A  
HETATM   22  C   UNL     1      -8.466   5.986  65.732  1.00  0.00    -0.146 A  
HETATM   23  C   UNL     1      -8.311   4.764  65.080  1.00  0.00    -0.132 A  
HETATM   24  C   UNL     1      -7.908   4.744  63.750  1.00  0.00    -0.085 A  
HETATM   25  F   UNL     1      -7.761   3.568  63.124  1.00  0.00    -0.061 F  
HETATM   26  C   UNL     1      -7.661   5.925  63.057  1.00  0.00    -0.081 A  
HETATM   27  C   UNL     1      -7.809   7.151  63.709  1.00  0.00    -0.110 A  
ENDBRANCH  19  21
ENDBRANCH  18  19
ENDBRANCH  17  18
ENDBRANCH  16  17
ENDBRANCH   8  16
TORSDOF 6
ENDMDL
MODEL      188
REMARK 921   NORMALIZED FREE ENERGY PREDICTED BY IDOCK:   -4.10 KCAL/MOL
REMARK 922        TOTAL FREE ENERGY PREDICTED BY IDOCK:   -6.75 KCAL/MOL
REMARK 923 INTER-LIGAND FREE ENERGY PREDICTED BY IDOCK:   -5.70 KCAL/MOL
REMARK 924 INTRA-LIGAND FREE ENERGY PREDICTED BY IDOCK:   -1.06 KCAL/MOL
REMARK 927      BINDING AFFINITY PREDICTED BY RF-SCORE:    0.00 PKD
ROOT
HETATM    1  O   UNL     1      -7.068   9.567  64.207  1.00  0.00    -0.099 OA 
HETATM    2  C   UNL     1      -7.869   9.609  65.402  1.00  0.00    -0.117 C  
HETATM    3  H   UNL     1      -6.662  10.420  64.100  1.00  0.00     0.000 HD 
HETATM    4  C   UNL     1      -8.526   8.228  65.577  1.00  0.00    -0.177 C  
HETATM    5  C   UNL     1      -6.937   9.953  66.583  1.00  0.00    -0.086 C  
HETATM    6  C   UNL     1      -7.506   7.162  65.982  1.00  0.00    -0.080 C  
HETATM    7  C   UNL     1      -6.014   8.790  66.954  1.00  0.00    -0.057 C  
HETATM    8  N   UNL     1      -6.722   7.519  67.172  1.00  0.00    -0.065 NA 
ENDROOT
BRANCH   2   9
HETATM    9  C   UNL     1      -8.927  10.707  65.224  1.00  0.00    -0.209 A  
HETATM   10  C   UNL     1      -9.639  10.845  64.020  1.00  0.00    -0.321 A  
HETATM   11  C   UNL     1      -9.201  11.628  66.254  1.00  0.00    -0.225 A  
HETATM   12  C   UNL     1     -10.806  12.778  64.865  1.00  0.00    -0.299 A  
HETATM   13  C   UNL     1     -10.571  11.871  63.838  1.00  0.00    -0.444 A  
HETATM   14 BR   UNL     1     -12.041  14.185  64.609  1.00  0.00    -0.480 Br 
HETATM   15  C   UNL     1     -10.131  12.658  66.076  1.00  0.00    -0.274 A  
ENDBRANCH   2   9
BRANCH   8  16
HETATM   16  C   UNL     1      -7.505   7.544  68.420  1.00  0.00    -0.108 C  
BRANCH  16  17
HETATM   17  C   UNL     1      -8.596   6.471  68.503  1.00  0.00    -0.123 C  
BRANCH  17  18
HETATM   18  C   UNL     1      -8.747   5.892  69.910  1.00  0.00    -0.129 C  
BRANCH  18  19
HETATM   19  C   UNL     1      -8.920   6.989  70.941  1.00  0.00    -0.152 C  
HETATM   20  O   UNL     1      -8.046   7.285  71.753  1.00  0.00    -0.099 OA 
BRANCH  19  21
HETATM   21  C   UNL     1     -10.224   7.704  70.996  1.00  0.00    -0.200 A  
HETATM   22  C   UNL     1     -10.205   9.104  71.074  1.00  0.00    -0.372 A  
HETATM   23  C   UNL     1     -11.399   9.819  71.144  1.00  0.00    -0.459 A  
HETATM   24  C   UNL     1     -12.608   9.134  71.124  1.00  0.00    -0.233 A  
HETATM   25  F   UNL     1     -13.756   9.822  71.190  1.00  0.00    -0.408 F  
HETATM   26  C   UNL     1     -12.646   7.746  71.032  1.00  0.00    -0.140 A  
HETATM   27  C   UNL     1     -11.451   7.026  70.968  1.00  0.00    -0.343 A  
ENDBRANCH  19  21
ENDBRANCH  18  19
ENDBRANCH  17  18
ENDBRANCH  16  17
ENDBRANCH   8  16
TORSDOF 6
ENDMDL
MODEL      189
REMARK 921   NORMALIZED FREE ENERGY PREDICTED BY IDOCK:   -4.10 KCAL/MOL
REMARK 922        TOTAL FREE ENERGY PREDICTED BY IDOCK:   -6.75 KCAL/MOL
REMARK 923 INTER-LIGAND FREE ENERGY PREDICTED BY IDOCK:   -5.87 KCAL/MOL
REMARK 924 INTRA-LIGAND FREE ENERGY PREDICTED BY IDOCK:   -0.88 KCAL/MOL
REMARK 927      BINDING AFFINITY PREDICTED BY RF-SCORE:    0.00 PKD
ROOT
HETATM    1  O   UNL     1      -7.073   8.164  67.896  1.00  0.00    -0.079 OA 
HETATM    2  C   UNL     1      -7.852   7.852  66.727  1.00  0.00    -0.103 C  
HETATM    3  H   UNL     1      -6.185   7.862  67.742  1.00  0.00     0.000 HD 
HETATM    4  C   UNL     1      -9.291   8.340  66.977  1.00  0.00    -0.203 C  
HETATM    5  C   UNL     1      -7.206   8.569  65.524  1.00  0.00    -0.083 C  
HETATM    6  C   UNL     1      -9.383   9.868  66.955  1.00  0.00    -0.152 C  
HETATM    7  C   UNL     1      -7.424  10.083  65.562  1.00  0.00    -0.137 C  
HETATM    8  N   UNL     1      -8.833  10.473  65.735  1.00  0.00    -0.168 NA 
ENDROOT
BRANCH   2   9
HETATM    9  C   UNL     1      -7.812   6.331  66.523  1.00  0.00    -0.104 A  
HETATM   10  C   UNL     1      -6.668   5.581  66.849  1.00  0.00    -0.062 A  
HETATM   11  C   UNL     1      -8.912   5.640  65.978  1.00  0.00    -0.158 A  
HETATM   12  C   UNL     1      -7.705   3.551  66.065  1.00  0.00    -0.082 A  
HETATM   13  C   UNL     1      -6.611   4.203  66.623  1.00  0.00    -0.046 A  
HETATM   14 BR   UNL     1      -7.617   1.694  65.727  1.00  0.00    -0.067 Br 
HETATM   15  C   UNL     1      -8.859   4.261  65.747  1.00  0.00    -0.121 A  
ENDBRANCH   2   9
BRANCH   8  16
HETATM   16  C   UNL     1      -9.622  10.198  64.520  1.00  0.00    -0.311 C  
BRANCH  16  17
HETATM   17  C   UNL     1     -10.887  11.051  64.382  1.00  0.00    -0.263 C  
BRANCH  17  18
HETATM   18  C   UNL     1     -10.630  12.371  63.654  1.00  0.00    -0.481 C  
BRANCH  18  19
HETATM   19  C   UNL     1     -11.466  13.493  64.237  1.00  0.00    -0.383 C  
HETATM   20  O   UNL     1     -12.672  13.606  64.025  1.00  0.00    -0.666 OA 
BRANCH  19  21
HETATM   21  C   UNL     1     -10.782  14.523  65.065  1.00  0.00    -0.444 A  
HETATM   22  C   UNL     1     -11.146  15.864  64.879  1.00  0.00    -0.400 A  
HETATM   23  C   UNL     1     -10.523  16.868  65.619  1.00  0.00    -0.252 A  
HETATM   24  C   UNL     1      -9.547  16.528  66.548  1.00  0.00    -0.271 A  
HETATM   25  F   UNL     1      -8.950  17.494  67.260  1.00  0.00    -0.225 F  
HETATM   26  C   UNL     1      -9.185  15.201  66.755  1.00  0.00    -0.277 A  
HETATM   27  C   UNL     1      -9.802  14.193  66.012  1.00  0.00    -0.329 A  
ENDBRANCH  19  21
ENDBRANCH  18  19
ENDBRANCH  17  18
ENDBRANCH  16  17
ENDBRANCH   8  16
TORSDOF 6
ENDMDL
MODEL      190
REMARK 921   NORMALIZED FREE ENERGY PREDICTED BY IDOCK:   -4.09 KCAL/MOL
REMARK 922        TOTAL FREE ENERGY PREDICTED BY IDOCK:   -6.73 KCAL/MOL
REMARK 923 INTER-LIGAND FREE ENERGY PREDICTED BY IDOCK:   -5.06 KCAL/MOL
REMARK 924 INTRA-LIGAND FREE ENERGY PREDICTED BY IDOCK:   -1.68 KCAL/MOL
REMARK 927      BINDING AFFINITY PREDICTED BY RF-SCORE:    0.00 PKD
ROOT
HETATM    1  O   UNL     1      -5.479  11.141  68.439  1.00  0.00    -0.043 OA 
HETATM    2  C   UNL     1      -6.858  11.547  68.377  1.00  0.00    -0.070 C  
HETATM    3  H   UNL     1      -5.127  11.437  69.270  1.00  0.00     0.000 HD 
HETATM    4  C   UNL     1      -7.430  11.068  67.030  1.00  0.00    -0.127 C  
HETATM    5  C   UNL     1      -7.593  10.905  69.571  1.00  0.00    -0.057 C  
HETATM    6  C   UNL     1      -7.602   9.548  66.996  1.00  0.00    -0.091 C  
HETATM    7  C   UNL     1      -7.780   9.396  69.397  1.00  0.00    -0.085 C  
HETATM    8  N   UNL     1      -8.394   9.020  68.114  1.00  0.00    -0.120 NA 
ENDROOT
BRANCH   2   9
HETATM    9  C   UNL     1      -6.906  13.078  68.485  1.00  0.00    -0.095 A  
HETATM   10  C   UNL     1      -6.763  13.727  69.725  1.00  0.00     0.027 A  
HETATM   11  C   UNL     1      -7.121  13.882  67.349  1.00  0.00    -0.091 A  
HETATM   12  C   UNL     1      -7.084  15.884  68.698  1.00  0.00    -0.133 A  
HETATM   13  C   UNL     1      -6.852  15.117  69.834  1.00  0.00    -0.154 A  
HETATM   14 BR   UNL     1      -7.237  17.761  68.849  1.00  0.00    -0.225 Br 
HETATM   15  C   UNL     1      -7.212  15.274  67.454  1.00  0.00    -0.235 A  
ENDBRANCH   2   9
BRANCH   8  16
HETATM   16  C   UNL     1      -9.819   9.393  68.068  1.00  0.00    -0.164 C  
BRANCH  16  17
HETATM   17  C   UNL     1     -10.589   9.109  69.362  1.00  0.00    -0.232 C  
BRANCH  17  18
HETATM   18  C   UNL     1     -10.904  10.379  70.152  1.00  0.00    -0.333 C  
BRANCH  18  19
HETATM   19  C   UNL     1     -11.702  11.362  69.318  1.00  0.00    -0.337 C  
HETATM   20  O   UNL     1     -12.529  11.008  68.481  1.00  0.00    -0.440 OA 
BRANCH  19  21
HETATM   21  C   UNL     1     -11.435  12.815  69.496  1.00  0.00    -0.293 A  
HETATM   22  C   UNL     1     -10.676  13.469  68.517  1.00  0.00    -0.270 A  
HETATM   23  C   UNL     1     -10.384  14.827  68.646  1.00  0.00    -0.245 A  
HETATM   24  C   UNL     1     -10.862  15.527  69.747  1.00  0.00    -0.296 A  
HETATM   25  F   UNL     1     -10.582  16.832  69.870  1.00  0.00    -0.293 F  
HETATM   26  C   UNL     1     -11.630  14.896  70.721  1.00  0.00    -0.345 A  
HETATM   27  C   UNL     1     -11.918  13.535  70.598  1.00  0.00    -0.308 A  
ENDBRANCH  19  21
ENDBRANCH  18  19
ENDBRANCH  17  18
ENDBRANCH  16  17
ENDBRANCH   8  16
TORSDOF 6
ENDMDL
MODEL      191
REMARK 921   NORMALIZED FREE ENERGY PREDICTED BY IDOCK:   -4.05 KCAL/MOL
REMARK 922        TOTAL FREE ENERGY PREDICTED BY IDOCK:   -6.68 KCAL/MOL
REMARK 923 INTER-LIGAND FREE ENERGY PREDICTED BY IDOCK:   -5.76 KCAL/MOL
REMARK 924 INTRA-LIGAND FREE ENERGY PREDICTED BY IDOCK:   -0.92 KCAL/MOL
REMARK 927      BINDING AFFINITY PREDICTED BY RF-SCORE:    0.00 PKD
ROOT
HETATM    1  O   UNL     1      -7.510   3.860  65.193  1.00  0.00    -0.074 OA 
HETATM    2  C   UNL     1      -7.915   4.964  66.023  1.00  0.00    -0.107 C  
HETATM    3  H   UNL     1      -6.632   4.042  64.877  1.00  0.00     0.000 HD 
HETATM    4  C   UNL     1      -9.338   4.671  66.535  1.00  0.00    -0.151 C  
HETATM    5  C   UNL     1      -6.903   5.081  67.181  1.00  0.00    -0.056 C  
HETATM    6  C   UNL     1      -9.346   3.546  67.572  1.00  0.00    -0.206 C  
HETATM    7  C   UNL     1      -7.050   3.948  68.200  1.00  0.00    -0.051 C  
HETATM    8  N   UNL     1      -8.425   3.773  68.694  1.00  0.00    -0.081 NA 
ENDROOT
BRANCH   2   9
HETATM    9  C   UNL     1      -7.888   6.236  65.164  1.00  0.00    -0.109 A  
HETATM   10  C   UNL     1      -7.158   6.291  63.963  1.00  0.00    -0.057 A  
HETATM   11  C   UNL     1      -8.573   7.400  65.565  1.00  0.00    -0.093 A  
HETATM   12  C   UNL     1      -7.764   8.600  63.632  1.00  0.00    -0.136 A  
HETATM   13  C   UNL     1      -7.094   7.461  63.203  1.00  0.00    -0.070 A  
HETATM   14 BR   UNL     1      -7.651  10.193  62.622  1.00  0.00    -0.152 Br 
HETATM   15  C   UNL     1      -8.510   8.575  64.807  1.00  0.00    -0.146 A  
ENDBRANCH   2   9
BRANCH   8  16
HETATM   16  C   UNL     1      -8.825   4.880  69.582  1.00  0.00    -0.086 C  
BRANCH  16  17
HETATM   17  C   UNL     1     -10.246   4.758  70.143  1.00  0.00    -0.259 C  
BRANCH  17  18
HETATM   18  C   UNL     1     -11.072   6.027  69.933  1.00  0.00    -0.469 C  
BRANCH  18  19
HETATM   19  C   UNL     1     -11.689   6.504  71.233  1.00  0.00    -0.331 C  
HETATM   20  O   UNL     1     -11.910   5.753  72.181  1.00  0.00    -0.242 OA 
BRANCH  19  21
HETATM   21  C   UNL     1     -12.083   7.935  71.342  1.00  0.00    -0.333 A  
HETATM   22  C   UNL     1     -13.228   8.248  72.087  1.00  0.00    -0.297 A  
HETATM   23  C   UNL     1     -13.647   9.572  72.206  1.00  0.00    -0.494 A  
HETATM   24  C   UNL     1     -12.914  10.579  71.589  1.00  0.00    -0.476 A  
HETATM   25  F   UNL     1     -13.318  11.852  71.705  1.00  0.00    -0.481 F  
HETATM   26  C   UNL     1     -11.767  10.287  70.858  1.00  0.00    -0.472 A  
HETATM   27  C   UNL     1     -11.348   8.961  70.731  1.00  0.00    -0.325 A  
ENDBRANCH  19  21
ENDBRANCH  18  19
ENDBRANCH  17  18
ENDBRANCH  16  17
ENDBRANCH   8  16
TORSDOF 6
ENDMDL
MODEL      192
REMARK 921   NORMALIZED FREE ENERGY PREDICTED BY IDOCK:   -4.05 KCAL/MOL
REMARK 922        TOTAL FREE ENERGY PREDICTED BY IDOCK:   -6.68 KCAL/MOL
REMARK 923 INTER-LIGAND FREE ENERGY PREDICTED BY IDOCK:   -5.72 KCAL/MOL
REMARK 924 INTRA-LIGAND FREE ENERGY PREDICTED BY IDOCK:   -0.95 KCAL/MOL
REMARK 927      BINDING AFFINITY PREDICTED BY RF-SCORE:    0.00 PKD
ROOT
HETATM    1  O   UNL     1     -11.588  17.785  67.669  1.00  0.00     0.519 OA 
HETATM    2  C   UNL     1     -10.538  16.871  68.034  1.00  0.00    -0.367 C  
HETATM    3  H   UNL     1     -11.409  18.094  66.788  1.00  0.00     0.000 HD 
HETATM    4  C   UNL     1     -10.827  16.370  69.462  1.00  0.00    -0.338 C  
HETATM    5  C   UNL     1     -10.540  15.717  67.012  1.00  0.00    -0.311 C  
HETATM    6  C   UNL     1     -12.027  15.421  69.497  1.00  0.00    -0.334 C  
HETATM    7  C   UNL     1     -11.742  14.785  67.186  1.00  0.00    -0.334 C  
HETATM    8  N   UNL     1     -11.913  14.293  68.562  1.00  0.00    -0.338 NA 
ENDROOT
BRANCH   2   9
HETATM    9  C   UNL     1      -9.206  17.631  67.975  1.00  0.00    -0.271 A  
HETATM   10  C   UNL     1      -8.933  18.695  68.853  1.00  0.00    -0.215 A  
HETATM   11  C   UNL     1      -8.222  17.303  67.021  1.00  0.00    -0.233 A  
HETATM   12  C   UNL     1      -6.796  19.085  67.807  1.00  0.00    -0.211 A  
HETATM   13  C   UNL     1      -7.740  19.419  68.771  1.00  0.00    -0.397 A  
HETATM   14 BR   UNL     1      -5.197  20.084  67.675  1.00  0.00    -0.190 Br 
HETATM   15  C   UNL     1      -7.027  18.026  66.935  1.00  0.00    -0.218 A  
ENDBRANCH   2   9
BRANCH   8  16
HETATM   16  C   UNL     1     -10.865  13.320  68.922  1.00  0.00    -0.210 C  
BRANCH  16  17
HETATM   17  C   UNL     1     -11.043  11.937  68.288  1.00  0.00    -0.289 C  
BRANCH  17  18
HETATM   18  C   UNL     1      -9.803  11.476  67.522  1.00  0.00    -0.203 C  
BRANCH  18  19
HETATM   19  C   UNL     1     -10.045  11.485  66.026  1.00  0.00    -0.232 C  
HETATM   20  O   UNL     1     -10.992  12.071  65.507  1.00  0.00    -0.282 OA 
BRANCH  19  21
HETATM   21  C   UNL     1      -9.116  10.711  65.158  1.00  0.00    -0.227 A  
HETATM   22  C   UNL     1      -9.568  10.326  63.888  1.00  0.00    -0.354 A  
HETATM   23  C   UNL     1      -8.741   9.586  63.044  1.00  0.00    -0.233 A  
HETATM   24  C   UNL     1      -7.463   9.243  63.468  1.00  0.00    -0.101 A  
HETATM   25  F   UNL     1      -6.669   8.532  62.655  1.00  0.00    -0.090 F  
HETATM   26  C   UNL     1      -6.994   9.628  64.720  1.00  0.00    -0.111 A  
HETATM   27  C   UNL     1      -7.821  10.364  65.570  1.00  0.00    -0.152 A  
ENDBRANCH  19  21
ENDBRANCH  18  19
ENDBRANCH  17  18
ENDBRANCH  16  17
ENDBRANCH   8  16
TORSDOF 6
ENDMDL
MODEL      193
REMARK 921   NORMALIZED FREE ENERGY PREDICTED BY IDOCK:   -4.04 KCAL/MOL
REMARK 922        TOTAL FREE ENERGY PREDICTED BY IDOCK:   -6.67 KCAL/MOL
REMARK 923 INTER-LIGAND FREE ENERGY PREDICTED BY IDOCK:   -5.51 KCAL/MOL
REMARK 924 INTRA-LIGAND FREE ENERGY PREDICTED BY IDOCK:   -1.17 KCAL/MOL
REMARK 927      BINDING AFFINITY PREDICTED BY RF-SCORE:    0.00 PKD
ROOT
HETATM    1  O   UNL     1      -5.911  16.676  67.610  1.00  0.00    -0.124 OA 
HETATM    2  C   UNL     1      -7.074  15.994  68.114  1.00  0.00    -0.121 C  
HETATM    3  H   UNL     1      -5.437  16.068  67.053  1.00  0.00     0.000 HD 
HETATM    4  C   UNL     1      -7.841  16.978  69.016  1.00  0.00    -0.163 C  
HETATM    5  C   UNL     1      -7.920  15.547  66.905  1.00  0.00    -0.264 C  
HETATM    6  C   UNL     1      -8.517  18.083  68.202  1.00  0.00    -0.269 C  
HETATM    7  C   UNL     1      -8.613  16.722  66.212  1.00  0.00    -0.305 C  
HETATM    8  N   UNL     1      -9.383  17.579  67.128  1.00  0.00    -0.246 NA 
ENDROOT
BRANCH   2   9
HETATM    9  C   UNL     1      -6.597  14.771  68.910  1.00  0.00    -0.091 A  
HETATM   10  C   UNL     1      -6.397  13.526  68.286  1.00  0.00    -0.104 A  
HETATM   11  C   UNL     1      -6.369  14.849  70.298  1.00  0.00    -0.138 A  
HETATM   12  C   UNL     1      -5.809  12.502  70.387  1.00  0.00    -0.150 A  
HETATM   13  C   UNL     1      -6.008  12.400  69.015  1.00  0.00    -0.071 A  
HETATM   14 BR   UNL     1      -5.314  10.972  71.379  1.00  0.00     0.084 Br 
HETATM   15  C   UNL     1      -5.980  13.723  71.032  1.00  0.00    -0.125 A  
ENDBRANCH   2   9
BRANCH   8  16
HETATM   16  C   UNL     1     -10.599  16.898  67.609  1.00  0.00    -0.325 C  
BRANCH  16  17
HETATM   17  C   UNL     1     -11.160  15.849  66.643  1.00  0.00    -0.045 C  
BRANCH  17  18
HETATM   18  C   UNL     1     -11.787  14.657  67.367  1.00  0.00    -0.374 C  
BRANCH  18  19
HETATM   19  C   UNL     1     -11.040  14.335  68.646  1.00  0.00    -0.253 C  
HETATM   20  O   UNL     1      -9.954  13.759  68.658  1.00  0.00    -0.225 OA 
BRANCH  19  21
HETATM   21  C   UNL     1     -11.677  14.696  69.943  1.00  0.00    -0.349 A  
HETATM   22  C   UNL     1     -13.065  14.890  69.962  1.00  0.00     0.120 A  
HETATM   23  C   UNL     1     -13.706  15.245  71.148  1.00  0.00    -0.519 A  
HETATM   24  C   UNL     1     -12.960  15.394  72.311  1.00  0.00    -0.391 A  
HETATM   25  F   UNL     1     -13.578  15.734  73.451  1.00  0.00    -0.580 F  
HETATM   26  C   UNL     1     -11.584  15.191  72.312  1.00  0.00    -0.473 A  
HETATM   27  C   UNL     1     -10.937  14.842  71.125  1.00  0.00    -0.003 A  
ENDBRANCH  19  21
ENDBRANCH  18  19
ENDBRANCH  17  18
ENDBRANCH  16  17
ENDBRANCH   8  16
TORSDOF 6
ENDMDL
MODEL      194
REMARK 921   NORMALIZED FREE ENERGY PREDICTED BY IDOCK:   -4.04 KCAL/MOL
REMARK 922        TOTAL FREE ENERGY PREDICTED BY IDOCK:   -6.67 KCAL/MOL
REMARK 923 INTER-LIGAND FREE ENERGY PREDICTED BY IDOCK:   -4.92 KCAL/MOL
REMARK 924 INTRA-LIGAND FREE ENERGY PREDICTED BY IDOCK:   -1.75 KCAL/MOL
REMARK 927      BINDING AFFINITY PREDICTED BY RF-SCORE:    0.00 PKD
ROOT
HETATM    1  O   UNL     1     -11.192   6.596  66.697  1.00  0.00    -0.635 OA 
HETATM    2  C   UNL     1     -10.164   6.897  67.658  1.00  0.00    -0.185 C  
HETATM    3  H   UNL     1     -10.861   6.826  65.837  1.00  0.00     0.000 HD 
HETATM    4  C   UNL     1     -10.700   6.525  69.053  1.00  0.00    -0.324 C  
HETATM    5  C   UNL     1      -8.915   6.072  67.286  1.00  0.00    -0.109 C  
HETATM    6  C   UNL     1     -10.796   5.009  69.237  1.00  0.00     0.596 C  
HETATM    7  C   UNL     1      -9.091   4.581  67.583  1.00  0.00    -0.122 C  
HETATM    8  N   UNL     1      -9.540   4.300  68.956  1.00  0.00    -0.175 NA 
ENDROOT
BRANCH   2   9
HETATM    9  C   UNL     1      -9.855   8.398  67.567  1.00  0.00    -0.235 A  
HETATM   10  C   UNL     1     -10.878   9.360  67.645  1.00  0.00    -0.222 A  
HETATM   11  C   UNL     1      -8.538   8.861  67.376  1.00  0.00    -0.119 A  
HETATM   12  C   UNL     1      -9.300  11.151  67.310  1.00  0.00    -0.160 A  
HETATM   13  C   UNL     1     -10.607  10.724  67.517  1.00  0.00    -0.280 A  
HETATM   14 BR   UNL     1      -8.936  12.994  67.103  1.00  0.00    -0.227 Br 
HETATM   15  C   UNL     1      -8.262  10.226  67.245  1.00  0.00    -0.121 A  
ENDBRANCH   2   9
BRANCH   8  16
HETATM   16  C   UNL     1      -8.471   4.564  69.937  1.00  0.00    -0.065 C  
BRANCH  16  17
HETATM   17  C   UNL     1      -8.960   4.696  71.383  1.00  0.00    -0.163 C  
BRANCH  17  18
HETATM   18  C   UNL     1      -7.862   5.168  72.336  1.00  0.00    -0.101 C  
BRANCH  18  19
HETATM   19  C   UNL     1      -7.612   6.656  72.192  1.00  0.00    -0.095 C  
HETATM   20  O   UNL     1      -6.490   7.153  72.261  1.00  0.00    -0.051 OA 
BRANCH  19  21
HETATM   21  C   UNL     1      -8.785   7.552  72.005  1.00  0.00    -0.132 A  
HETATM   22  C   UNL     1      -8.683   8.580  71.057  1.00  0.00    -0.209 A  
HETATM   23  C   UNL     1      -9.749   9.456  70.856  1.00  0.00    -0.320 A  
HETATM   24  C   UNL     1     -10.916   9.295  71.594  1.00  0.00    -0.363 A  
HETATM   25  F   UNL     1     -11.940  10.137  71.398  1.00  0.00    -0.397 F  
HETATM   26  C   UNL     1     -11.038   8.271  72.528  1.00  0.00    -0.439 A  
HETATM   27  C   UNL     1      -9.971   7.396  72.737  1.00  0.00    -0.263 A  
ENDBRANCH  19  21
ENDBRANCH  18  19
ENDBRANCH  17  18
ENDBRANCH  16  17
ENDBRANCH   8  16
TORSDOF 6
ENDMDL
MODEL      195
REMARK 921   NORMALIZED FREE ENERGY PREDICTED BY IDOCK:   -4.02 KCAL/MOL
REMARK 922        TOTAL FREE ENERGY PREDICTED BY IDOCK:   -6.64 KCAL/MOL
REMARK 923 INTER-LIGAND FREE ENERGY PREDICTED BY IDOCK:   -4.50 KCAL/MOL
REMARK 924 INTRA-LIGAND FREE ENERGY PREDICTED BY IDOCK:   -2.15 KCAL/MOL
REMARK 927      BINDING AFFINITY PREDICTED BY RF-SCORE:    0.00 PKD
ROOT
HETATM    1  O   UNL     1      -5.535   8.351  69.816  1.00  0.00    -0.029 OA 
HETATM    2  C   UNL     1      -6.664   7.496  69.563  1.00  0.00    -0.040 C  
HETATM    3  H   UNL     1      -5.610   8.675  70.706  1.00  0.00     0.000 HD 
HETATM    4  C   UNL     1      -6.542   6.971  68.120  1.00  0.00    -0.055 C  
HETATM    5  C   UNL     1      -6.630   6.349  70.594  1.00  0.00    -0.052 C  
HETATM    6  C   UNL     1      -5.407   5.954  67.981  1.00  0.00    -0.004 C  
HETATM    7  C   UNL     1      -5.505   5.349  70.315  1.00  0.00    -0.004 C  
HETATM    8  N   UNL     1      -5.495   4.840  68.935  1.00  0.00    -0.011 NA 
ENDROOT
BRANCH   2   9
HETATM    9  C   UNL     1      -7.939   8.332  69.741  1.00  0.00    -0.106 A  
HETATM   10  C   UNL     1      -8.399   8.698  71.019  1.00  0.00    -0.193 A  
HETATM   11  C   UNL     1      -8.706   8.737  68.631  1.00  0.00    -0.134 A  
HETATM   12  C   UNL     1     -10.330   9.790  70.075  1.00  0.00    -0.263 A  
HETATM   13  C   UNL     1      -9.584   9.420  71.188  1.00  0.00    -0.220 A  
HETATM   14 BR   UNL     1     -11.949  10.737  70.303  1.00  0.00    -0.471 Br 
HETATM   15  C   UNL     1      -9.894   9.458  68.795  1.00  0.00    -0.172 A  
ENDBRANCH   2   9
BRANCH   8  16
HETATM   16  C   UNL     1      -6.626   3.927  68.687  1.00  0.00    -0.045 C  
BRANCH  16  17
HETATM   17  C   UNL     1      -7.283   4.093  67.313  1.00  0.00    -0.068 C  
BRANCH  17  18
HETATM   18  C   UNL     1      -8.776   4.406  67.408  1.00  0.00    -0.110 C  
BRANCH  18  19
HETATM   19  C   UNL     1      -9.403   3.733  68.614  1.00  0.00    -0.163 C  
HETATM   20  O   UNL     1      -9.450   2.512  68.747  1.00  0.00    -0.177 OA 
BRANCH  19  21
HETATM   21  C   UNL     1     -10.027   4.595  69.655  1.00  0.00    -0.281 A  
HETATM   22  C   UNL     1     -10.864   5.637  69.231  1.00  0.00    -0.309 A  
HETATM   23  C   UNL     1     -11.460   6.482  70.166  1.00  0.00    -0.477 A  
HETATM   24  C   UNL     1     -11.225   6.276  71.521  1.00  0.00    -0.290 A  
HETATM   25  F   UNL     1     -11.799   7.089  72.419  1.00  0.00    -0.288 F  
HETATM   26  C   UNL     1     -10.408   5.238  71.958  1.00  0.00    -0.273 A  
HETATM   27  C   UNL     1      -9.805   4.394  71.024  1.00  0.00    -0.260 A  
ENDBRANCH  19  21
ENDBRANCH  18  19
ENDBRANCH  17  18
ENDBRANCH  16  17
ENDBRANCH   8  16
TORSDOF 6
ENDMDL
MODEL      196
REMARK 921   NORMALIZED FREE ENERGY PREDICTED BY IDOCK:   -4.01 KCAL/MOL
REMARK 922        TOTAL FREE ENERGY PREDICTED BY IDOCK:   -6.62 KCAL/MOL
REMARK 923 INTER-LIGAND FREE ENERGY PREDICTED BY IDOCK:   -5.97 KCAL/MOL
REMARK 924 INTRA-LIGAND FREE ENERGY PREDICTED BY IDOCK:   -0.65 KCAL/MOL
REMARK 927      BINDING AFFINITY PREDICTED BY RF-SCORE:    0.00 PKD
ROOT
HETATM    1  O   UNL     1      -9.955   3.322  67.886  1.00  0.00    -0.102 OA 
HETATM    2  C   UNL     1      -9.398   4.393  68.670  1.00  0.00    -0.147 C  
HETATM    3  H   UNL     1     -10.747   3.026  68.321  1.00  0.00     0.000 HD 
HETATM    4  C   UNL     1      -8.115   4.873  67.966  1.00  0.00    -0.093 C  
HETATM    5  C   UNL     1     -10.455   5.512  68.758  1.00  0.00    -0.261 C  
HETATM    6  C   UNL     1      -8.428   5.629  66.672  1.00  0.00    -0.113 C  
HETATM    7  C   UNL     1     -10.632   6.253  67.431  1.00  0.00    -0.291 C  
HETATM    8  N   UNL     1      -9.370   6.742  66.853  1.00  0.00    -0.145 NA 
ENDROOT
BRANCH   2   9
HETATM    9  C   UNL     1      -9.089   3.844  70.069  1.00  0.00    -0.189 A  
HETATM   10  C   UNL     1      -7.910   3.120  70.325  1.00  0.00    -0.046 A  
HETATM   11  C   UNL     1      -9.988   4.024  71.138  1.00  0.00    -0.197 A  
HETATM   12  C   UNL     1      -8.561   2.757  72.617  1.00  0.00    -0.071 A  
HETATM   13  C   UNL     1      -7.646   2.580  71.586  1.00  0.00    -0.041 A  
HETATM   14 BR   UNL     1      -8.220   1.999  74.314  1.00  0.00    -0.058 Br 
HETATM   15  C   UNL     1      -9.728   3.483  72.402  1.00  0.00    -0.217 A  
ENDBRANCH   2   9
BRANCH   8  16
HETATM   16  C   UNL     1      -8.822   7.870  67.629  1.00  0.00    -0.128 C  
BRANCH  16  17
HETATM   17  C   UNL     1      -9.644   9.159  67.534  1.00  0.00    -0.186 C  
BRANCH  17  18
HETATM   18  C   UNL     1     -10.403   9.278  66.213  1.00  0.00    -0.192 C  
BRANCH  18  19
HETATM   19  C   UNL     1      -9.755  10.296  65.295  1.00  0.00    -0.291 C  
HETATM   20  O   UNL     1      -8.617  10.163  64.848  1.00  0.00    -0.158 OA 
BRANCH  19  21
HETATM   21  C   UNL     1     -10.519  11.529  64.961  1.00  0.00    -0.344 A  
HETATM   22  C   UNL     1     -10.457  12.604  65.858  1.00  0.00    -0.295 A  
HETATM   23  C   UNL     1     -11.168  13.775  65.598  1.00  0.00    -0.306 A  
HETATM   24  C   UNL     1     -11.928  13.871  64.438  1.00  0.00    -0.450 A  
HETATM   25  F   UNL     1     -12.610  14.998  64.189  1.00  0.00    -0.518 F  
HETATM   26  C   UNL     1     -11.988  12.818  63.530  1.00  0.00    -0.633 A  
HETATM   27  C   UNL     1     -11.283  11.642  63.790  1.00  0.00    -0.498 A  
ENDBRANCH  19  21
ENDBRANCH  18  19
ENDBRANCH  17  18
ENDBRANCH  16  17
ENDBRANCH   8  16
TORSDOF 6
ENDMDL
MODEL      197
REMARK 921   NORMALIZED FREE ENERGY PREDICTED BY IDOCK:   -3.98 KCAL/MOL
REMARK 922        TOTAL FREE ENERGY PREDICTED BY IDOCK:   -6.59 KCAL/MOL
REMARK 923 INTER-LIGAND FREE ENERGY PREDICTED BY IDOCK:   -5.80 KCAL/MOL
REMARK 924 INTRA-LIGAND FREE ENERGY PREDICTED BY IDOCK:   -0.79 KCAL/MOL
REMARK 927      BINDING AFFINITY PREDICTED BY RF-SCORE:    0.00 PKD
ROOT
HETATM    1  O   UNL     1     -12.685   7.028  70.967  1.00  0.00    -0.481 OA 
HETATM    2  C   UNL     1     -11.278   7.251  71.171  1.00  0.00    -0.259 C  
HETATM    3  H   UNL     1     -13.099   6.995  71.821  1.00  0.00     0.000 HD 
HETATM    4  C   UNL     1     -10.605   7.305  69.786  1.00  0.00    -0.247 C  
HETATM    5  C   UNL     1     -11.116   8.579  71.938  1.00  0.00    -0.395 C  
HETATM    6  C   UNL     1     -10.967   8.586  69.030  1.00  0.00     0.111 C  
HETATM    7  C   UNL     1     -11.428   9.797  71.066  1.00  0.00    -0.383 C  
HETATM    8  N   UNL     1     -10.697   9.814  69.789  1.00  0.00    -0.240 NA 
ENDROOT
BRANCH   2   9
HETATM    9  C   UNL     1     -10.730   6.085  72.006  1.00  0.00    -0.281 A  
HETATM   10  C   UNL     1     -10.500   6.222  73.387  1.00  0.00    -0.273 A  
HETATM   11  C   UNL     1     -10.415   4.848  71.411  1.00  0.00    -0.170 A  
HETATM   12  C   UNL     1      -9.639   3.974  73.524  1.00  0.00    -0.109 A  
HETATM   13  C   UNL     1      -9.959   5.178  74.141  1.00  0.00    -0.216 A  
HETATM   14 BR   UNL     1      -8.877   2.573  74.537  1.00  0.00    -0.083 Br 
HETATM   15  C   UNL     1      -9.871   3.800  72.163  1.00  0.00    -0.238 A  
ENDBRANCH   2   9
BRANCH   8  16
HETATM   16  C   UNL     1      -9.262  10.089  69.992  1.00  0.00    -0.101 C  
BRANCH  16  17
HETATM   17  C   UNL     1      -8.491  10.402  68.706  1.00  0.00    -0.132 C  
BRANCH  17  18
HETATM   18  C   UNL     1      -9.224  11.398  67.807  1.00  0.00    -0.159 C  
BRANCH  18  19
HETATM   19  C   UNL     1      -8.392  12.644  67.573  1.00  0.00    -0.177 C  
HETATM   20  O   UNL     1      -7.202  12.604  67.266  1.00  0.00    -0.151 OA 
BRANCH  19  21
HETATM   21  C   UNL     1      -9.040  13.970  67.768  1.00  0.00    -0.192 A  
HETATM   22  C   UNL     1     -10.308  14.171  67.205  1.00  0.00    -0.265 A  
HETATM   23  C   UNL     1     -10.950  15.401  67.346  1.00  0.00    -0.312 A  
HETATM   24  C   UNL     1     -10.328  16.419  68.058  1.00  0.00    -0.288 A  
HETATM   25  F   UNL     1     -10.947  17.601  68.193  1.00  0.00    -0.361 F  
HETATM   26  C   UNL     1      -9.076  16.231  68.635  1.00  0.00    -0.228 A  
HETATM   27  C   UNL     1      -8.427  15.003  68.491  1.00  0.00    -0.163 A  
ENDBRANCH  19  21
ENDBRANCH  18  19
ENDBRANCH  17  18
ENDBRANCH  16  17
ENDBRANCH   8  16
TORSDOF 6
ENDMDL
MODEL      198
REMARK 921   NORMALIZED FREE ENERGY PREDICTED BY IDOCK:   -3.98 KCAL/MOL
REMARK 922        TOTAL FREE ENERGY PREDICTED BY IDOCK:   -6.59 KCAL/MOL
REMARK 923 INTER-LIGAND FREE ENERGY PREDICTED BY IDOCK:   -5.86 KCAL/MOL
REMARK 924 INTRA-LIGAND FREE ENERGY PREDICTED BY IDOCK:   -0.72 KCAL/MOL
REMARK 927      BINDING AFFINITY PREDICTED BY RF-SCORE:    0.00 PKD
ROOT
HETATM    1  O   UNL     1     -11.323  14.758  66.546  1.00  0.00    -0.347 OA 
HETATM    2  C   UNL     1     -10.442  14.261  67.569  1.00  0.00    -0.252 C  
HETATM    3  H   UNL     1     -10.788  15.015  65.803  1.00  0.00     0.000 HD 
HETATM    4  C   UNL     1     -11.309  13.845  68.773  1.00  0.00    -0.310 C  
HETATM    5  C   UNL     1      -9.665  13.064  66.984  1.00  0.00    -0.235 C  
HETATM    6  C   UNL     1     -12.114  12.577  68.480  1.00  0.00    -0.080 C  
HETATM    7  C   UNL     1     -10.548  11.827  66.804  1.00  0.00    -0.238 C  
HETATM    8  N   UNL     1     -11.293  11.451  68.017  1.00  0.00    -0.281 NA 
ENDROOT
BRANCH   2   9
HETATM    9  C   UNL     1      -9.473  15.388  67.949  1.00  0.00    -0.197 A  
HETATM   10  C   UNL     1      -9.816  16.740  67.761  1.00  0.00    -0.257 A  
HETATM   11  C   UNL     1      -8.197  15.106  68.475  1.00  0.00    -0.148 A  
HETATM   12  C   UNL     1      -7.659  17.458  68.563  1.00  0.00    -0.254 A  
HETATM   13  C   UNL     1      -8.919  17.768  68.064  1.00  0.00    -0.263 A  
HETATM   14 BR   UNL     1      -6.433  18.846  68.941  1.00  0.00    -0.298 Br 
HETATM   15  C   UNL     1      -7.295  16.132  68.778  1.00  0.00    -0.184 A  
ENDBRANCH   2   9
BRANCH   8  16
HETATM   16  C   UNL     1     -10.398  10.897  69.049  1.00  0.00    -0.211 C  
BRANCH  16  17
HETATM   17  C   UNL     1     -10.726   9.459  69.465  1.00  0.00    -0.238 C  
BRANCH  17  18
HETATM   18  C   UNL     1     -10.163   8.422  68.493  1.00  0.00    -0.228 C  
BRANCH  18  19
HETATM   19  C   UNL     1     -10.481   7.012  68.949  1.00  0.00    -0.203 C  
HETATM   20  O   UNL     1     -10.924   6.756  70.066  1.00  0.00    -0.256 OA 
BRANCH  19  21
HETATM   21  C   UNL     1     -10.199   5.890  68.013  1.00  0.00    -0.224 A  
HETATM   22  C   UNL     1     -10.389   6.113  66.642  1.00  0.00    -0.249 A  
HETATM   23  C   UNL     1     -10.154   5.089  65.726  1.00  0.00    -0.150 A  
HETATM   24  C   UNL     1      -9.719   3.850  66.181  1.00  0.00    -0.160 A  
HETATM   25  F   UNL     1      -9.493   2.867  65.299  1.00  0.00    -0.153 F  
HETATM   26  C   UNL     1      -9.512   3.616  67.537  1.00  0.00    -0.237 A  
HETATM   27  C   UNL     1      -9.752   4.637  68.458  1.00  0.00    -0.208 A  
ENDBRANCH  19  21
ENDBRANCH  18  19
ENDBRANCH  17  18
ENDBRANCH  16  17
ENDBRANCH   8  16
TORSDOF 6
ENDMDL
MODEL      199
REMARK 921   NORMALIZED FREE ENERGY PREDICTED BY IDOCK:   -3.97 KCAL/MOL
REMARK 922        TOTAL FREE ENERGY PREDICTED BY IDOCK:   -6.58 KCAL/MOL
REMARK 923 INTER-LIGAND FREE ENERGY PREDICTED BY IDOCK:   -5.77 KCAL/MOL
REMARK 924 INTRA-LIGAND FREE ENERGY PREDICTED BY IDOCK:   -0.81 KCAL/MOL
REMARK 927      BINDING AFFINITY PREDICTED BY RF-SCORE:    0.00 PKD
ROOT
HETATM    1  O   UNL     1      -8.443   6.329  70.383  1.00  0.00    -0.130 OA 
HETATM    2  C   UNL     1      -9.131   6.898  69.255  1.00  0.00    -0.140 C  
HETATM    3  H   UNL     1      -7.572   6.079  70.095  1.00  0.00     0.000 HD 
HETATM    4  C   UNL     1     -10.542   7.303  69.720  1.00  0.00    -0.247 C  
HETATM    5  C   UNL     1      -8.318   8.115  68.770  1.00  0.00    -0.126 C  
HETATM    6  C   UNL     1     -10.505   8.520  70.647  1.00  0.00    -0.201 C  
HETATM    7  C   UNL     1      -8.413   9.301  69.733  1.00  0.00    -0.149 C  
HETATM    8  N   UNL     1      -9.794   9.673  70.077  1.00  0.00    -0.232 NA 
ENDROOT
BRANCH   2   9
HETATM    9  C   UNL     1      -9.198   5.831  68.153  1.00  0.00    -0.110 A  
HETATM   10  C   UNL     1      -9.136   4.459  68.461  1.00  0.00    -0.168 A  
HETATM   11  C   UNL     1      -9.296   6.191  66.795  1.00  0.00    -0.152 A  
HETATM   12  C   UNL     1      -9.230   3.872  66.125  1.00  0.00    -0.160 A  
HETATM   13  C   UNL     1      -9.151   3.487  67.458  1.00  0.00    -0.196 A  
HETATM   14 BR   UNL     1      -9.216   2.559  64.766  1.00  0.00    -0.125 Br 
HETATM   15  C   UNL     1      -9.309   5.220  65.787  1.00  0.00    -0.151 A  
ENDBRANCH   2   9
BRANCH   8  16
HETATM   16  C   UNL     1     -10.486  10.299  68.936  1.00  0.00    -0.211 C  
BRANCH  16  17
HETATM   17  C   UNL     1     -10.332  11.821  68.861  1.00  0.00    -0.151 C  
BRANCH  17  18
HETATM   18  C   UNL     1      -8.935  12.251  68.413  1.00  0.00    -0.141 C  
BRANCH  18  19
HETATM   19  C   UNL     1      -8.688  11.891  66.961  1.00  0.00    -0.181 C  
HETATM   20  O   UNL     1      -7.700  11.262  66.589  1.00  0.00    -0.150 OA 
BRANCH  19  21
HETATM   21  C   UNL     1      -9.667  12.362  65.943  1.00  0.00    -0.237 A  
HETATM   22  C   UNL     1      -9.920  11.534  64.842  1.00  0.00    -0.303 A  
HETATM   23  C   UNL     1     -10.816  11.937  63.853  1.00  0.00    -0.456 A  
HETATM   24  C   UNL     1     -11.463  13.161  63.974  1.00  0.00    -0.406 A  
HETATM   25  F   UNL     1     -12.325  13.547  63.023  1.00  0.00    -0.594 F  
HETATM   26  C   UNL     1     -11.233  13.989  65.069  1.00  0.00    -0.352 A  
HETATM   27  C   UNL     1     -10.332  13.591  66.058  1.00  0.00    -0.303 A  
ENDBRANCH  19  21
ENDBRANCH  18  19
ENDBRANCH  17  18
ENDBRANCH  16  17
ENDBRANCH   8  16
TORSDOF 6
ENDMDL
MODEL      200
REMARK 921   NORMALIZED FREE ENERGY PREDICTED BY IDOCK:   -3.96 KCAL/MOL
REMARK 922        TOTAL FREE ENERGY PREDICTED BY IDOCK:   -6.57 KCAL/MOL
REMARK 923 INTER-LIGAND FREE ENERGY PREDICTED BY IDOCK:   -6.14 KCAL/MOL
REMARK 924 INTRA-LIGAND FREE ENERGY PREDICTED BY IDOCK:   -0.42 KCAL/MOL
REMARK 927      BINDING AFFINITY PREDICTED BY RF-SCORE:    0.00 PKD
ROOT
HETATM    1  O   UNL     1     -12.795   5.917  72.519  1.00  0.00    -0.459 OA 
HETATM    2  C   UNL     1     -11.444   6.252  72.155  1.00  0.00    -0.307 C  
HETATM    3  H   UNL     1     -12.831   5.848  73.466  1.00  0.00     0.000 HD 
HETATM    4  C   UNL     1     -11.385   6.364  70.619  1.00  0.00    -0.419 C  
HETATM    5  C   UNL     1     -11.088   7.588  72.839  1.00  0.00    -0.426 C  
HETATM    6  C   UNL     1     -12.111   7.612  70.114  1.00  0.00     0.402 C  
HETATM    7  C   UNL     1     -11.810   8.779  72.205  1.00  0.00    -0.366 C  
HETATM    8  N   UNL     1     -11.651   8.857  70.744  1.00  0.00    -0.278 NA 
ENDROOT
BRANCH   2   9
HETATM    9  C   UNL     1     -10.525   5.134  72.664  1.00  0.00    -0.262 A  
HETATM   10  C   UNL     1     -10.435   4.829  74.034  1.00  0.00    -0.328 A  
HETATM   11  C   UNL     1      -9.721   4.391  71.776  1.00  0.00    -0.236 A  
HETATM   12  C   UNL     1      -8.770   3.139  73.609  1.00  0.00    -0.073 A  
HETATM   13  C   UNL     1      -9.566   3.842  74.506  1.00  0.00    -0.142 A  
HETATM   14 BR   UNL     1      -7.570   1.827  74.249  1.00  0.00    -0.033 Br 
HETATM   15  C   UNL     1      -8.848   3.403  72.245  1.00  0.00    -0.115 A  
ENDBRANCH   2   9
BRANCH   8  16
HETATM   16  C   UNL     1     -10.279   9.246  70.370  1.00  0.00    -0.233 C  
BRANCH  16  17
HETATM   17  C   UNL     1      -9.872   8.842  68.949  1.00  0.00    -0.183 C  
BRANCH  17  18
HETATM   18  C   UNL     1     -10.753   9.486  67.879  1.00  0.00    -0.285 C  
BRANCH  18  19
HETATM   19  C   UNL     1      -9.932  10.341  66.933  1.00  0.00    -0.208 C  
HETATM   20  O   UNL     1      -8.969   9.906  66.306  1.00  0.00    -0.141 OA 
BRANCH  19  21
HETATM   21  C   UNL     1     -10.289  11.780  66.797  1.00  0.00    -0.251 A  
HETATM   22  C   UNL     1      -9.487  12.721  67.456  1.00  0.00    -0.187 A  
HETATM   23  C   UNL     1      -9.788  14.080  67.373  1.00  0.00    -0.240 A  
HETATM   24  C   UNL     1     -10.883  14.493  66.623  1.00  0.00    -0.311 A  
HETATM   25  F   UNL     1     -11.171  15.799  66.543  1.00  0.00    -0.273 F  
HETATM   26  C   UNL     1     -11.681  13.572  65.950  1.00  0.00    -0.380 A  
HETATM   27  C   UNL     1     -11.385  12.211  66.037  1.00  0.00    -0.410 A  
ENDBRANCH  19  21
ENDBRANCH  18  19
ENDBRANCH  17  18
ENDBRANCH  16  17
ENDBRANCH   8  16
TORSDOF 6
ENDMDL
MODEL      201
REMARK 921   NORMALIZED FREE ENERGY PREDICTED BY IDOCK:   -3.96 KCAL/MOL
REMARK 922        TOTAL FREE ENERGY PREDICTED BY IDOCK:   -6.57 KCAL/MOL
REMARK 923 INTER-LIGAND FREE ENERGY PREDICTED BY IDOCK:   -5.74 KCAL/MOL
REMARK 924 INTRA-LIGAND FREE ENERGY PREDICTED BY IDOCK:   -0.82 KCAL/MOL
REMARK 927      BINDING AFFINITY PREDICTED BY RF-SCORE:    0.00 PKD
ROOT
HETATM    1  O   UNL     1     -11.764   7.374  69.747  1.00  0.00    -0.488 OA 
HETATM    2  C   UNL     1     -11.062   8.445  70.404  1.00  0.00    -0.231 C  
HETATM    3  H   UNL     1     -12.186   6.850  70.418  1.00  0.00     0.000 HD 
HETATM    4  C   UNL     1     -10.377   9.295  69.317  1.00  0.00    -0.222 C  
HETATM    5  C   UNL     1     -12.093   9.264  71.206  1.00  0.00    -0.412 C  
HETATM    6  C   UNL     1     -11.393  10.104  68.508  1.00  0.00    -0.108 C  
HETATM    7  C   UNL     1     -13.007  10.095  70.302  1.00  0.00     0.046 C  
HETATM    8  N   UNL     1     -12.279  10.933  69.336  1.00  0.00    -0.348 NA 
ENDROOT
BRANCH   2   9
HETATM    9  C   UNL     1     -10.027   7.821  71.351  1.00  0.00    -0.207 A  
HETATM   10  C   UNL     1      -9.415   6.590  71.055  1.00  0.00    -0.171 A  
HETATM   11  C   UNL     1      -9.676   8.450  72.562  1.00  0.00    -0.359 A  
HETATM   12  C   UNL     1      -8.194   6.632  73.133  1.00  0.00    -0.112 A  
HETATM   13  C   UNL     1      -8.507   5.997  71.936  1.00  0.00    -0.133 A  
HETATM   14 BR   UNL     1      -6.991   5.815  74.340  1.00  0.00    -0.081 Br 
HETATM   15  C   UNL     1      -8.768   7.859  73.448  1.00  0.00    -0.309 A  
ENDBRANCH   2   9
BRANCH   8  16
HETATM   16  C   UNL     1     -11.598  12.058  70.002  1.00  0.00    -0.195 C  
BRANCH  16  17
HETATM   17  C   UNL     1     -11.291  13.245  69.083  1.00  0.00    -0.336 C  
BRANCH  17  18
HETATM   18  C   UNL     1     -11.005  14.531  69.858  1.00  0.00    -0.147 C  
BRANCH  18  19
HETATM   19  C   UNL     1     -10.851  15.714  68.923  1.00  0.00    -0.252 C  
HETATM   20  O   UNL     1     -11.771  16.489  68.670  1.00  0.00    -0.180 OA 
BRANCH  19  21
HETATM   21  C   UNL     1      -9.538  15.913  68.251  1.00  0.00    -0.205 A  
HETATM   22  C   UNL     1      -8.382  15.880  69.043  1.00  0.00    -0.239 A  
HETATM   23  C   UNL     1      -7.129  16.077  68.463  1.00  0.00    -0.132 A  
HETATM   24  C   UNL     1      -7.036  16.295  67.094  1.00  0.00    -0.208 A  
HETATM   25  F   UNL     1      -5.831  16.483  66.538  1.00  0.00    -0.158 F  
HETATM   26  C   UNL     1      -8.172  16.317  66.291  1.00  0.00    -0.312 A  
HETATM   27  C   UNL     1      -9.429  16.126  66.869  1.00  0.00    -0.245 A  
ENDBRANCH  19  21
ENDBRANCH  18  19
ENDBRANCH  17  18
ENDBRANCH  16  17
ENDBRANCH   8  16
TORSDOF 6
ENDMDL
MODEL      202
REMARK 921   NORMALIZED FREE ENERGY PREDICTED BY IDOCK:   -3.96 KCAL/MOL
REMARK 922        TOTAL FREE ENERGY PREDICTED BY IDOCK:   -6.56 KCAL/MOL
REMARK 923 INTER-LIGAND FREE ENERGY PREDICTED BY IDOCK:   -6.48 KCAL/MOL
REMARK 924 INTRA-LIGAND FREE ENERGY PREDICTED BY IDOCK:   -0.07 KCAL/MOL
REMARK 927      BINDING AFFINITY PREDICTED BY RF-SCORE:    0.00 PKD
ROOT
HETATM    1  O   UNL     1     -12.518  15.355  69.655  1.00  0.00    -0.570 OA 
HETATM    2  C   UNL     1     -11.678  14.282  69.193  1.00  0.00    -0.320 C  
HETATM    3  H   UNL     1     -12.368  15.461  70.587  1.00  0.00     0.000 HD 
HETATM    4  C   UNL     1     -11.923  14.109  67.682  1.00  0.00    -0.405 C  
HETATM    5  C   UNL     1     -10.215  14.664  69.496  1.00  0.00    -0.040 C  
HETATM    6  C   UNL     1     -11.333  15.270  66.877  1.00  0.00    -0.209 C  
HETATM    7  C   UNL     1      -9.703  15.780  68.582  1.00  0.00    -0.205 C  
HETATM    8  N   UNL     1      -9.910  15.513  67.150  1.00  0.00    -0.233 NA 
ENDROOT
BRANCH   2   9
HETATM    9  C   UNL     1     -12.065  13.012  69.964  1.00  0.00    -0.367 A  
HETATM   10  C   UNL     1     -11.702  11.736  69.498  1.00  0.00    -0.408 A  
HETATM   11  C   UNL     1     -12.819  13.083  71.152  1.00  0.00    -0.331 A  
HETATM   12  C   UNL     1     -12.852  10.675  71.332  1.00  0.00    -0.451 A  
HETATM   13  C   UNL     1     -12.092  10.576  70.172  1.00  0.00    -0.380 A  
HETATM   14 BR   UNL     1     -13.408   9.106  72.226  1.00  0.00    -0.555 Br 
HETATM   15  C   UNL     1     -13.213  11.923  71.830  1.00  0.00    -0.426 A  
ENDBRANCH   2   9
BRANCH   8  16
HETATM   16  C   UNL     1      -9.016  14.446  66.665  1.00  0.00    -0.205 C  
BRANCH  16  17
HETATM   17  C   UNL     1      -8.557  13.465  67.749  1.00  0.00    -0.194 C  
BRANCH  17  18
HETATM   18  C   UNL     1      -7.078  13.626  68.100  1.00  0.00    -0.118 C  
BRANCH  18  19
HETATM   19  C   UNL     1      -6.284  12.392  67.718  1.00  0.00    -0.111 C  
HETATM   20  O   UNL     1      -5.436  12.393  66.829  1.00  0.00    -0.335 OA 
BRANCH  19  21
HETATM   21  C   UNL     1      -6.583  11.116  68.425  1.00  0.00    -0.058 A  
HETATM   22  C   UNL     1      -7.037  10.032  67.662  1.00  0.00    -0.087 A  
HETATM   23  C   UNL     1      -7.346   8.821  68.280  1.00  0.00    -0.087 A  
HETATM   24  C   UNL     1      -7.189   8.695  69.655  1.00  0.00    -0.052 A  
HETATM   25  F   UNL     1      -7.485   7.529  70.247  1.00  0.00    -0.076 F  
HETATM   26  C   UNL     1      -6.726   9.757  70.425  1.00  0.00    -0.123 A  
HETATM   27  C   UNL     1      -6.422  10.973  69.811  1.00  0.00    -0.137 A  
ENDBRANCH  19  21
ENDBRANCH  18  19
ENDBRANCH  17  18
ENDBRANCH  16  17
ENDBRANCH   8  16
TORSDOF 6
ENDMDL
MODEL      203
REMARK 921   NORMALIZED FREE ENERGY PREDICTED BY IDOCK:   -3.94 KCAL/MOL
REMARK 922        TOTAL FREE ENERGY PREDICTED BY IDOCK:   -6.53 KCAL/MOL
REMARK 923 INTER-LIGAND FREE ENERGY PREDICTED BY IDOCK:   -5.58 KCAL/MOL
REMARK 924 INTRA-LIGAND FREE ENERGY PREDICTED BY IDOCK:   -0.95 KCAL/MOL
REMARK 927      BINDING AFFINITY PREDICTED BY RF-SCORE:    0.00 PKD
ROOT
HETATM    1  O   UNL     1     -12.679   7.041  70.673  1.00  0.00    -0.600 OA 
HETATM    2  C   UNL     1     -11.316   7.471  70.840  1.00  0.00    -0.277 C  
HETATM    3  H   UNL     1     -13.088   7.036  71.531  1.00  0.00     0.000 HD 
HETATM    4  C   UNL     1     -10.652   7.479  69.450  1.00  0.00    -0.225 C  
HETATM    5  C   UNL     1     -11.338   8.878  71.471  1.00  0.00    -0.395 C  
HETATM    6  C   UNL     1     -11.182   8.618  68.576  1.00  0.00     0.520 C  
HETATM    7  C   UNL     1     -11.810   9.951  70.487  1.00  0.00    -0.270 C  
HETATM    8  N   UNL     1     -11.083   9.941  69.208  1.00  0.00    -0.213 NA 
ENDROOT
BRANCH   2   9
HETATM    9  C   UNL     1     -10.618   6.478  71.780  1.00  0.00    -0.245 A  
HETATM   10  C   UNL     1      -9.513   6.865  72.559  1.00  0.00    -0.154 A  
HETATM   11  C   UNL     1     -11.047   5.140  71.874  1.00  0.00    -0.038 A  
HETATM   12  C   UNL     1      -9.280   4.633  73.439  1.00  0.00    -0.113 A  
HETATM   13  C   UNL     1      -8.847   5.952  73.381  1.00  0.00    -0.126 A  
HETATM   14 BR   UNL     1      -8.360   3.390  74.525  1.00  0.00    -0.080 Br 
HETATM   15  C   UNL     1     -10.382   4.222  72.695  1.00  0.00    -0.243 A  
ENDBRANCH   2   9
BRANCH   8  16
HETATM   16  C   UNL     1      -9.700  10.426  69.369  1.00  0.00    -0.200 C  
BRANCH  16  17
HETATM   17  C   UNL     1      -9.300  11.532  68.387  1.00  0.00    -0.194 C  
BRANCH  17  18
HETATM   18  C   UNL     1     -10.363  12.623  68.264  1.00  0.00    -0.246 C  
BRANCH  18  19
HETATM   19  C   UNL     1     -10.055  13.796  69.173  1.00  0.00     0.130 C  
HETATM   20  O   UNL     1      -8.999  14.423  69.119  1.00  0.00    -0.055 OA 
BRANCH  19  21
HETATM   21  C   UNL     1     -11.063  14.172  70.202  1.00  0.00     0.044 A  
HETATM   22  C   UNL     1     -10.990  15.458  70.756  1.00  0.00    -0.349 A  
HETATM   23  C   UNL     1     -11.900  15.852  71.735  1.00  0.00    -0.579 A  
HETATM   24  C   UNL     1     -12.886  14.964  72.149  1.00  0.00    -0.325 A  
HETATM   25  F   UNL     1     -13.762  15.345  73.090  1.00  0.00    -0.536 F  
HETATM   26  C   UNL     1     -12.981  13.689  71.600  1.00  0.00    -0.448 A  
HETATM   27  C   UNL     1     -12.067  13.289  70.624  1.00  0.00    -0.361 A  
ENDBRANCH  19  21
ENDBRANCH  18  19
ENDBRANCH  17  18
ENDBRANCH  16  17
ENDBRANCH   8  16
TORSDOF 6
ENDMDL
MODEL      204
REMARK 921   NORMALIZED FREE ENERGY PREDICTED BY IDOCK:   -3.90 KCAL/MOL
REMARK 922        TOTAL FREE ENERGY PREDICTED BY IDOCK:   -6.48 KCAL/MOL
REMARK 923 INTER-LIGAND FREE ENERGY PREDICTED BY IDOCK:   -5.64 KCAL/MOL
REMARK 924 INTRA-LIGAND FREE ENERGY PREDICTED BY IDOCK:   -0.83 KCAL/MOL
REMARK 927      BINDING AFFINITY PREDICTED BY RF-SCORE:    0.00 PKD
ROOT
HETATM    1  O   UNL     1      -8.272   7.931  73.597  1.00  0.00    -0.167 OA 
HETATM    2  C   UNL     1      -8.686   7.195  72.431  1.00  0.00    -0.123 C  
HETATM    3  H   UNL     1      -7.322   7.968  73.593  1.00  0.00     0.000 HD 
HETATM    4  C   UNL     1     -10.226   7.134  72.437  1.00  0.00    -0.214 C  
HETATM    5  C   UNL     1      -8.148   7.935  71.190  1.00  0.00    -0.093 C  
HETATM    6  C   UNL     1     -10.848   8.496  72.124  1.00  0.00    -0.357 C  
HETATM    7  C   UNL     1      -8.893   9.246  70.924  1.00  0.00    -0.188 C  
HETATM    8  N   UNL     1     -10.356   9.096  70.876  1.00  0.00    -0.255 NA 
ENDROOT
BRANCH   2   9
HETATM    9  C   UNL     1      -8.077   5.790  72.517  1.00  0.00    -0.103 A  
HETATM   10  C   UNL     1      -8.075   5.067  73.724  1.00  0.00    -0.106 A  
HETATM   11  C   UNL     1      -7.476   5.187  71.394  1.00  0.00    -0.091 A  
HETATM   12  C   UNL     1      -6.878   3.244  72.697  1.00  0.00    -0.027 A  
HETATM   13  C   UNL     1      -7.481   3.806  73.817  1.00  0.00    -0.069 A  
HETATM   14 BR   UNL     1      -6.045   1.553  72.831  1.00  0.00    -0.009 Br 
HETATM   15  C   UNL     1      -6.878   3.924  71.484  1.00  0.00    -0.027 A  
ENDBRANCH   2   9
BRANCH   8  16
HETATM   16  C   UNL     1     -10.786   8.383  69.659  1.00  0.00    -0.198 C  
BRANCH  16  17
HETATM   17  C   UNL     1     -11.147   9.300  68.485  1.00  0.00     0.071 C  
BRANCH  17  18
HETATM   18  C   UNL     1     -11.352  10.752  68.914  1.00  0.00    -0.349 C  
BRANCH  18  19
HETATM   19  C   UNL     1     -10.493  11.695  68.093  1.00  0.00    -0.195 C  
HETATM   20  O   UNL     1      -9.443  12.176  68.513  1.00  0.00    -0.193 OA 
BRANCH  19  21
HETATM   21  C   UNL     1     -10.972  12.084  66.738  1.00  0.00    -0.329 A  
HETATM   22  C   UNL     1     -10.538  11.323  65.644  1.00  0.00    -0.303 A  
HETATM   23  C   UNL     1     -10.945  11.657  64.353  1.00  0.00    -0.399 A  
HETATM   24  C   UNL     1     -11.793  12.741  64.162  1.00  0.00    -0.413 A  
HETATM   25  F   UNL     1     -12.185  13.060  62.921  1.00  0.00    -0.574 F  
HETATM   26  C   UNL     1     -12.245  13.498  65.239  1.00  0.00    -0.474 A  
HETATM   27  C   UNL     1     -11.834  13.171  66.533  1.00  0.00    -0.456 A  
ENDBRANCH  19  21
ENDBRANCH  18  19
ENDBRANCH  17  18
ENDBRANCH  16  17
ENDBRANCH   8  16
TORSDOF 6
ENDMDL
MODEL      205
REMARK 921   NORMALIZED FREE ENERGY PREDICTED BY IDOCK:   -3.89 KCAL/MOL
REMARK 922        TOTAL FREE ENERGY PREDICTED BY IDOCK:   -6.47 KCAL/MOL
REMARK 923 INTER-LIGAND FREE ENERGY PREDICTED BY IDOCK:   -5.59 KCAL/MOL
REMARK 924 INTRA-LIGAND FREE ENERGY PREDICTED BY IDOCK:   -0.88 KCAL/MOL
REMARK 927      BINDING AFFINITY PREDICTED BY RF-SCORE:    0.00 PKD
ROOT
HETATM    1  O   UNL     1     -11.437   7.500  70.805  1.00  0.00    -0.281 OA 
HETATM    2  C   UNL     1     -10.130   7.583  70.209  1.00  0.00    -0.194 C  
HETATM    3  H   UNL     1     -11.324   7.258  71.718  1.00  0.00     0.000 HD 
HETATM    4  C   UNL     1     -10.313   7.975  68.730  1.00  0.00    -0.223 C  
HETATM    5  C   UNL     1      -9.324   8.644  70.985  1.00  0.00    -0.254 C  
HETATM    6  C   UNL     1     -10.764   9.429  68.580  1.00  0.00    -0.160 C  
HETATM    7  C   UNL     1      -9.809  10.068  70.702  1.00  0.00     0.194 C  
HETATM    8  N   UNL     1      -9.893  10.390  69.269  1.00  0.00    -0.222 NA 
ENDROOT
BRANCH   2   9
HETATM    9  C   UNL     1      -9.461   6.208  70.338  1.00  0.00    -0.179 A  
HETATM   10  C   UNL     1     -10.148   5.111  70.888  1.00  0.00    -0.302 A  
HETATM   11  C   UNL     1      -8.127   6.006  69.933  1.00  0.00    -0.117 A  
HETATM   12  C   UNL     1      -8.204   3.705  70.658  1.00  0.00    -0.057 A  
HETATM   13  C   UNL     1      -9.528   3.869  71.049  1.00  0.00    -0.237 A  
HETATM   14 BR   UNL     1      -7.354   2.035  70.906  1.00  0.00    -0.033 Br 
HETATM   15  C   UNL     1      -7.501   4.765  70.094  1.00  0.00    -0.054 A  
ENDBRANCH   2   9
BRANCH   8  16
HETATM   16  C   UNL     1      -8.554  10.523  68.666  1.00  0.00    -0.139 C  
BRANCH  16  17
HETATM   17  C   UNL     1      -8.462  11.575  67.556  1.00  0.00    -0.143 C  
BRANCH  17  18
HETATM   18  C   UNL     1      -8.865  12.970  68.031  1.00  0.00    -0.191 C  
BRANCH  18  19
HETATM   19  C   UNL     1     -10.349  13.212  67.833  1.00  0.00    -0.231 C  
HETATM   20  O   UNL     1     -10.960  12.829  66.838  1.00  0.00    -0.250 OA 
BRANCH  19  21
HETATM   21  C   UNL     1     -11.080  13.988  68.872  1.00  0.00    -0.296 A  
HETATM   22  C   UNL     1     -11.717  13.276  69.897  1.00  0.00    -0.330 A  
HETATM   23  C   UNL     1     -12.429  13.955  70.885  1.00  0.00    -0.447 A  
HETATM   24  C   UNL     1     -12.492  15.343  70.850  1.00  0.00    -0.418 A  
HETATM   25  F   UNL     1     -13.175  15.995  71.801  1.00  0.00    -0.517 F  
HETATM   26  C   UNL     1     -11.853  16.066  69.847  1.00  0.00    -0.237 A  
HETATM   27  C   UNL     1     -11.145  15.388  68.853  1.00  0.00    -0.275 A  
ENDBRANCH  19  21
ENDBRANCH  18  19
ENDBRANCH  17  18
ENDBRANCH  16  17
ENDBRANCH   8  16
TORSDOF 6
ENDMDL
MODEL      206
REMARK 921   NORMALIZED FREE ENERGY PREDICTED BY IDOCK:   -3.88 KCAL/MOL
REMARK 922        TOTAL FREE ENERGY PREDICTED BY IDOCK:   -6.45 KCAL/MOL
REMARK 923 INTER-LIGAND FREE ENERGY PREDICTED BY IDOCK:   -5.65 KCAL/MOL
REMARK 924 INTRA-LIGAND FREE ENERGY PREDICTED BY IDOCK:   -0.80 KCAL/MOL
REMARK 927      BINDING AFFINITY PREDICTED BY RF-SCORE:    0.00 PKD
ROOT
HETATM    1  O   UNL     1      -6.122   7.414  66.967  1.00  0.00    -0.042 OA 
HETATM    2  C   UNL     1      -7.536   7.564  66.743  1.00  0.00    -0.101 C  
HETATM    3  H   UNL     1      -5.693   7.410  66.119  1.00  0.00     0.000 HD 
HETATM    4  C   UNL     1      -8.232   7.570  68.117  1.00  0.00    -0.125 C  
HETATM    5  C   UNL     1      -7.756   8.888  65.985  1.00  0.00    -0.098 C  
HETATM    6  C   UNL     1      -7.950   8.860  68.889  1.00  0.00    -0.104 C  
HETATM    7  C   UNL     1      -7.523  10.114  66.872  1.00  0.00    -0.096 C  
HETATM    8  N   UNL     1      -8.274  10.080  68.136  1.00  0.00    -0.108 NA 
ENDROOT
BRANCH   2   9
HETATM    9  C   UNL     1      -8.008   6.379  65.889  1.00  0.00    -0.117 A  
HETATM   10  C   UNL     1      -7.373   6.053  64.677  1.00  0.00    -0.071 A  
HETATM   11  C   UNL     1      -9.111   5.593  66.280  1.00  0.00    -0.153 A  
HETATM   12  C   UNL     1      -8.931   4.258  64.277  1.00  0.00    -0.148 A  
HETATM   13  C   UNL     1      -7.829   5.003  63.875  1.00  0.00    -0.088 A  
HETATM   14 BR   UNL     1      -9.568   2.859  63.177  1.00  0.00    -0.096 Br 
HETATM   15  C   UNL     1      -9.571   4.542  65.479  1.00  0.00    -0.190 A  
ENDBRANCH   2   9
BRANCH   8  16
HETATM   16  C   UNL     1      -9.717  10.280  67.913  1.00  0.00    -0.145 C  
BRANCH  16  17
HETATM   17  C   UNL     1     -10.132  11.744  67.735  1.00  0.00    -0.199 C  
BRANCH  17  18
HETATM   18  C   UNL     1     -11.635  11.908  67.513  1.00  0.00    -0.374 C  
BRANCH  18  19
HETATM   19  C   UNL     1     -11.924  12.930  66.431  1.00  0.00    -0.395 C  
HETATM   20  O   UNL     1     -12.568  12.665  65.418  1.00  0.00    -0.641 OA 
BRANCH  19  21
HETATM   21  C   UNL     1     -11.361  14.299  66.587  1.00  0.00    -0.356 A  
HETATM   22  C   UNL     1     -11.537  14.945  67.819  1.00  0.00    -0.358 A  
HETATM   23  C   UNL     1     -11.043  16.235  68.010  1.00  0.00    -0.299 A  
HETATM   24  C   UNL     1     -10.366  16.868  66.976  1.00  0.00    -0.307 A  
HETATM   25  F   UNL     1      -9.890  18.108  67.161  1.00  0.00    -0.283 F  
HETATM   26  C   UNL     1     -10.170  16.235  65.752  1.00  0.00    -0.390 A  
HETATM   27  C   UNL     1     -10.669  14.947  65.554  1.00  0.00    -0.369 A  
ENDBRANCH  19  21
ENDBRANCH  18  19
ENDBRANCH  17  18
ENDBRANCH  16  17
ENDBRANCH   8  16
TORSDOF 6
ENDMDL
MODEL      207
REMARK 921   NORMALIZED FREE ENERGY PREDICTED BY IDOCK:   -3.88 KCAL/MOL
REMARK 922        TOTAL FREE ENERGY PREDICTED BY IDOCK:   -6.45 KCAL/MOL
REMARK 923 INTER-LIGAND FREE ENERGY PREDICTED BY IDOCK:   -4.65 KCAL/MOL
REMARK 924 INTRA-LIGAND FREE ENERGY PREDICTED BY IDOCK:   -1.80 KCAL/MOL
REMARK 927      BINDING AFFINITY PREDICTED BY RF-SCORE:    0.00 PKD
ROOT
HETATM    1  O   UNL     1      -7.218  10.107  63.247  1.00  0.00    -0.133 OA 
HETATM    2  C   UNL     1      -7.809   9.689  64.492  1.00  0.00    -0.134 C  
HETATM    3  H   UNL     1      -6.852  10.974  63.377  1.00  0.00     0.000 HD 
HETATM    4  C   UNL     1      -8.403   8.284  64.282  1.00  0.00    -0.068 C  
HETATM    5  C   UNL     1      -6.699   9.687  65.563  1.00  0.00    -0.085 C  
HETATM    6  C   UNL     1      -7.310   7.222  64.140  1.00  0.00    -0.091 C  
HETATM    7  C   UNL     1      -5.706   8.539  65.371  1.00  0.00    -0.044 C  
HETATM    8  N   UNL     1      -6.344   7.219  65.247  1.00  0.00    -0.037 NA 
ENDROOT
BRANCH   2   9
HETATM    9  C   UNL     1      -8.901  10.702  64.861  1.00  0.00    -0.204 A  
HETATM   10  C   UNL     1     -10.166  10.668  64.246  1.00  0.00    -0.391 A  
HETATM   11  C   UNL     1      -8.664  11.715  65.811  1.00  0.00     0.060 A  
HETATM   12  C   UNL     1     -10.879  12.616  65.473  1.00  0.00    -0.279 A  
HETATM   13  C   UNL     1     -11.147  11.616  64.546  1.00  0.00    -0.365 A  
HETATM   14 BR   UNL     1     -12.194  13.919  65.855  1.00  0.00    -0.520 Br 
HETATM   15  C   UNL     1      -9.644  12.668  66.113  1.00  0.00    -0.222 A  
ENDBRANCH   2   9
BRANCH   8  16
HETATM   16  C   UNL     1      -6.909   6.769  66.533  1.00  0.00    -0.061 C  
BRANCH  16  17
HETATM   17  C   UNL     1      -7.659   5.435  66.461  1.00  0.00    -0.088 C  
BRANCH  17  18
HETATM   18  C   UNL     1      -9.173   5.616  66.359  1.00  0.00    -0.160 C  
BRANCH  18  19
HETATM   19  C   UNL     1      -9.792   5.857  67.722  1.00  0.00    -0.124 C  
HETATM   20  O   UNL     1     -10.073   4.945  68.497  1.00  0.00    -0.145 OA 
BRANCH  19  21
HETATM   21  C   UNL     1     -10.109   7.257  68.114  1.00  0.00    -0.201 A  
HETATM   22  C   UNL     1     -10.586   8.125  67.122  1.00  0.00    -0.355 A  
HETATM   23  C   UNL     1     -10.883   9.451  67.434  1.00  0.00    -0.189 A  
HETATM   24  C   UNL     1     -10.712   9.901  68.737  1.00  0.00    -0.220 A  
HETATM   25  F   UNL     1     -10.999  11.176  69.037  1.00  0.00    -0.195 F  
HETATM   26  C   UNL     1     -10.253   9.049  69.737  1.00  0.00    -0.214 A  
HETATM   27  C   UNL     1      -9.949   7.722  69.427  1.00  0.00    -0.188 A  
ENDBRANCH  19  21
ENDBRANCH  18  19
ENDBRANCH  17  18
ENDBRANCH  16  17
ENDBRANCH   8  16
TORSDOF 6
ENDMDL
MODEL      208
REMARK 921   NORMALIZED FREE ENERGY PREDICTED BY IDOCK:   -3.79 KCAL/MOL
REMARK 922        TOTAL FREE ENERGY PREDICTED BY IDOCK:   -6.33 KCAL/MOL
REMARK 923 INTER-LIGAND FREE ENERGY PREDICTED BY IDOCK:   -4.30 KCAL/MOL
REMARK 924 INTRA-LIGAND FREE ENERGY PREDICTED BY IDOCK:   -2.03 KCAL/MOL
REMARK 927      BINDING AFFINITY PREDICTED BY RF-SCORE:    0.00 PKD
ROOT
HETATM    1  O   UNL     1     -11.281   7.480  68.230  1.00  0.00    -0.428 OA 
HETATM    2  C   UNL     1      -9.967   8.040  68.053  1.00  0.00    -0.179 C  
HETATM    3  H   UNL     1     -11.583   7.177  67.381  1.00  0.00     0.000 HD 
HETATM    4  C   UNL     1      -9.477   8.531  69.428  1.00  0.00    -0.161 C  
HETATM    5  C   UNL     1      -9.055   6.935  67.482  1.00  0.00    -0.118 C  
HETATM    6  C   UNL     1      -9.142   7.365  70.360  1.00  0.00    -0.157 C  
HETATM    7  C   UNL     1      -8.721   5.861  68.520  1.00  0.00    -0.112 C  
HETATM    8  N   UNL     1      -8.193   6.403  69.782  1.00  0.00    -0.124 NA 
ENDROOT
BRANCH   2   9
HETATM    9  C   UNL     1     -10.078   9.203  67.058  1.00  0.00    -0.316 A  
HETATM   10  C   UNL     1     -10.800  10.368  67.375  1.00  0.00    -0.344 A  
HETATM   11  C   UNL     1      -9.482   9.132  65.784  1.00  0.00    -0.322 A  
HETATM   12  C   UNL     1     -10.359  11.304  65.198  1.00  0.00    -0.295 A  
HETATM   13  C   UNL     1     -10.942  11.410  66.455  1.00  0.00    -0.315 A  
HETATM   14 BR   UNL     1     -10.578  12.698  63.941  1.00  0.00    -0.438 Br 
HETATM   15  C   UNL     1      -9.623  10.173  64.859  1.00  0.00    -0.369 A  
ENDBRANCH   2   9
BRANCH   8  16
HETATM   16  C   UNL     1      -6.829   6.935  69.614  1.00  0.00    -0.051 C  
BRANCH  16  17
HETATM   17  C   UNL     1      -6.475   8.080  70.569  1.00  0.00    -0.037 C  
BRANCH  17  18
HETATM   18  C   UNL     1      -5.510   9.088  69.947  1.00  0.00    -0.028 C  
BRANCH  18  19
HETATM   19  C   UNL     1      -6.239  10.066  69.047  1.00  0.00    -0.044 C  
HETATM   20  O   UNL     1      -6.986  10.941  69.479  1.00  0.00    -0.108 OA 
BRANCH  19  21
HETATM   21  C   UNL     1      -6.074   9.925  67.574  1.00  0.00    -0.058 A  
HETATM   22  C   UNL     1      -6.003  11.095  66.805  1.00  0.00    -0.116 A  
HETATM   23  C   UNL     1      -5.864  11.016  65.420  1.00  0.00     0.080 A  
HETATM   24  C   UNL     1      -5.785   9.770  64.811  1.00  0.00    -0.084 A  
HETATM   25  F   UNL     1      -5.650   9.695  63.479  1.00  0.00    -0.074 F  
HETATM   26  C   UNL     1      -5.839   8.599  65.561  1.00  0.00    -0.048 A  
HETATM   27  C   UNL     1      -5.985   8.674  66.947  1.00  0.00    -0.057 A  
ENDBRANCH  19  21
ENDBRANCH  18  19
ENDBRANCH  17  18
ENDBRANCH  16  17
ENDBRANCH   8  16
TORSDOF 6
ENDMDL
MODEL      209
REMARK 921   NORMALIZED FREE ENERGY PREDICTED BY IDOCK:   -3.76 KCAL/MOL
REMARK 922        TOTAL FREE ENERGY PREDICTED BY IDOCK:   -6.29 KCAL/MOL
REMARK 923 INTER-LIGAND FREE ENERGY PREDICTED BY IDOCK:   -6.22 KCAL/MOL
REMARK 924 INTRA-LIGAND FREE ENERGY PREDICTED BY IDOCK:   -0.07 KCAL/MOL
REMARK 927      BINDING AFFINITY PREDICTED BY RF-SCORE:    0.00 PKD
ROOT
HETATM    1  O   UNL     1      -9.022  12.223  65.355  1.00  0.00    -0.354 OA 
HETATM    2  C   UNL     1      -9.647  11.199  66.149  1.00  0.00    -0.210 C  
HETATM    3  H   UNL     1      -9.274  12.082  64.450  1.00  0.00     0.000 HD 
HETATM    4  C   UNL     1      -9.239  11.427  67.617  1.00  0.00    -0.158 C  
HETATM    5  C   UNL     1     -11.173  11.317  65.955  1.00  0.00    -0.108 C  
HETATM    6  C   UNL     1      -9.915  12.667  68.207  1.00  0.00    -0.229 C  
HETATM    7  C   UNL     1     -11.755  12.549  66.651  1.00  0.00    -0.387 C  
HETATM    8  N   UNL     1     -11.377  12.662  68.068  1.00  0.00    -0.269 NA 
ENDROOT
BRANCH   2   9
HETATM    9  C   UNL     1      -9.151   9.838  65.642  1.00  0.00    -0.222 A  
HETATM   10  C   UNL     1      -9.051   8.730  66.504  1.00  0.00    -0.203 A  
HETATM   11  C   UNL     1      -8.754   9.660  64.302  1.00  0.00    -0.229 A  
HETATM   12  C   UNL     1      -8.155   7.362  64.734  1.00  0.00    -0.104 A  
HETATM   13  C   UNL     1      -8.557   7.502  66.057  1.00  0.00    -0.164 A  
HETATM   14 BR   UNL     1      -7.455   5.711  64.137  1.00  0.00    -0.076 Br 
HETATM   15  C   UNL     1      -8.257   8.432  63.851  1.00  0.00    -0.106 A  
ENDBRANCH   2   9
BRANCH   8  16
HETATM   16  C   UNL     1     -12.054  11.642  68.891  1.00  0.00    -0.190 C  
BRANCH  16  17
HETATM   17  C   UNL     1     -11.183  10.430  69.237  1.00  0.00    -0.304 C  
BRANCH  17  18
HETATM   18  C   UNL     1     -11.143  10.143  70.737  1.00  0.00    -0.372 C  
BRANCH  18  19
HETATM   19  C   UNL     1     -10.040   9.160  71.080  1.00  0.00    -0.314 C  
HETATM   20  O   UNL     1      -8.865   9.341  70.771  1.00  0.00    -0.222 OA 
BRANCH  19  21
HETATM   21  C   UNL     1     -10.413   7.902  71.783  1.00  0.00    -0.272 A  
HETATM   22  C   UNL     1     -10.796   6.802  71.003  1.00  0.00    -0.280 A  
HETATM   23  C   UNL     1     -11.170   5.606  71.615  1.00  0.00    -0.204 A  
HETATM   24  C   UNL     1     -11.149   5.511  73.001  1.00  0.00    -0.300 A  
HETATM   25  F   UNL     1     -11.508   4.360  73.587  1.00  0.00    -0.347 F  
HETATM   26  C   UNL     1     -10.758   6.589  73.789  1.00  0.00    -0.194 A  
HETATM   27  C   UNL     1     -10.389   7.790  73.180  1.00  0.00    -0.403 A  
ENDBRANCH  19  21
ENDBRANCH  18  19
ENDBRANCH  17  18
ENDBRANCH  16  17
ENDBRANCH   8  16
TORSDOF 6
ENDMDL
MODEL      210
REMARK 921   NORMALIZED FREE ENERGY PREDICTED BY IDOCK:   -3.76 KCAL/MOL
REMARK 922        TOTAL FREE ENERGY PREDICTED BY IDOCK:   -6.29 KCAL/MOL
REMARK 923 INTER-LIGAND FREE ENERGY PREDICTED BY IDOCK:   -5.43 KCAL/MOL
REMARK 924 INTRA-LIGAND FREE ENERGY PREDICTED BY IDOCK:   -0.86 KCAL/MOL
REMARK 927      BINDING AFFINITY PREDICTED BY RF-SCORE:    0.00 PKD
ROOT
HETATM    1  O   UNL     1      -8.661   3.581  66.240  1.00  0.00    -0.113 OA 
HETATM    2  C   UNL     1      -8.705   4.636  67.218  1.00  0.00    -0.104 C  
HETATM    3  H   UNL     1      -9.518   3.172  66.217  1.00  0.00     0.000 HD 
HETATM    4  C   UNL     1      -7.316   5.300  67.256  1.00  0.00    -0.083 C  
HETATM    5  C   UNL     1      -9.803   5.631  66.790  1.00  0.00    -0.185 C  
HETATM    6  C   UNL     1      -7.046   6.123  65.994  1.00  0.00    -0.067 C  
HETATM    7  C   UNL     1      -9.398   6.456  65.566  1.00  0.00     0.330 C  
HETATM    8  N   UNL     1      -8.090   7.115  65.704  1.00  0.00    -0.126 NA 
ENDROOT
BRANCH   2   9
HETATM    9  C   UNL     1      -9.056   4.010  68.574  1.00  0.00    -0.189 A  
HETATM   10  C   UNL     1      -9.461   4.804  69.662  1.00  0.00    -0.223 A  
HETATM   11  C   UNL     1      -8.958   2.620  68.782  1.00  0.00    -0.176 A  
HETATM   12  C   UNL     1      -9.614   2.869  71.092  1.00  0.00    -0.156 A  
HETATM   13  C   UNL     1      -9.738   4.242  70.912  1.00  0.00    -0.266 A  
HETATM   14 BR   UNL     1      -9.955   2.112  72.790  1.00  0.00    -0.206 Br 
HETATM   15  C   UNL     1      -9.232   2.053  70.032  1.00  0.00    -0.179 A  
ENDBRANCH   2   9
BRANCH   8  16
HETATM   16  C   UNL     1      -8.145   8.227  66.671  1.00  0.00    -0.102 C  
BRANCH  16  17
HETATM   17  C   UNL     1      -8.685   9.540  66.095  1.00  0.00    -0.162 C  
BRANCH  17  18
HETATM   18  C   UNL     1     -10.025   9.945  66.709  1.00  0.00    -0.272 C  
BRANCH  18  19
HETATM   19  C   UNL     1      -9.974  11.357  67.258  1.00  0.00    -0.194 C  
HETATM   20  O   UNL     1      -9.516  11.625  68.367  1.00  0.00    -0.189 OA 
BRANCH  19  21
HETATM   21  C   UNL     1     -10.546  12.455  66.431  1.00  0.00    -0.271 A  
HETATM   22  C   UNL     1      -9.780  13.617  66.260  1.00  0.00    -0.295 A  
HETATM   23  C   UNL     1     -10.278  14.680  65.508  1.00  0.00    -0.395 A  
HETATM   24  C   UNL     1     -11.533  14.573  64.921  1.00  0.00    -0.396 A  
HETATM   25  F   UNL     1     -12.010  15.595  64.197  1.00  0.00    -0.461 F  
HETATM   26  C   UNL     1     -12.300  13.421  65.069  1.00  0.00    -0.481 A  
HETATM   27  C   UNL     1     -11.807  12.358  65.827  1.00  0.00    -0.467 A  
ENDBRANCH  19  21
ENDBRANCH  18  19
ENDBRANCH  17  18
ENDBRANCH  16  17
ENDBRANCH   8  16
TORSDOF 6
ENDMDL
MODEL      211
REMARK 921   NORMALIZED FREE ENERGY PREDICTED BY IDOCK:   -3.74 KCAL/MOL
REMARK 922        TOTAL FREE ENERGY PREDICTED BY IDOCK:   -6.26 KCAL/MOL
REMARK 923 INTER-LIGAND FREE ENERGY PREDICTED BY IDOCK:   -6.00 KCAL/MOL
REMARK 924 INTRA-LIGAND FREE ENERGY PREDICTED BY IDOCK:   -0.26 KCAL/MOL
REMARK 927      BINDING AFFINITY PREDICTED BY RF-SCORE:    0.00 PKD
ROOT
HETATM    1  O   UNL     1      -9.465  16.935  68.537  1.00  0.00    -0.248 OA 
HETATM    2  C   UNL     1      -9.476  15.509  68.730  1.00  0.00    -0.210 C  
HETATM    3  H   UNL     1      -9.426  17.342  69.395  1.00  0.00     0.000 HD 
HETATM    4  C   UNL     1      -9.539  14.848  67.340  1.00  0.00    -0.206 C  
HETATM    5  C   UNL     1      -8.190  15.124  69.489  1.00  0.00    -0.160 C  
HETATM    6  C   UNL     1      -8.219  15.000  66.580  1.00  0.00     0.015 C  
HETATM    7  C   UNL     1      -6.940  15.238  68.613  1.00  0.00    -0.110 C  
HETATM    8  N   UNL     1      -7.049  14.524  67.331  1.00  0.00    -0.178 NA 
ENDROOT
BRANCH   2   9
HETATM    9  C   UNL     1     -10.713  15.154  69.566  1.00  0.00    -0.273 A  
HETATM   10  C   UNL     1     -11.168  16.001  70.593  1.00  0.00    -0.395 A  
HETATM   11  C   UNL     1     -11.418  13.953  69.351  1.00  0.00    -0.334 A  
HETATM   12  C   UNL     1     -12.931  14.460  71.163  1.00  0.00    -0.349 A  
HETATM   13  C   UNL     1     -12.266  15.660  71.386  1.00  0.00    -0.477 A  
HETATM   14 BR   UNL     1     -14.396  13.981  72.258  1.00  0.00    -0.353 Br 
HETATM   15  C   UNL     1     -12.518  13.607  70.144  1.00  0.00    -0.305 A  
ENDBRANCH   2   9
BRANCH   8  16
HETATM   16  C   UNL     1      -7.014  13.063  67.522  1.00  0.00    -0.151 C  
BRANCH  16  17
HETATM   17  C   UNL     1      -8.248  12.326  66.990  1.00  0.00    -0.155 C  
BRANCH  17  18
HETATM   18  C   UNL     1      -7.967  10.857  66.677  1.00  0.00    -0.148 C  
BRANCH  18  19
HETATM   19  C   UNL     1      -9.153  10.202  65.997  1.00  0.00    -0.154 C  
HETATM   20  O   UNL     1      -9.895  10.805  65.225  1.00  0.00    -0.235 OA 
BRANCH  19  21
HETATM   21  C   UNL     1      -9.453   8.780  66.320  1.00  0.00    -0.300 A  
HETATM   22  C   UNL     1     -10.413   8.518  67.306  1.00  0.00    -0.366 A  
HETATM   23  C   UNL     1     -10.717   7.203  67.656  1.00  0.00    -0.314 A  
HETATM   24  C   UNL     1     -10.069   6.156  67.011  1.00  0.00    -0.177 A  
HETATM   25  F   UNL     1     -10.363   4.892  67.347  1.00  0.00    -0.211 F  
HETATM   26  C   UNL     1      -9.123   6.400  66.019  1.00  0.00    -0.118 A  
HETATM   27  C   UNL     1      -8.811   7.715  65.671  1.00  0.00    -0.086 A  
ENDBRANCH  19  21
ENDBRANCH  18  19
ENDBRANCH  17  18
ENDBRANCH  16  17
ENDBRANCH   8  16
TORSDOF 6
ENDMDL
MODEL      212
REMARK 921   NORMALIZED FREE ENERGY PREDICTED BY IDOCK:   -3.73 KCAL/MOL
REMARK 922        TOTAL FREE ENERGY PREDICTED BY IDOCK:   -6.25 KCAL/MOL
REMARK 923 INTER-LIGAND FREE ENERGY PREDICTED BY IDOCK:   -4.97 KCAL/MOL
REMARK 924 INTRA-LIGAND FREE ENERGY PREDICTED BY IDOCK:   -1.28 KCAL/MOL
REMARK 927      BINDING AFFINITY PREDICTED BY RF-SCORE:    0.00 PKD
ROOT
HETATM    1  O   UNL     1      -9.364   6.831  65.008  1.00  0.00     0.036 OA 
HETATM    2  C   UNL     1      -9.450   7.385  66.333  1.00  0.00    -0.134 C  
HETATM    3  H   UNL     1      -8.570   7.165  64.606  1.00  0.00     0.000 HD 
HETATM    4  C   UNL     1     -10.737   6.844  66.986  1.00  0.00    -0.432 C  
HETATM    5  C   UNL     1      -8.190   6.952  67.109  1.00  0.00    -0.118 C  
HETATM    6  C   UNL     1     -10.616   5.358  67.329  1.00  0.00    -0.176 C  
HETATM    7  C   UNL     1      -8.209   5.464  67.469  1.00  0.00    -0.100 C  
HETATM    8  N   UNL     1      -9.441   5.037  68.151  1.00  0.00    -0.126 NA 
ENDROOT
BRANCH   2   9
HETATM    9  C   UNL     1      -9.496   8.913  66.205  1.00  0.00    -0.304 A  
HETATM   10  C   UNL     1      -9.724   9.733  67.326  1.00  0.00    -0.213 A  
HETATM   11  C   UNL     1      -9.336   9.545  64.956  1.00  0.00    -0.294 A  
HETATM   12  C   UNL     1      -9.668  11.717  65.957  1.00  0.00    -0.232 A  
HETATM   13  C   UNL     1      -9.811  11.123  67.206  1.00  0.00    -0.198 A  
HETATM   14 BR   UNL     1      -9.820  13.593  65.789  1.00  0.00    -0.179 Br 
HETATM   15  C   UNL     1      -9.424  10.936  64.832  1.00  0.00    -0.277 A  
ENDBRANCH   2   9
BRANCH   8  16
HETATM   16  C   UNL     1      -9.509   5.565  69.525  1.00  0.00    -0.141 C  
BRANCH  16  17
HETATM   17  C   UNL     1     -10.929   5.853  70.022  1.00  0.00    -0.430 C  
BRANCH  17  18
HETATM   18  C   UNL     1     -11.106   7.294  70.500  1.00  0.00    -0.290 C  
BRANCH  18  19
HETATM   19  C   UNL     1     -10.394   7.528  71.818  1.00  0.00    -0.192 C  
HETATM   20  O   UNL     1     -10.907   7.279  72.906  1.00  0.00    -0.278 OA 
BRANCH  19  21
HETATM   21  C   UNL     1      -9.032   8.128  71.784  1.00  0.00    -0.216 A  
HETATM   22  C   UNL     1      -8.155   7.828  72.836  1.00  0.00    -0.169 A  
HETATM   23  C   UNL     1      -6.874   8.378  72.859  1.00  0.00    -0.100 A  
HETATM   24  C   UNL     1      -6.471   9.216  71.827  1.00  0.00     0.019 A  
HETATM   25  F   UNL     1      -5.239   9.743  71.849  1.00  0.00    -0.062 F  
HETATM   26  C   UNL     1      -7.324   9.512  70.768  1.00  0.00    -0.103 A  
HETATM   27  C   UNL     1      -8.609   8.969  70.745  1.00  0.00    -0.259 A  
ENDBRANCH  19  21
ENDBRANCH  18  19
ENDBRANCH  17  18
ENDBRANCH  16  17
ENDBRANCH   8  16
TORSDOF 6
ENDMDL
MODEL      213
REMARK 921   NORMALIZED FREE ENERGY PREDICTED BY IDOCK:   -3.70 KCAL/MOL
REMARK 922        TOTAL FREE ENERGY PREDICTED BY IDOCK:   -6.21 KCAL/MOL
REMARK 923 INTER-LIGAND FREE ENERGY PREDICTED BY IDOCK:   -6.28 KCAL/MOL
REMARK 924 INTRA-LIGAND FREE ENERGY PREDICTED BY IDOCK:    0.08 KCAL/MOL
REMARK 927      BINDING AFFINITY PREDICTED BY RF-SCORE:    0.00 PKD
ROOT
HETATM    1  O   UNL     1     -11.788  11.752  71.143  1.00  0.00    -0.193 OA 
HETATM    2  C   UNL     1     -11.781  10.631  70.240  1.00  0.00    -0.344 C  
HETATM    3  H   UNL     1     -12.495  12.330  70.881  1.00  0.00     0.000 HD 
HETATM    4  C   UNL     1     -10.635   9.693  70.664  1.00  0.00    -0.386 C  
HETATM    5  C   UNL     1     -13.154   9.936  70.340  1.00  0.00     0.071 C  
HETATM    6  C   UNL     1     -10.949   8.972  71.977  1.00  0.00    -0.285 C  
HETATM    7  C   UNL     1     -13.332   9.181  71.659  1.00  0.00    -0.383 C  
HETATM    8  N   UNL     1     -12.230   8.254  71.963  1.00  0.00    -0.327 NA 
ENDROOT
BRANCH   2   9
HETATM    9  C   UNL     1     -11.559  11.168  68.820  1.00  0.00    -0.389 A  
HETATM   10  C   UNL     1     -11.002  10.359  67.813  1.00  0.00    -0.369 A  
HETATM   11  C   UNL     1     -11.883  12.497  68.485  1.00  0.00    -0.341 A  
HETATM   12  C   UNL     1     -11.068  12.180  66.234  1.00  0.00    -0.310 A  
HETATM   13  C   UNL     1     -10.756  10.858  66.531  1.00  0.00    -0.270 A  
HETATM   14 BR   UNL     1     -10.706  12.865  64.511  1.00  0.00    -0.421 Br 
HETATM   15  C   UNL     1     -11.637  13.002  67.203  1.00  0.00    -0.411 A  
ENDBRANCH   2   9
BRANCH   8  16
HETATM   16  C   UNL     1     -12.250   7.082  71.069  1.00  0.00    -0.374 C  
BRANCH  16  17
HETATM   17  C   UNL     1     -11.005   6.938  70.188  1.00  0.00    -0.322 C  
BRANCH  17  18
HETATM   18  C   UNL     1     -10.010   5.916  70.735  1.00  0.00    -0.241 C  
BRANCH  18  19
HETATM   19  C   UNL     1      -9.730   4.823  69.722  1.00  0.00    -0.202 C  
HETATM   20  O   UNL     1      -9.976   3.638  69.935  1.00  0.00    -0.069 OA 
BRANCH  19  21
HETATM   21  C   UNL     1      -9.088   5.205  68.435  1.00  0.00    -0.131 A  
HETATM   22  C   UNL     1      -8.506   4.189  67.663  1.00  0.00    -0.103 A  
HETATM   23  C   UNL     1      -7.878   4.498  66.458  1.00  0.00    -0.099 A  
HETATM   24  C   UNL     1      -7.843   5.817  66.022  1.00  0.00    -0.101 A  
HETATM   25  F   UNL     1      -7.240   6.112  64.862  1.00  0.00    -0.055 F  
HETATM   26  C   UNL     1      -8.428   6.835  66.769  1.00  0.00    -0.117 A  
HETATM   27  C   UNL     1      -9.052   6.531  67.981  1.00  0.00    -0.114 A  
ENDBRANCH  19  21
ENDBRANCH  18  19
ENDBRANCH  17  18
ENDBRANCH  16  17
ENDBRANCH   8  16
TORSDOF 6
ENDMDL
MODEL      214
REMARK 921   NORMALIZED FREE ENERGY PREDICTED BY IDOCK:   -3.69 KCAL/MOL
REMARK 922        TOTAL FREE ENERGY PREDICTED BY IDOCK:   -6.20 KCAL/MOL
REMARK 923 INTER-LIGAND FREE ENERGY PREDICTED BY IDOCK:   -5.44 KCAL/MOL
REMARK 924 INTRA-LIGAND FREE ENERGY PREDICTED BY IDOCK:   -0.76 KCAL/MOL
REMARK 927      BINDING AFFINITY PREDICTED BY RF-SCORE:    0.00 PKD
ROOT
HETATM    1  O   UNL     1     -11.289   6.384  70.862  1.00  0.00    -0.304 OA 
HETATM    2  C   UNL     1     -10.064   7.069  70.543  1.00  0.00    -0.191 C  
HETATM    3  H   UNL     1     -11.522   6.609  71.756  1.00  0.00     0.000 HD 
HETATM    4  C   UNL     1      -9.686   6.705  69.095  1.00  0.00    -0.148 C  
HETATM    5  C   UNL     1     -10.313   8.582  70.707  1.00  0.00    -0.238 C  
HETATM    6  C   UNL     1     -10.625   7.362  68.082  1.00  0.00    -0.162 C  
HETATM    7  C   UNL     1     -11.201   9.150  69.597  1.00  0.00    -0.009 C  
HETATM    8  N   UNL     1     -10.737   8.819  68.241  1.00  0.00    -0.127 NA 
ENDROOT
BRANCH   2   9
HETATM    9  C   UNL     1      -8.988   6.598  71.531  1.00  0.00    -0.139 A  
HETATM   10  C   UNL     1      -7.646   6.999  71.395  1.00  0.00    -0.086 A  
HETATM   11  C   UNL     1      -9.304   5.727  72.592  1.00  0.00    -0.145 A  
HETATM   12  C   UNL     1      -6.994   5.662  73.291  1.00  0.00    -0.085 A  
HETATM   13  C   UNL     1      -6.656   6.536  72.265  1.00  0.00    -0.059 A  
HETATM   14 BR   UNL     1      -5.649   5.009  74.448  1.00  0.00    -0.023 Br 
HETATM   15  C   UNL     1      -8.314   5.260  73.465  1.00  0.00    -0.113 A  
ENDBRANCH   2   9
BRANCH   8  16
HETATM   16  C   UNL     1      -9.508   9.555  67.895  1.00  0.00    -0.132 C  
BRANCH  16  17
HETATM   17  C   UNL     1      -9.615  10.400  66.622  1.00  0.00    -0.219 C  
BRANCH  17  18
HETATM   18  C   UNL     1     -10.793  11.373  66.657  1.00  0.00    -0.339 C  
BRANCH  18  19
HETATM   19  C   UNL     1     -11.041  11.988  65.294  1.00  0.00    -0.317 C  
HETATM   20  O   UNL     1     -11.235  11.315  64.284  1.00  0.00    -0.299 OA 
BRANCH  19  21
HETATM   21  C   UNL     1     -11.001  13.471  65.174  1.00  0.00    -0.328 A  
HETATM   22  C   UNL     1     -12.094  14.112  64.574  1.00  0.00    -0.489 A  
HETATM   23  C   UNL     1     -12.098  15.498  64.423  1.00  0.00    -0.146 A  
HETATM   24  C   UNL     1     -11.015  16.239  64.882  1.00  0.00    -0.307 A  
HETATM   25  F   UNL     1     -11.021  17.571  64.737  1.00  0.00    -0.330 F  
HETATM   26  C   UNL     1      -9.929  15.620  65.493  1.00  0.00    -0.364 A  
HETATM   27  C   UNL     1      -9.919  14.231  65.640  1.00  0.00    -0.346 A  
ENDBRANCH  19  21
ENDBRANCH  18  19
ENDBRANCH  17  18
ENDBRANCH  16  17
ENDBRANCH   8  16
TORSDOF 6
ENDMDL
MODEL      215
REMARK 921   NORMALIZED FREE ENERGY PREDICTED BY IDOCK:   -3.68 KCAL/MOL
REMARK 922        TOTAL FREE ENERGY PREDICTED BY IDOCK:   -6.18 KCAL/MOL
REMARK 923 INTER-LIGAND FREE ENERGY PREDICTED BY IDOCK:   -5.62 KCAL/MOL
REMARK 924 INTRA-LIGAND FREE ENERGY PREDICTED BY IDOCK:   -0.55 KCAL/MOL
REMARK 927      BINDING AFFINITY PREDICTED BY RF-SCORE:    0.00 PKD
ROOT
HETATM    1  O   UNL     1      -8.811   9.242  69.539  1.00  0.00    -0.135 OA 
HETATM    2  C   UNL     1      -9.416   9.597  68.282  1.00  0.00    -0.136 C  
HETATM    3  H   UNL     1      -7.978   8.825  69.351  1.00  0.00     0.000 HD 
HETATM    4  C   UNL     1     -10.767  10.272  68.586  1.00  0.00    -0.255 C  
HETATM    5  C   UNL     1      -8.453  10.550  67.546  1.00  0.00    -0.118 C  
HETATM    6  C   UNL     1     -10.580  11.665  69.191  1.00  0.00    -0.108 C  
HETATM    7  C   UNL     1      -8.402  11.938  68.189  1.00  0.00    -0.161 C  
HETATM    8  N   UNL     1      -9.726  12.548  68.385  1.00  0.00    -0.215 NA 
ENDROOT
BRANCH   2   9
HETATM    9  C   UNL     1      -9.612   8.309  67.471  1.00  0.00    -0.194 A  
HETATM   10  C   UNL     1     -10.528   7.322  67.878  1.00  0.00    -0.267 A  
HETATM   11  C   UNL     1      -8.863   8.062  66.304  1.00  0.00    -0.191 A  
HETATM   12  C   UNL     1      -9.909   5.904  66.030  1.00  0.00     0.066 A  
HETATM   13  C   UNL     1     -10.676   6.128  67.167  1.00  0.00    -0.422 A  
HETATM   14 BR   UNL     1     -10.085   4.276  65.086  1.00  0.00    -0.185 Br 
HETATM   15  C   UNL     1      -9.007   6.867  65.589  1.00  0.00     0.025 A  
ENDBRANCH   2   9
BRANCH   8  16
HETATM   16  C   UNL     1     -10.328  12.955  67.102  1.00  0.00    -0.238 C  
BRANCH  16  17
HETATM   17  C   UNL     1      -9.536  14.027  66.344  1.00  0.00    -0.299 C  
BRANCH  17  18
HETATM   18  C   UNL     1      -8.752  14.949  67.278  1.00  0.00    -0.224 C  
BRANCH  18  19
HETATM   19  C   UNL     1      -9.384  16.325  67.351  1.00  0.00    -0.221 C  
HETATM   20  O   UNL     1     -10.542  16.508  67.720  1.00  0.00    -0.315 OA 
BRANCH  19  21
HETATM   21  C   UNL     1      -8.575  17.495  66.913  1.00  0.00    -0.267 A  
HETATM   22  C   UNL     1      -7.398  17.249  66.194  1.00  0.00    -0.316 A  
HETATM   23  C   UNL     1      -6.597  18.310  65.776  1.00  0.00    -0.317 A  
HETATM   24  C   UNL     1      -6.981  19.613  66.068  1.00  0.00    -0.267 A  
HETATM   25  F   UNL     1      -6.211  20.633  65.664  1.00  0.00    -0.227 F  
HETATM   26  C   UNL     1      -8.154  19.876  66.769  1.00  0.00    -0.349 A  
HETATM   27  C   UNL     1      -8.955  18.815  67.195  1.00  0.00    -0.291 A  
ENDBRANCH  19  21
ENDBRANCH  18  19
ENDBRANCH  17  18
ENDBRANCH  16  17
ENDBRANCH   8  16
TORSDOF 6
ENDMDL
MODEL      216
REMARK 921   NORMALIZED FREE ENERGY PREDICTED BY IDOCK:   -3.57 KCAL/MOL
REMARK 922        TOTAL FREE ENERGY PREDICTED BY IDOCK:   -6.04 KCAL/MOL
REMARK 923 INTER-LIGAND FREE ENERGY PREDICTED BY IDOCK:   -5.28 KCAL/MOL
REMARK 924 INTRA-LIGAND FREE ENERGY PREDICTED BY IDOCK:   -0.76 KCAL/MOL
REMARK 927      BINDING AFFINITY PREDICTED BY RF-SCORE:    0.00 PKD
ROOT
HETATM    1  O   UNL     1     -11.040   4.777  66.274  1.00  0.00    -0.510 OA 
HETATM    2  C   UNL     1      -9.820   5.298  66.833  1.00  0.00    -0.171 C  
HETATM    3  H   UNL     1     -11.122   3.872  66.552  1.00  0.00     0.000 HD 
HETATM    4  C   UNL     1      -9.686   6.765  66.383  1.00  0.00    -0.125 C  
HETATM    5  C   UNL     1      -9.914   5.177  68.368  1.00  0.00    -0.214 C  
HETATM    6  C   UNL     1     -10.703   7.668  67.084  1.00  0.00    -0.290 C  
HETATM    7  C   UNL     1     -10.902   6.178  68.972  1.00  0.00    -0.350 C  
HETATM    8  N   UNL     1     -10.668   7.568  68.549  1.00  0.00    -0.129 NA 
ENDROOT
BRANCH   2   9
HETATM    9  C   UNL     1      -8.656   4.449  66.304  1.00  0.00    -0.112 A  
HETATM   10  C   UNL     1      -7.515   5.046  65.738  1.00  0.00    -0.082 A  
HETATM   11  C   UNL     1      -8.704   3.041  66.344  1.00  0.00    -0.133 A  
HETATM   12  C   UNL     1      -6.558   2.888  65.250  1.00  0.00    -0.036 A  
HETATM   13  C   UNL     1      -6.474   4.275  65.213  1.00  0.00    -0.039 A  
HETATM   14 BR   UNL     1      -5.165   1.845  64.511  1.00  0.00    -0.005 Br 
HETATM   15  C   UNL     1      -7.664   2.266  65.819  1.00  0.00    -0.072 A  
ENDBRANCH   2   9
BRANCH   8  16
HETATM   16  C   UNL     1      -9.443   8.119  69.158  1.00  0.00    -0.155 C  
BRANCH  16  17
HETATM   17  C   UNL     1      -8.830   9.295  68.391  1.00  0.00    -0.129 C  
BRANCH  17  18
HETATM   18  C   UNL     1      -9.379  10.646  68.848  1.00  0.00    -0.191 C  
BRANCH  18  19
HETATM   19  C   UNL     1      -8.938  11.761  67.920  1.00  0.00    -0.180 C  
HETATM   20  O   UNL     1      -7.805  12.238  67.940  1.00  0.00    -0.124 OA 
BRANCH  19  21
HETATM   21  C   UNL     1      -9.940  12.328  66.976  1.00  0.00    -0.220 A  
HETATM   22  C   UNL     1     -10.043  11.753  65.702  1.00  0.00    -0.278 A  
HETATM   23  C   UNL     1     -10.954  12.259  64.776  1.00  0.00    -0.346 A  
HETATM   24  C   UNL     1     -11.767  13.329  65.131  1.00  0.00    -0.330 A  
HETATM   25  F   UNL     1     -12.644  13.813  64.241  1.00  0.00    -0.389 F  
HETATM   26  C   UNL     1     -11.687  13.902  66.396  1.00  0.00    -0.403 A  
HETATM   27  C   UNL     1     -10.771  13.403  67.324  1.00  0.00    -0.265 A  
ENDBRANCH  19  21
ENDBRANCH  18  19
ENDBRANCH  17  18
ENDBRANCH  16  17
ENDBRANCH   8  16
TORSDOF 6
ENDMDL
MODEL      217
REMARK 921   NORMALIZED FREE ENERGY PREDICTED BY IDOCK:   -3.42 KCAL/MOL
REMARK 922        TOTAL FREE ENERGY PREDICTED BY IDOCK:   -5.83 KCAL/MOL
REMARK 923 INTER-LIGAND FREE ENERGY PREDICTED BY IDOCK:   -4.89 KCAL/MOL
REMARK 924 INTRA-LIGAND FREE ENERGY PREDICTED BY IDOCK:   -0.94 KCAL/MOL
REMARK 927      BINDING AFFINITY PREDICTED BY RF-SCORE:    0.00 PKD
ROOT
HETATM    1  O   UNL     1     -10.075   4.535  64.993  1.00  0.00    -0.327 OA 
HETATM    2  C   UNL     1      -9.229   5.297  65.873  1.00  0.00    -0.159 C  
HETATM    3  H   UNL     1      -9.519   3.941  64.500  1.00  0.00     0.000 HD 
HETATM    4  C   UNL     1     -10.129   6.260  66.671  1.00  0.00    -0.214 C  
HETATM    5  C   UNL     1      -8.491   4.306  66.795  1.00  0.00    -0.104 C  
HETATM    6  C   UNL     1     -10.979   5.516  67.703  1.00  0.00     0.206 C  
HETATM    7  C   UNL     1      -9.420   3.679  67.838  1.00  0.00    -0.169 C  
HETATM    8  N   UNL     1     -10.195   4.664  68.608  1.00  0.00    -0.015 NA 
ENDROOT
BRANCH   2   9
HETATM    9  C   UNL     1      -8.222   6.070  65.010  1.00  0.00    -0.136 A  
HETATM   10  C   UNL     1      -7.173   6.803  65.593  1.00  0.00    -0.073 A  
HETATM   11  C   UNL     1      -8.331   6.091  63.605  1.00  0.00     0.054 A  
HETATM   12  C   UNL     1      -6.425   7.562  63.430  1.00  0.00    -0.054 A  
HETATM   13  C   UNL     1      -6.281   7.544  64.813  1.00  0.00    -0.038 A  
HETATM   14 BR   UNL     1      -5.240   8.591  62.378  1.00  0.00    -0.071 Br 
HETATM   15  C   UNL     1      -7.441   6.833  62.821  1.00  0.00    -0.082 A  
ENDBRANCH   2   9
BRANCH   8  16
HETATM   16  C   UNL     1      -9.338   5.414  69.544  1.00  0.00    -0.124 C  
BRANCH  16  17
HETATM   17  C   UNL     1     -10.106   6.279  70.549  1.00  0.00    -0.230 C  
BRANCH  17  18
HETATM   18  C   UNL     1      -9.510   7.678  70.698  1.00  0.00    -0.163 C  
BRANCH  18  19
HETATM   19  C   UNL     1     -10.206   8.672  69.789  1.00  0.00    -0.206 C  
HETATM   20  O   UNL     1      -9.953   8.769  68.590  1.00  0.00    -0.171 OA 
BRANCH  19  21
HETATM   21  C   UNL     1     -11.204   9.598  70.391  1.00  0.00    -0.342 A  
HETATM   22  C   UNL     1     -11.375  10.856  69.798  1.00  0.00    -0.374 A  
HETATM   23  C   UNL     1     -12.286  11.766  70.334  1.00  0.00    -0.416 A  
HETATM   24  C   UNL     1     -13.030  11.410  71.452  1.00  0.00    -0.365 A  
HETATM   25  F   UNL     1     -13.906  12.284  71.966  1.00  0.00    -0.404 F  
HETATM   26  C   UNL     1     -12.882  10.159  72.045  1.00  0.00    -0.472 A  
HETATM   27  C   UNL     1     -11.966   9.249  71.515  1.00  0.00    -0.439 A  
ENDBRANCH  19  21
ENDBRANCH  18  19
ENDBRANCH  17  18
ENDBRANCH  16  17
ENDBRANCH   8  16
TORSDOF 6
ENDMDL
MODEL      218
REMARK 921   NORMALIZED FREE ENERGY PREDICTED BY IDOCK:   -3.35 KCAL/MOL
REMARK 922        TOTAL FREE ENERGY PREDICTED BY IDOCK:   -5.74 KCAL/MOL
REMARK 923 INTER-LIGAND FREE ENERGY PREDICTED BY IDOCK:   -5.07 KCAL/MOL
REMARK 924 INTRA-LIGAND FREE ENERGY PREDICTED BY IDOCK:   -0.68 KCAL/MOL
REMARK 927      BINDING AFFINITY PREDICTED BY RF-SCORE:    0.00 PKD
ROOT
HETATM    1  O   UNL     1     -10.413  12.498  67.409  1.00  0.00    -0.217 OA 
HETATM    2  C   UNL     1      -9.803  11.286  67.890  1.00  0.00    -0.176 C  
HETATM    3  H   UNL     1     -10.466  13.104  68.139  1.00  0.00     0.000 HD 
HETATM    4  C   UNL     1      -9.717  10.302  66.708  1.00  0.00    -0.231 C  
HETATM    5  C   UNL     1      -8.407  11.645  68.439  1.00  0.00    -0.157 C  
HETATM    6  C   UNL     1      -8.666  10.737  65.685  1.00  0.00    -0.190 C  
HETATM    7  C   UNL     1      -7.414  11.988  67.326  1.00  0.00    -0.158 C  
HETATM    8  N   UNL     1      -7.337  10.969  66.267  1.00  0.00    -0.127 NA 
ENDROOT
BRANCH   2   9
HETATM    9  C   UNL     1     -10.687  10.725  69.013  1.00  0.00    -0.265 A  
HETATM   10  C   UNL     1     -11.867  11.380  69.410  1.00  0.00    -0.419 A  
HETATM   11  C   UNL     1     -10.331   9.548  69.700  1.00  0.00    -0.236 A  
HETATM   12  C   UNL     1     -12.263   9.744  71.135  1.00  0.00    -0.362 A  
HETATM   13  C   UNL     1     -12.649  10.897  70.462  1.00  0.00    -0.409 A  
HETATM   14 BR   UNL     1     -13.303   9.108  72.579  1.00  0.00    -0.396 Br 
HETATM   15  C   UNL     1     -11.111   9.062  70.756  1.00  0.00    -0.328 A  
ENDBRANCH   2   9
BRANCH   8  16
HETATM   16  C   UNL     1      -6.671   9.743  66.745  1.00  0.00    -0.079 C  
BRANCH  16  17
HETATM   17  C   UNL     1      -7.584   8.515  66.820  1.00  0.00    -0.090 C  
BRANCH  17  18
HETATM   18  C   UNL     1      -6.891   7.302  67.438  1.00  0.00    -0.077 C  
BRANCH  18  19
HETATM   19  C   UNL     1      -7.179   7.200  68.923  1.00  0.00    -0.090 C  
HETATM   20  O   UNL     1      -6.856   8.073  69.726  1.00  0.00    -0.043 OA 
BRANCH  19  21
HETATM   21  C   UNL     1      -7.841   5.967  69.429  1.00  0.00    -0.094 A  
HETATM   22  C   UNL     1      -9.222   6.011  69.664  1.00  0.00    -0.148 A  
HETATM   23  C   UNL     1      -9.886   4.887  70.153  1.00  0.00    -0.309 A  
HETATM   24  C   UNL     1      -9.171   3.721  70.394  1.00  0.00    -0.143 A  
HETATM   25  F   UNL     1      -9.810   2.640  70.862  1.00  0.00    -0.220 F  
HETATM   26  C   UNL     1      -7.802   3.655  70.152  1.00  0.00    -0.047 A  
HETATM   27  C   UNL     1      -7.132   4.781  69.669  1.00  0.00    -0.054 A  
ENDBRANCH  19  21
ENDBRANCH  18  19
ENDBRANCH  17  18
ENDBRANCH  16  17
ENDBRANCH   8  16
TORSDOF 6
ENDMDL
MODEL      219
REMARK 921   NORMALIZED FREE ENERGY PREDICTED BY IDOCK:   -3.34 KCAL/MOL
REMARK 922        TOTAL FREE ENERGY PREDICTED BY IDOCK:   -5.72 KCAL/MOL
REMARK 923 INTER-LIGAND FREE ENERGY PREDICTED BY IDOCK:   -5.16 KCAL/MOL
REMARK 924 INTRA-LIGAND FREE ENERGY PREDICTED BY IDOCK:   -0.56 KCAL/MOL
REMARK 927      BINDING AFFINITY PREDICTED BY RF-SCORE:    0.00 PKD
ROOT
HETATM    1  O   UNL     1     -12.208  11.792  71.161  1.00  0.00    -0.275 OA 
HETATM    2  C   UNL     1     -12.165  10.611  70.340  1.00  0.00    -0.345 C  
HETATM    3  H   UNL     1     -12.835  12.392  70.774  1.00  0.00     0.000 HD 
HETATM    4  C   UNL     1     -11.149   9.639  70.967  1.00  0.00    -0.438 C  
HETATM    5  C   UNL     1     -13.585  10.010  70.304  1.00  0.00     0.590 C  
HETATM    6  C   UNL     1     -11.674   9.034  72.271  1.00  0.00    -0.213 C  
HETATM    7  C   UNL     1     -13.978   9.363  71.634  1.00  0.00    -0.183 C  
HETATM    8  N   UNL     1     -12.990   8.395  72.136  1.00  0.00    -0.344 NA 
ENDROOT
BRANCH   2   9
HETATM    9  C   UNL     1     -11.731  11.031  68.929  1.00  0.00    -0.400 A  
HETATM   10  C   UNL     1     -11.196  10.098  68.022  1.00  0.00    -0.247 A  
HETATM   11  C   UNL     1     -11.829  12.371  68.505  1.00  0.00    -0.352 A  
HETATM   12  C   UNL     1     -10.848  11.818  66.369  1.00  0.00    -0.282 A  
HETATM   13  C   UNL     1     -10.757  10.485  66.753  1.00  0.00    -0.252 A  
HETATM   14 BR   UNL     1     -10.224  12.348  64.666  1.00  0.00    -0.297 Br 
HETATM   15  C   UNL     1     -11.388  12.763  67.236  1.00  0.00    -0.364 A  
ENDBRANCH   2   9
BRANCH   8  16
HETATM   16  C   UNL     1     -12.978   7.165  71.323  1.00  0.00    -0.324 C  
BRANCH  16  17
HETATM   17  C   UNL     1     -11.653   6.896  70.603  1.00  0.00    -0.402 C  
BRANCH  17  18
HETATM   18  C   UNL     1     -11.117   5.488  70.861  1.00  0.00    -0.107 C  
BRANCH  18  19
HETATM   19  C   UNL     1      -9.777   5.276  70.184  1.00  0.00    -0.196 C  
HETATM   20  O   UNL     1      -9.628   4.531  69.219  1.00  0.00    -0.158 OA 
BRANCH  19  21
HETATM   21  C   UNL     1      -8.587   5.969  70.748  1.00  0.00    -0.135 A  
HETATM   22  C   UNL     1      -8.475   6.056  72.142  1.00  0.00    -0.124 A  
HETATM   23  C   UNL     1      -7.387   6.709  72.719  1.00  0.00    -0.084 A  
HETATM   24  C   UNL     1      -6.410   7.264  71.901  1.00  0.00    -0.040 A  
HETATM   25  F   UNL     1      -5.364   7.891  72.457  1.00  0.00    -0.036 F  
HETATM   26  C   UNL     1      -6.499   7.174  70.515  1.00  0.00    -0.047 A  
HETATM   27  C   UNL     1      -7.590   6.526  69.934  1.00  0.00    -0.100 A  
ENDBRANCH  19  21
ENDBRANCH  18  19
ENDBRANCH  17  18
ENDBRANCH  16  17
ENDBRANCH   8  16
TORSDOF 6
ENDMDL
MODEL      220
REMARK 921   NORMALIZED FREE ENERGY PREDICTED BY IDOCK:   -3.32 KCAL/MOL
REMARK 922        TOTAL FREE ENERGY PREDICTED BY IDOCK:   -5.69 KCAL/MOL
REMARK 923 INTER-LIGAND FREE ENERGY PREDICTED BY IDOCK:   -5.02 KCAL/MOL
REMARK 924 INTRA-LIGAND FREE ENERGY PREDICTED BY IDOCK:   -0.67 KCAL/MOL
REMARK 927      BINDING AFFINITY PREDICTED BY RF-SCORE:    0.00 PKD
ROOT
HETATM    1  O   UNL     1     -10.916   4.610  66.094  1.00  0.00    -0.558 OA 
HETATM    2  C   UNL     1      -9.858   5.382  66.690  1.00  0.00    -0.174 C  
HETATM    3  H   UNL     1     -10.531   3.816  65.742  1.00  0.00     0.000 HD 
HETATM    4  C   UNL     1     -10.480   6.670  67.261  1.00  0.00    -0.342 C  
HETATM    5  C   UNL     1      -9.209   4.522  67.793  1.00  0.00    -0.158 C  
HETATM    6  C   UNL     1     -11.329   6.387  68.502  1.00  0.00    -0.086 C  
HETATM    7  C   UNL     1     -10.113   4.368  69.019  1.00  0.00     0.081 C  
HETATM    8  N   UNL     1     -10.613   5.646  69.549  1.00  0.00    -0.301 NA 
ENDROOT
BRANCH   2   9
HETATM    9  C   UNL     1      -8.831   5.703  65.595  1.00  0.00    -0.150 A  
HETATM   10  C   UNL     1      -8.341   4.701  64.738  1.00  0.00    -0.127 A  
HETATM   11  C   UNL     1      -8.327   7.008  65.428  1.00  0.00    -0.121 A  
HETATM   12  C   UNL     1      -6.880   6.274  63.641  1.00  0.00    -0.041 A  
HETATM   13  C   UNL     1      -7.373   4.981  63.770  1.00  0.00    -0.051 A  
HETATM   14 BR   UNL     1      -5.546   6.646  62.355  1.00  0.00    -0.028 Br 
HETATM   15  C   UNL     1      -7.356   7.292  64.461  1.00  0.00    -0.080 A  
ENDBRANCH   2   9
BRANCH   8  16
HETATM   16  C   UNL     1      -9.539   6.417  70.202  1.00  0.00    -0.160 C  
BRANCH  16  17
HETATM   17  C   UNL     1      -9.631   7.932  69.989  1.00  0.00    -0.168 C  
BRANCH  17  18
HETATM   18  C   UNL     1     -10.078   8.677  71.246  1.00  0.00    -0.312 C  
BRANCH  18  19
HETATM   19  C   UNL     1     -11.045   9.795  70.909  1.00  0.00    -0.357 C  
HETATM   20  O   UNL     1     -12.028  10.057  71.598  1.00  0.00    -0.376 OA 
BRANCH  19  21
HETATM   21  C   UNL     1     -10.811  10.577  69.664  1.00  0.00    -0.320 A  
HETATM   22  C   UNL     1     -11.903  10.805  68.815  1.00  0.00    -0.250 A  
HETATM   23  C   UNL     1     -11.732  11.517  67.629  1.00  0.00    -0.283 A  
HETATM   24  C   UNL     1     -10.474  12.008  67.301  1.00  0.00    -0.218 A  
HETATM   25  F   UNL     1     -10.311  12.693  66.161  1.00  0.00    -0.244 F  
HETATM   26  C   UNL     1      -9.382  11.802  68.140  1.00  0.00    -0.190 A  
HETATM   27  C   UNL     1      -9.548  11.084  69.325  1.00  0.00    -0.008 A  
ENDBRANCH  19  21
ENDBRANCH  18  19
ENDBRANCH  17  18
ENDBRANCH  16  17
ENDBRANCH   8  16
TORSDOF 6
ENDMDL
MODEL      221
REMARK 921   NORMALIZED FREE ENERGY PREDICTED BY IDOCK:   -3.31 KCAL/MOL
REMARK 922        TOTAL FREE ENERGY PREDICTED BY IDOCK:   -5.68 KCAL/MOL
REMARK 923 INTER-LIGAND FREE ENERGY PREDICTED BY IDOCK:   -4.70 KCAL/MOL
REMARK 924 INTRA-LIGAND FREE ENERGY PREDICTED BY IDOCK:   -0.98 KCAL/MOL
REMARK 927      BINDING AFFINITY PREDICTED BY RF-SCORE:    0.00 PKD
ROOT
HETATM    1  O   UNL     1      -5.182  12.886  67.768  1.00  0.00    -0.099 OA 
HETATM    2  C   UNL     1      -6.520  12.357  67.769  1.00  0.00    -0.115 C  
HETATM    3  H   UNL     1      -5.096  13.460  68.521  1.00  0.00     0.000 HD 
HETATM    4  C   UNL     1      -6.658  11.426  66.550  1.00  0.00    -0.071 C  
HETATM    5  C   UNL     1      -6.725  11.596  69.095  1.00  0.00    -0.109 C  
HETATM    6  C   UNL     1      -5.863  10.131  66.732  1.00  0.00    -0.051 C  
HETATM    7  C   UNL     1      -5.946  10.279  69.139  1.00  0.00    -0.037 C  
HETATM    8  N   UNL     1      -6.182   9.413  67.973  1.00  0.00    -0.056 NA 
ENDROOT
BRANCH   2   9
HETATM    9  C   UNL     1      -7.496  13.537  67.678  1.00  0.00    -0.187 A  
HETATM   10  C   UNL     1      -7.034  14.865  67.645  1.00  0.00    -0.207 A  
HETATM   11  C   UNL     1      -8.889  13.330  67.648  1.00  0.00    -0.200 A  
HETATM   12  C   UNL     1      -9.292  15.710  67.599  1.00  0.00    -0.206 A  
HETATM   13  C   UNL     1      -7.922  15.944  67.608  1.00  0.00    -0.163 A  
HETATM   14 BR   UNL     1     -10.493  17.169  67.582  1.00  0.00    -0.344 Br 
HETATM   15  C   UNL     1      -9.781  14.407  67.613  1.00  0.00    -0.219 A  
ENDBRANCH   2   9
BRANCH   8  16
HETATM   16  C   UNL     1      -7.538   8.833  67.998  1.00  0.00    -0.097 C  
BRANCH  16  17
HETATM   17  C   UNL     1      -7.573   7.323  68.258  1.00  0.00    -0.118 C  
BRANCH  17  18
HETATM   18  C   UNL     1      -8.679   6.616  67.475  1.00  0.00    -0.118 C  
BRANCH  18  19
HETATM   19  C   UNL     1     -10.053   7.038  67.959  1.00  0.00    -0.169 C  
HETATM   20  O   UNL     1     -10.924   7.464  67.205  1.00  0.00    -0.312 OA 
BRANCH  19  21
HETATM   21  C   UNL     1     -10.335   6.972  69.419  1.00  0.00    -0.218 A  
HETATM   22  C   UNL     1     -10.808   8.130  70.051  1.00  0.00    -0.233 A  
HETATM   23  C   UNL     1     -11.071   8.124  71.420  1.00  0.00    -0.291 A  
HETATM   24  C   UNL     1     -10.872   6.958  72.149  1.00  0.00    -0.225 A  
HETATM   25  F   UNL     1     -11.127   6.953  73.465  1.00  0.00    -0.291 F  
HETATM   26  C   UNL     1     -10.416   5.796  71.535  1.00  0.00    -0.291 A  
HETATM   27  C   UNL     1     -10.145   5.800  70.166  1.00  0.00    -0.274 A  
ENDBRANCH  19  21
ENDBRANCH  18  19
ENDBRANCH  17  18
ENDBRANCH  16  17
ENDBRANCH   8  16
TORSDOF 6
ENDMDL
MODEL      222
REMARK 921   NORMALIZED FREE ENERGY PREDICTED BY IDOCK:   -3.29 KCAL/MOL
REMARK 922        TOTAL FREE ENERGY PREDICTED BY IDOCK:   -5.66 KCAL/MOL
REMARK 923 INTER-LIGAND FREE ENERGY PREDICTED BY IDOCK:   -5.63 KCAL/MOL
REMARK 924 INTRA-LIGAND FREE ENERGY PREDICTED BY IDOCK:   -0.03 KCAL/MOL
REMARK 927      BINDING AFFINITY PREDICTED BY RF-SCORE:    0.00 PKD
ROOT
HETATM    1  O   UNL     1     -11.702   6.991  73.064  1.00  0.00    -0.523 OA 
HETATM    2  C   UNL     1     -11.770   7.366  71.677  1.00  0.00    -0.279 C  
HETATM    3  H   UNL     1     -10.784   6.921  73.301  1.00  0.00     0.000 HD 
HETATM    4  C   UNL     1     -13.257   7.480  71.292  1.00  0.00    -0.313 C  
HETATM    5  C   UNL     1     -11.033   8.711  71.515  1.00  0.00    -0.360 C  
HETATM    6  C   UNL     1     -13.914   8.707  71.928  1.00  0.00    -0.442 C  
HETATM    7  C   UNL     1     -11.814   9.881  72.118  1.00  0.00     0.417 C  
HETATM    8  N   UNL     1     -13.207   9.964  71.651  1.00  0.00    -0.404 NA 
ENDROOT
BRANCH   2   9
HETATM    9  C   UNL     1     -11.069   6.275  70.857  1.00  0.00    -0.366 A  
HETATM   10  C   UNL     1     -11.106   6.281  69.450  1.00  0.00    -0.477 A  
HETATM   11  C   UNL     1     -10.386   5.215  71.487  1.00  0.00    -0.278 A  
HETATM   12  C   UNL     1      -9.858   4.221  69.351  1.00  0.00    -0.135 A  
HETATM   13  C   UNL     1     -10.508   5.264  68.701  1.00  0.00    -0.148 A  
HETATM   14 BR   UNL     1      -9.077   2.828  68.340  1.00  0.00    -0.239 Br 
HETATM   15  C   UNL     1      -9.787   4.194  70.740  1.00  0.00    -0.248 A  
ENDBRANCH   2   9
BRANCH   8  16
HETATM   16  C   UNL     1     -13.280  10.394  70.242  1.00  0.00     0.164 C  
BRANCH  16  17
HETATM   17  C   UNL     1     -11.964  10.943  69.681  1.00  0.00    -0.414 C  
BRANCH  17  18
HETATM   18  C   UNL     1     -12.107  11.466  68.252  1.00  0.00    -0.079 C  
BRANCH  18  19
HETATM   19  C   UNL     1     -11.048  12.505  67.938  1.00  0.00    -0.245 C  
HETATM   20  O   UNL     1     -11.306  13.577  67.395  1.00  0.00    -0.287 OA 
BRANCH  19  21
HETATM   21  C   UNL     1      -9.631  12.187  68.264  1.00  0.00    -0.210 A  
HETATM   22  C   UNL     1      -9.334  10.893  68.713  1.00  0.00    -0.190 A  
HETATM   23  C   UNL     1      -8.025  10.550  69.047  1.00  0.00    -0.136 A  
HETATM   24  C   UNL     1      -7.016  11.497  68.920  1.00  0.00    -0.100 A  
HETATM   25  F   UNL     1      -5.757  11.166  69.240  1.00  0.00    -0.041 F  
HETATM   26  C   UNL     1      -7.291  12.782  68.461  1.00  0.00    -0.115 A  
HETATM   27  C   UNL     1      -8.603  13.131  68.133  1.00  0.00    -0.181 A  
ENDBRANCH  19  21
ENDBRANCH  18  19
ENDBRANCH  17  18
ENDBRANCH  16  17
ENDBRANCH   8  16
TORSDOF 6
ENDMDL
MODEL      223
REMARK 921   NORMALIZED FREE ENERGY PREDICTED BY IDOCK:   -3.26 KCAL/MOL
REMARK 922        TOTAL FREE ENERGY PREDICTED BY IDOCK:   -5.62 KCAL/MOL
REMARK 923 INTER-LIGAND FREE ENERGY PREDICTED BY IDOCK:   -4.94 KCAL/MOL
REMARK 924 INTRA-LIGAND FREE ENERGY PREDICTED BY IDOCK:   -0.68 KCAL/MOL
REMARK 927      BINDING AFFINITY PREDICTED BY RF-SCORE:    0.00 PKD
ROOT
HETATM    1  O   UNL     1     -10.751   4.525  66.498  1.00  0.00    -0.337 OA 
HETATM    2  C   UNL     1      -9.673   5.462  66.674  1.00  0.00    -0.161 C  
HETATM    3  H   UNL     1     -10.397   3.651  66.613  1.00  0.00     0.000 HD 
HETATM    4  C   UNL     1     -10.247   6.879  66.486  1.00  0.00    -0.127 C  
HETATM    5  C   UNL     1      -9.100   5.261  68.092  1.00  0.00    -0.120 C  
HETATM    6  C   UNL     1     -11.144   7.287  67.657  1.00  0.00    -0.001 C  
HETATM    7  C   UNL     1     -10.045   5.773  69.181  1.00  0.00    -0.197 C  
HETATM    8  N   UNL     1     -10.496   7.158  68.969  1.00  0.00    -0.206 NA 
ENDROOT
BRANCH   2   9
HETATM    9  C   UNL     1      -8.601   5.156  65.620  1.00  0.00    -0.139 A  
HETATM   10  C   UNL     1      -8.467   3.868  65.068  1.00  0.00    -0.109 A  
HETATM   11  C   UNL     1      -7.699   6.148  65.188  1.00  0.00    -0.097 A  
HETATM   12  C   UNL     1      -6.575   4.568  63.748  1.00  0.00    -0.042 A  
HETATM   13  C   UNL     1      -7.463   3.574  64.141  1.00  0.00    -0.074 A  
HETATM   14 BR   UNL     1      -5.197   4.163  62.520  1.00  0.00    -0.005 Br 
HETATM   15  C   UNL     1      -6.691   5.857  64.261  1.00  0.00    -0.045 A  
ENDBRANCH   2   9
BRANCH   8  16
HETATM   16  C   UNL     1      -9.404   8.122  69.196  1.00  0.00    -0.151 C  
BRANCH  16  17
HETATM   17  C   UNL     1      -9.430   9.336  68.261  1.00  0.00    -0.148 C  
BRANCH  17  18
HETATM   18  C   UNL     1      -9.922  10.605  68.957  1.00  0.00    -0.226 C  
BRANCH  18  19
HETATM   19  C   UNL     1     -11.069  11.241  68.196  1.00  0.00    -0.259 C  
HETATM   20  O   UNL     1     -12.159  10.692  68.053  1.00  0.00    -0.366 OA 
BRANCH  19  21
HETATM   21  C   UNL     1     -10.842  12.567  67.560  1.00  0.00    -0.264 A  
HETATM   22  C   UNL     1      -9.527  12.921  67.228  1.00  0.00    -0.216 A  
HETATM   23  C   UNL     1      -9.260  14.159  66.645  1.00  0.00    -0.272 A  
HETATM   24  C   UNL     1     -10.308  15.033  66.387  1.00  0.00    -0.287 A  
HETATM   25  F   UNL     1     -10.051  16.223  65.825  1.00  0.00    -0.309 F  
HETATM   26  C   UNL     1     -11.621  14.692  66.697  1.00  0.00    -0.359 A  
HETATM   27  C   UNL     1     -11.892  13.455  67.287  1.00  0.00    -0.422 A  
ENDBRANCH  19  21
ENDBRANCH  18  19
ENDBRANCH  17  18
ENDBRANCH  16  17
ENDBRANCH   8  16
TORSDOF 6
ENDMDL
MODEL      224
REMARK 921   NORMALIZED FREE ENERGY PREDICTED BY IDOCK:   -3.24 KCAL/MOL
REMARK 922        TOTAL FREE ENERGY PREDICTED BY IDOCK:   -5.58 KCAL/MOL
REMARK 923 INTER-LIGAND FREE ENERGY PREDICTED BY IDOCK:   -4.73 KCAL/MOL
REMARK 924 INTRA-LIGAND FREE ENERGY PREDICTED BY IDOCK:   -0.85 KCAL/MOL
REMARK 927      BINDING AFFINITY PREDICTED BY RF-SCORE:    0.00 PKD
ROOT
HETATM    1  O   UNL     1      -8.539  12.270  69.076  1.00  0.00    -0.349 OA 
HETATM    2  C   UNL     1      -8.872  11.058  68.374  1.00  0.00    -0.151 C  
HETATM    3  H   UNL     1      -9.349  12.658  69.384  1.00  0.00     0.000 HD 
HETATM    4  C   UNL     1      -7.559  10.429  67.873  1.00  0.00    -0.088 C  
HETATM    5  C   UNL     1      -9.613  10.131  69.359  1.00  0.00    -0.249 C  
HETATM    6  C   UNL     1      -6.735   9.847  69.024  1.00  0.00    -0.053 C  
HETATM    7  C   UNL     1      -8.679   9.544  70.420  1.00  0.00    -0.223 C  
HETATM    8  N   UNL     1      -7.480   8.899  69.862  1.00  0.00    -0.055 NA 
ENDROOT
BRANCH   2   9
HETATM    9  C   UNL     1      -9.790  11.428  67.201  1.00  0.00    -0.212 A  
HETATM   10  C   UNL     1      -9.521  10.982  65.894  1.00  0.00    -0.244 A  
HETATM   11  C   UNL     1     -10.920  12.249  67.390  1.00  0.00    -0.298 A  
HETATM   12  C   UNL     1     -11.426  12.181  65.030  1.00  0.00    -0.323 A  
HETATM   13  C   UNL     1     -10.329  11.354  64.816  1.00  0.00    -0.349 A  
HETATM   14 BR   UNL     1     -12.499  12.711  63.568  1.00  0.00    -0.443 Br 
HETATM   15  C   UNL     1     -11.730  12.625  66.313  1.00  0.00    -0.460 A  
ENDBRANCH   2   9
BRANCH   8  16
HETATM   16  C   UNL     1      -7.815   7.633  69.183  1.00  0.00    -0.118 C  
BRANCH  16  17
HETATM   17  C   UNL     1      -6.598   6.821  68.727  1.00  0.00    -0.051 C  
BRANCH  17  18
HETATM   18  C   UNL     1      -6.374   6.895  67.217  1.00  0.00    -0.048 C  
BRANCH  18  19
HETATM   19  C   UNL     1      -7.680   6.767  66.459  1.00  0.00    -0.102 C  
HETATM   20  O   UNL     1      -8.413   7.725  66.226  1.00  0.00    -0.126 OA 
BRANCH  19  21
HETATM   21  C   UNL     1      -8.110   5.410  66.021  1.00  0.00    -0.107 A  
HETATM   22  C   UNL     1      -9.462   5.071  66.162  1.00  0.00    -0.166 A  
HETATM   23  C   UNL     1      -9.911   3.807  65.782  1.00  0.00    -0.095 A  
HETATM   24  C   UNL     1      -9.009   2.892  65.252  1.00  0.00    -0.143 A  
HETATM   25  F   UNL     1      -9.442   1.678  64.885  1.00  0.00    -0.133 F  
HETATM   26  C   UNL     1      -7.666   3.218  65.092  1.00  0.00    -0.081 A  
HETATM   27  C   UNL     1      -7.212   4.480  65.478  1.00  0.00    -0.068 A  
ENDBRANCH  19  21
ENDBRANCH  18  19
ENDBRANCH  17  18
ENDBRANCH  16  17
ENDBRANCH   8  16
TORSDOF 6
ENDMDL
MODEL      225
REMARK 921   NORMALIZED FREE ENERGY PREDICTED BY IDOCK:   -3.22 KCAL/MOL
REMARK 922        TOTAL FREE ENERGY PREDICTED BY IDOCK:   -5.57 KCAL/MOL
REMARK 923 INTER-LIGAND FREE ENERGY PREDICTED BY IDOCK:   -4.74 KCAL/MOL
REMARK 924 INTRA-LIGAND FREE ENERGY PREDICTED BY IDOCK:   -0.82 KCAL/MOL
REMARK 927      BINDING AFFINITY PREDICTED BY RF-SCORE:    0.00 PKD
ROOT
HETATM    1  O   UNL     1     -10.783   5.430  71.722  1.00  0.00    -0.232 OA 
HETATM    2  C   UNL     1     -10.972   6.458  70.733  1.00  0.00    -0.290 C  
HETATM    3  H   UNL     1      -9.903   5.087  71.619  1.00  0.00     0.000 HD 
HETATM    4  C   UNL     1     -12.398   7.015  70.899  1.00  0.00    -0.361 C  
HETATM    5  C   UNL     1      -9.903   7.544  70.970  1.00  0.00    -0.182 C  
HETATM    6  C   UNL     1     -12.536   7.849  72.174  1.00  0.00    -0.267 C  
HETATM    7  C   UNL     1     -10.180   8.369  72.229  1.00  0.00    -0.326 C  
HETATM    8  N   UNL     1     -11.541   8.925  72.284  1.00  0.00    -0.325 NA 
ENDROOT
BRANCH   2   9
HETATM    9  C   UNL     1     -10.784   5.822  69.348  1.00  0.00    -0.397 A  
HETATM   10  C   UNL     1      -9.893   4.752  69.151  1.00  0.00    -0.254 A  
HETATM   11  C   UNL     1     -11.480   6.308  68.224  1.00  0.00     0.192 A  
HETATM   12  C   UNL     1     -10.372   4.713  66.789  1.00  0.00    -0.125 A  
HETATM   13  C   UNL     1      -9.686   4.200  67.884  1.00  0.00    -0.161 A  
HETATM   14 BR   UNL     1     -10.068   3.990  65.070  1.00  0.00    -0.174 Br 
HETATM   15  C   UNL     1     -11.274   5.760  66.952  1.00  0.00     0.124 A  
ENDBRANCH   2   9
BRANCH   8  16
HETATM   16  C   UNL     1     -11.721  10.010  71.303  1.00  0.00    -0.369 C  
BRANCH  16  17
HETATM   17  C   UNL     1     -10.978   9.795  69.980  1.00  0.00    -0.319 C  
BRANCH  17  18
HETATM   18  C   UNL     1     -10.897  11.067  69.137  1.00  0.00    -0.283 C  
BRANCH  18  19
HETATM   19  C   UNL     1      -9.623  11.104  68.317  1.00  0.00    -0.185 C  
HETATM   20  O   UNL     1      -9.371  12.002  67.516  1.00  0.00    -0.172 OA 
BRANCH  19  21
HETATM   21  C   UNL     1      -8.660   9.978  68.461  1.00  0.00    -0.119 A  
HETATM   22  C   UNL     1      -7.624  10.114  69.394  1.00  0.00    -0.133 A  
HETATM   23  C   UNL     1      -6.687   9.094  69.555  1.00  0.00    -0.047 A  
HETATM   24  C   UNL     1      -6.797   7.938  68.792  1.00  0.00    -0.062 A  
HETATM   25  F   UNL     1      -5.897   6.958  68.948  1.00  0.00    -0.016 F  
HETATM   26  C   UNL     1      -7.828   7.781  67.871  1.00  0.00    -0.127 A  
HETATM   27  C   UNL     1      -8.764   8.803  67.702  1.00  0.00    -0.135 A  
ENDBRANCH  19  21
ENDBRANCH  18  19
ENDBRANCH  17  18
ENDBRANCH  16  17
ENDBRANCH   8  16
TORSDOF 6
ENDMDL
MODEL      226
REMARK 921   NORMALIZED FREE ENERGY PREDICTED BY IDOCK:   -3.22 KCAL/MOL
REMARK 922        TOTAL FREE ENERGY PREDICTED BY IDOCK:   -5.56 KCAL/MOL
REMARK 923 INTER-LIGAND FREE ENERGY PREDICTED BY IDOCK:   -4.74 KCAL/MOL
REMARK 924 INTRA-LIGAND FREE ENERGY PREDICTED BY IDOCK:   -0.82 KCAL/MOL
REMARK 927      BINDING AFFINITY PREDICTED BY RF-SCORE:    0.00 PKD
ROOT
HETATM    1  O   UNL     1      -6.934   9.048  72.834  1.00  0.00    -0.324 OA 
HETATM    2  C   UNL     1      -8.012   8.218  72.365  1.00  0.00    -0.140 C  
HETATM    3  H   UNL     1      -7.315   9.838  73.199  1.00  0.00     0.000 HD 
HETATM    4  C   UNL     1      -7.394   6.937  71.772  1.00  0.00    -0.084 C  
HETATM    5  C   UNL     1      -8.927   7.908  73.567  1.00  0.00    -0.343 C  
HETATM    6  C   UNL     1      -6.818   6.030  72.861  1.00  0.00    -0.075 C  
HETATM    7  C   UNL     1      -8.283   6.931  74.554  1.00  0.00    -0.149 C  
HETATM    8  N   UNL     1      -7.778   5.701  73.924  1.00  0.00    -0.100 NA 
ENDROOT
BRANCH   2   9
HETATM    9  C   UNL     1      -8.785   9.004  71.297  1.00  0.00    -0.240 A  
HETATM   10  C   UNL     1      -8.115   9.703  70.277  1.00  0.00    -0.206 A  
HETATM   11  C   UNL     1     -10.192   9.072  71.319  1.00  0.00    -0.384 A  
HETATM   12  C   UNL     1     -10.201  10.521  69.388  1.00  0.00    -0.221 A  
HETATM   13  C   UNL     1      -8.813  10.457  69.330  1.00  0.00    -0.138 A  
HETATM   14 BR   UNL     1     -11.144  11.567  68.128  1.00  0.00    -0.335 Br 
HETATM   15  C   UNL     1     -10.895   9.827  70.374  1.00  0.00    -0.370 A  
ENDBRANCH   2   9
BRANCH   8  16
HETATM   16  C   UNL     1      -8.882   4.827  73.484  1.00  0.00    -0.105 C  
BRANCH  16  17
HETATM   17  C   UNL     1      -8.609   4.074  72.178  1.00  0.00    -0.114 C  
BRANCH  17  18
HETATM   18  C   UNL     1      -9.871   3.874  71.339  1.00  0.00    -0.243 C  
BRANCH  18  19
HETATM   19  C   UNL     1      -9.709   2.722  70.367  1.00  0.00     0.022 C  
HETATM   20  O   UNL     1      -9.674   1.547  70.725  1.00  0.00    -0.113 OA 
BRANCH  19  21
HETATM   21  C   UNL     1      -9.541   3.039  68.922  1.00  0.00    -0.070 A  
HETATM   22  C   UNL     1      -9.716   4.369  68.516  1.00  0.00    -0.181 A  
HETATM   23  C   UNL     1      -9.585   4.715  67.172  1.00  0.00    -0.197 A  
HETATM   24  C   UNL     1      -9.270   3.732  66.241  1.00  0.00    -0.167 A  
HETATM   25  F   UNL     1      -9.143   4.066  64.949  1.00  0.00    -0.120 F  
HETATM   26  C   UNL     1      -9.079   2.410  66.630  1.00  0.00    -0.106 A  
HETATM   27  C   UNL     1      -9.215   2.059  67.974  1.00  0.00    -0.235 A  
ENDBRANCH  19  21
ENDBRANCH  18  19
ENDBRANCH  17  18
ENDBRANCH  16  17
ENDBRANCH   8  16
TORSDOF 6
ENDMDL
MODEL      227
REMARK 921   NORMALIZED FREE ENERGY PREDICTED BY IDOCK:   -3.17 KCAL/MOL
REMARK 922        TOTAL FREE ENERGY PREDICTED BY IDOCK:   -5.50 KCAL/MOL
REMARK 923 INTER-LIGAND FREE ENERGY PREDICTED BY IDOCK:   -4.70 KCAL/MOL
REMARK 924 INTRA-LIGAND FREE ENERGY PREDICTED BY IDOCK:   -0.80 KCAL/MOL
REMARK 927      BINDING AFFINITY PREDICTED BY RF-SCORE:    0.00 PKD
ROOT
HETATM    1  O   UNL     1      -9.528  14.028  69.153  1.00  0.00    -0.402 OA 
HETATM    2  C   UNL     1      -8.851  13.776  67.908  1.00  0.00    -0.186 C  
HETATM    3  H   UNL     1     -10.245  14.626  68.977  1.00  0.00     0.000 HD 
HETATM    4  C   UNL     1      -7.688  12.807  68.194  1.00  0.00    -0.137 C  
HETATM    5  C   UNL     1      -9.876  13.167  66.929  1.00  0.00    -0.249 C  
HETATM    6  C   UNL     1      -8.190  11.397  68.510  1.00  0.00    -0.153 C  
HETATM    7  C   UNL     1     -10.249  11.728  67.296  1.00  0.00    -0.203 C  
HETATM    8  N   UNL     1      -9.086  10.846  67.485  1.00  0.00    -0.140 NA 
ENDROOT
BRANCH   2   9
HETATM    9  C   UNL     1      -8.335  15.117  67.370  1.00  0.00    -0.206 A  
HETATM   10  C   UNL     1      -7.034  15.567  67.659  1.00  0.00    -0.203 A  
HETATM   11  C   UNL     1      -9.156  15.953  66.589  1.00  0.00    -0.290 A  
HETATM   12  C   UNL     1      -7.415  17.621  66.456  1.00  0.00    -0.264 A  
HETATM   13  C   UNL     1      -6.575  16.808  67.209  1.00  0.00    -0.206 A  
HETATM   14 BR   UNL     1      -6.807  19.313  65.875  1.00  0.00    -0.306 Br 
HETATM   15  C   UNL     1      -8.701  17.198  66.137  1.00  0.00    -0.223 A  
ENDBRANCH   2   9
BRANCH   8  16
HETATM   16  C   UNL     1      -8.420  10.548  66.204  1.00  0.00    -0.153 C  
BRANCH  16  17
HETATM   17  C   UNL     1      -8.705   9.147  65.654  1.00  0.00    -0.203 C  
BRANCH  17  18
HETATM   18  C   UNL     1      -9.572   8.310  66.594  1.00  0.00    -0.299 C  
BRANCH  18  19
HETATM   19  C   UNL     1      -8.721   7.477  67.532  1.00  0.00    -0.125 C  
HETATM   20  O   UNL     1      -8.333   7.887  68.624  1.00  0.00    -0.126 OA 
BRANCH  19  21
HETATM   21  C   UNL     1      -8.304   6.119  67.085  1.00  0.00    -0.105 A  
HETATM   22  C   UNL     1      -9.169   5.047  67.344  1.00  0.00    -0.127 A  
HETATM   23  C   UNL     1      -8.817   3.754  66.960  1.00  0.00    -0.137 A  
HETATM   24  C   UNL     1      -7.609   3.539  66.308  1.00  0.00    -0.081 A  
HETATM   25  F   UNL     1      -7.272   2.296  65.937  1.00  0.00    -0.057 F  
HETATM   26  C   UNL     1      -6.746   4.595  66.029  1.00  0.00    -0.053 A  
HETATM   27  C   UNL     1      -7.092   5.890  66.419  1.00  0.00    -0.068 A  
ENDBRANCH  19  21
ENDBRANCH  18  19
ENDBRANCH  17  18
ENDBRANCH  16  17
ENDBRANCH   8  16
TORSDOF 6
ENDMDL
MODEL      228
REMARK 921   NORMALIZED FREE ENERGY PREDICTED BY IDOCK:   -3.06 KCAL/MOL
REMARK 922        TOTAL FREE ENERGY PREDICTED BY IDOCK:   -5.35 KCAL/MOL
REMARK 923 INTER-LIGAND FREE ENERGY PREDICTED BY IDOCK:   -5.82 KCAL/MOL
REMARK 924 INTRA-LIGAND FREE ENERGY PREDICTED BY IDOCK:    0.47 KCAL/MOL
REMARK 927      BINDING AFFINITY PREDICTED BY RF-SCORE:    0.00 PKD
ROOT
HETATM    1  O   UNL     1     -11.568  16.570  68.579  1.00  0.00    -0.252 OA 
HETATM    2  C   UNL     1     -10.474  16.444  67.652  1.00  0.00    -0.302 C  
HETATM    3  H   UNL     1     -11.382  16.011  69.324  1.00  0.00     0.000 HD 
HETATM    4  C   UNL     1     -10.776  17.350  66.443  1.00  0.00    -0.084 C  
HETATM    5  C   UNL     1      -9.186  16.875  68.382  1.00  0.00    -0.253 C  
HETATM    6  C   UNL     1     -10.650  18.833  66.800  1.00  0.00    -0.395 C  
HETATM    7  C   UNL     1      -9.128  18.386  68.619  1.00  0.00    -0.294 C  
HETATM    8  N   UNL     1      -9.358  19.185  67.405  1.00  0.00    -0.301 NA 
ENDROOT
BRANCH   2   9
HETATM    9  C   UNL     1     -10.378  14.972  67.230  1.00  0.00    -0.249 A  
HETATM   10  C   UNL     1      -9.135  14.320  67.132  1.00  0.00    -0.237 A  
HETATM   11  C   UNL     1     -11.531  14.232  66.900  1.00  0.00    -0.377 A  
HETATM   12  C   UNL     1     -10.193  12.294  66.367  1.00  0.00    -0.225 A  
HETATM   13  C   UNL     1      -9.040  12.994  66.704  1.00  0.00    -0.181 A  
HETATM   14 BR   UNL     1     -10.062  10.510  65.756  1.00  0.00    -0.322 Br 
HETATM   15  C   UNL     1     -11.440  12.904  66.469  1.00  0.00    -0.390 A  
ENDBRANCH   2   9
BRANCH   8  16
HETATM   16  C   UNL     1      -8.217  19.095  66.475  1.00  0.00    -0.306 C  
BRANCH  16  17
HETATM   17  C   UNL     1      -6.870  18.823  67.152  1.00  0.00    -0.204 C  
BRANCH  17  18
HETATM   18  C   UNL     1      -6.640  19.704  68.380  1.00  0.00    -0.307 C  
BRANCH  18  19
HETATM   19  C   UNL     1      -5.799  18.990  69.420  1.00  0.00    -0.240 C  
HETATM   20  O   UNL     1      -5.170  19.585  70.292  1.00  0.00    -0.190 OA 
BRANCH  19  21
HETATM   21  C   UNL     1      -5.702  17.507  69.348  1.00  0.00    -0.212 A  
HETATM   22  C   UNL     1      -5.436  16.925  68.101  1.00  0.00    -0.120 A  
HETATM   23  C   UNL     1      -5.351  15.539  67.978  1.00  0.00    -0.135 A  
HETATM   24  C   UNL     1      -5.520  14.741  69.103  1.00  0.00    -0.095 A  
HETATM   25  F   UNL     1      -5.437  13.408  68.984  1.00  0.00    -0.071 F  
HETATM   26  C   UNL     1      -5.770  15.303  70.351  1.00  0.00    -0.132 A  
HETATM   27  C   UNL     1      -5.862  16.690  70.477  1.00  0.00     0.059 A  
ENDBRANCH  19  21
ENDBRANCH  18  19
ENDBRANCH  17  18
ENDBRANCH  16  17
ENDBRANCH   8  16
TORSDOF 6
ENDMDL
MODEL      229
REMARK 921   NORMALIZED FREE ENERGY PREDICTED BY IDOCK:   -3.06 KCAL/MOL
REMARK 922        TOTAL FREE ENERGY PREDICTED BY IDOCK:   -5.35 KCAL/MOL
REMARK 923 INTER-LIGAND FREE ENERGY PREDICTED BY IDOCK:   -4.60 KCAL/MOL
REMARK 924 INTRA-LIGAND FREE ENERGY PREDICTED BY IDOCK:   -0.74 KCAL/MOL
REMARK 927      BINDING AFFINITY PREDICTED BY RF-SCORE:    0.00 PKD
ROOT
HETATM    1  O   UNL     1      -6.632  19.944  68.899  1.00  0.00    -0.297 OA 
HETATM    2  C   UNL     1      -7.090  19.006  67.908  1.00  0.00    -0.231 C  
HETATM    3  H   UNL     1      -7.054  20.778  68.726  1.00  0.00     0.000 HD 
HETATM    4  C   UNL     1      -6.407  17.655  68.189  1.00  0.00    -0.172 C  
HETATM    5  C   UNL     1      -8.625  18.907  68.026  1.00  0.00    -0.330 C  
HETATM    6  C   UNL     1      -6.959  16.992  69.453  1.00  0.00    -0.140 C  
HETATM    7  C   UNL     1      -9.065  18.158  69.287  1.00  0.00     0.240 C  
HETATM    8  N   UNL     1      -8.421  16.846  69.451  1.00  0.00     0.100 NA 
ENDROOT
BRANCH   2   9
HETATM    9  C   UNL     1      -6.698  19.548  66.527  1.00  0.00    -0.197 A  
HETATM   10  C   UNL     1      -5.551  19.082  65.859  1.00  0.00    -0.182 A  
HETATM   11  C   UNL     1      -7.461  20.548  65.893  1.00  0.00    -0.067 A  
HETATM   12  C   UNL     1      -5.927  20.606  64.029  1.00  0.00    -0.301 A  
HETATM   13  C   UNL     1      -5.165  19.605  64.622  1.00  0.00    -0.201 A  
HETATM   14 BR   UNL     1      -5.388  21.337  62.372  1.00  0.00    -0.284 Br 
HETATM   15  C   UNL     1      -7.077  21.076  64.655  1.00  0.00     0.365 A  
ENDBRANCH   2   9
BRANCH   8  16
HETATM   16  C   UNL     1      -8.924  15.871  68.466  1.00  0.00    -0.199 C  
BRANCH  16  17
HETATM   17  C   UNL     1     -10.203  15.144  68.893  1.00  0.00    -0.236 C  
BRANCH  17  18
HETATM   18  C   UNL     1      -9.942  13.706  69.340  1.00  0.00     0.511 C  
BRANCH  18  19
HETATM   19  C   UNL     1     -10.526  12.709  68.358  1.00  0.00    -0.238 C  
HETATM   20  O   UNL     1     -10.634  11.511  68.609  1.00  0.00    -0.194 OA 
BRANCH  19  21
HETATM   21  C   UNL     1     -10.942  13.204  67.017  1.00  0.00    -0.289 A  
HETATM   22  C   UNL     1     -12.279  13.587  66.843  1.00  0.00    -0.377 A  
HETATM   23  C   UNL     1     -12.722  14.042  65.602  1.00  0.00    -0.515 A  
HETATM   24  C   UNL     1     -11.825  14.122  64.544  1.00  0.00    -0.436 A  
HETATM   25  F   UNL     1     -12.251  14.561  63.351  1.00  0.00    -0.207 F  
HETATM   26  C   UNL     1     -10.491  13.759  64.703  1.00  0.00    -0.433 A  
HETATM   27  C   UNL     1     -10.046  13.297  65.943  1.00  0.00    -0.296 A  
ENDBRANCH  19  21
ENDBRANCH  18  19
ENDBRANCH  17  18
ENDBRANCH  16  17
ENDBRANCH   8  16
TORSDOF 6
ENDMDL
MODEL      230
REMARK 921   NORMALIZED FREE ENERGY PREDICTED BY IDOCK:   -2.98 KCAL/MOL
REMARK 922        TOTAL FREE ENERGY PREDICTED BY IDOCK:   -5.23 KCAL/MOL
REMARK 923 INTER-LIGAND FREE ENERGY PREDICTED BY IDOCK:   -4.84 KCAL/MOL
REMARK 924 INTRA-LIGAND FREE ENERGY PREDICTED BY IDOCK:   -0.39 KCAL/MOL
REMARK 927      BINDING AFFINITY PREDICTED BY RF-SCORE:    0.00 PKD
ROOT
HETATM    1  O   UNL     1     -10.046  12.572  67.486  1.00  0.00    -0.204 OA 
HETATM    2  C   UNL     1      -9.623  11.239  67.828  1.00  0.00    -0.174 C  
HETATM    3  H   UNL     1     -10.001  13.101  68.274  1.00  0.00     0.000 HD 
HETATM    4  C   UNL     1      -9.695  10.381  66.551  1.00  0.00    -0.241 C  
HETATM    5  C   UNL     1      -8.185  11.327  68.378  1.00  0.00    -0.149 C  
HETATM    6  C   UNL     1      -8.597  10.757  65.553  1.00  0.00    -0.176 C  
HETATM    7  C   UNL     1      -7.159  11.630  67.284  1.00  0.00    -0.134 C  
HETATM    8  N   UNL     1      -7.245  10.726  66.126  1.00  0.00    -0.137 NA 
ENDROOT
BRANCH   2   9
HETATM    9  C   UNL     1     -10.573  10.704  68.908  1.00  0.00    -0.241 A  
HETATM   10  C   UNL     1     -11.482  11.552  69.567  1.00  0.00    -0.378 A  
HETATM   11  C   UNL     1     -10.549   9.349  69.293  1.00  0.00    -0.239 A  
HETATM   12  C   UNL     1     -12.257   9.740  70.954  1.00  0.00    -0.302 A  
HETATM   13  C   UNL     1     -12.316  11.078  70.582  1.00  0.00    -0.480 A  
HETATM   14 BR   UNL     1     -13.361   9.104  72.350  1.00  0.00    -0.493 Br 
HETATM   15  C   UNL     1     -11.382   8.870  70.310  1.00  0.00    -0.179 A  
ENDBRANCH   2   9
BRANCH   8  16
HETATM   16  C   UNL     1      -6.768   9.372  66.463  1.00  0.00    -0.072 C  
BRANCH  16  17
HETATM   17  C   UNL     1      -7.818   8.270  66.286  1.00  0.00    -0.098 C  
BRANCH  17  18
HETATM   18  C   UNL     1      -7.393   6.945  66.917  1.00  0.00    -0.082 C  
BRANCH  18  19
HETATM   19  C   UNL     1      -8.597   6.102  67.291  1.00  0.00    -0.103 C  
HETATM   20  O   UNL     1      -9.342   6.381  68.227  1.00  0.00    -0.113 OA 
BRANCH  19  21
HETATM   21  C   UNL     1      -8.854   4.859  66.512  1.00  0.00    -0.112 A  
HETATM   22  C   UNL     1      -8.987   4.970  65.121  1.00  0.00    -0.143 A  
HETATM   23  C   UNL     1      -9.245   3.838  64.349  1.00  0.00    -0.142 A  
HETATM   24  C   UNL     1      -9.358   2.600  64.969  1.00  0.00    -0.115 A  
HETATM   25  F   UNL     1      -9.605   1.512  64.226  1.00  0.00    -0.123 F  
HETATM   26  C   UNL     1      -9.216   2.470  66.347  1.00  0.00    -0.052 A  
HETATM   27  C   UNL     1      -8.964   3.602  67.124  1.00  0.00    -0.162 A  
ENDBRANCH  19  21
ENDBRANCH  18  19
ENDBRANCH  17  18
ENDBRANCH  16  17
ENDBRANCH   8  16
TORSDOF 6
ENDMDL
MODEL      231
REMARK 921   NORMALIZED FREE ENERGY PREDICTED BY IDOCK:   -2.93 KCAL/MOL
REMARK 922        TOTAL FREE ENERGY PREDICTED BY IDOCK:   -5.17 KCAL/MOL
REMARK 923 INTER-LIGAND FREE ENERGY PREDICTED BY IDOCK:   -3.71 KCAL/MOL
REMARK 924 INTRA-LIGAND FREE ENERGY PREDICTED BY IDOCK:   -1.46 KCAL/MOL
REMARK 927      BINDING AFFINITY PREDICTED BY RF-SCORE:    0.00 PKD
ROOT
HETATM    1  O   UNL     1      -7.453   9.161  73.381  1.00  0.00    -0.117 OA 
HETATM    2  C   UNL     1      -8.215   8.231  72.591  1.00  0.00    -0.162 C  
HETATM    3  H   UNL     1      -8.048   9.832  73.694  1.00  0.00     0.000 HD 
HETATM    4  C   UNL     1      -7.250   7.143  72.084  1.00  0.00    -0.072 C  
HETATM    5  C   UNL     1      -9.320   7.641  73.492  1.00  0.00    -0.339 C  
HETATM    6  C   UNL     1      -6.796   6.217  73.215  1.00  0.00    -0.075 C  
HETATM    7  C   UNL     1      -8.764   6.670  74.536  1.00  0.00    -0.168 C  
HETATM    8  N   UNL     1      -7.907   5.618  73.968  1.00  0.00    -0.100 NA 
ENDROOT
BRANCH   2   9
HETATM    9  C   UNL     1      -8.840   9.004  71.422  1.00  0.00    -0.220 A  
HETATM   10  C   UNL     1     -10.228   9.216  71.345  1.00  0.00    -0.402 A  
HETATM   11  C   UNL     1      -8.045   9.505  70.372  1.00  0.00    -0.209 A  
HETATM   12  C   UNL     1      -9.998  10.346  69.229  1.00  0.00    -0.228 A  
HETATM   13  C   UNL     1     -10.805   9.879  70.259  1.00  0.00    -0.367 A  
HETATM   14 BR   UNL     1     -10.781  11.214  67.744  1.00  0.00    -0.289 Br 
HETATM   15  C   UNL     1      -8.619  10.168  69.282  1.00  0.00    -0.180 A  
ENDBRANCH   2   9
BRANCH   8  16
HETATM   16  C   UNL     1      -8.693   4.638  73.197  1.00  0.00    -0.112 C  
BRANCH  16  17
HETATM   17  C   UNL     1      -7.901   3.911  72.105  1.00  0.00    -0.072 C  
BRANCH  17  18
HETATM   18  C   UNL     1      -8.569   4.002  70.734  1.00  0.00    -0.106 C  
BRANCH  18  19
HETATM   19  C   UNL     1      -7.544   3.939  69.618  1.00  0.00    -0.052 C  
HETATM   20  O   UNL     1      -7.010   2.892  69.261  1.00  0.00    -0.040 OA 
BRANCH  19  21
HETATM   21  C   UNL     1      -7.141   5.213  68.961  1.00  0.00    -0.057 A  
HETATM   22  C   UNL     1      -7.849   5.617  67.821  1.00  0.00    -0.097 A  
HETATM   23  C   UNL     1      -7.499   6.794  67.160  1.00  0.00    -0.091 A  
HETATM   24  C   UNL     1      -6.451   7.567  67.647  1.00  0.00    -0.057 A  
HETATM   25  F   UNL     1      -6.117   8.698  67.011  1.00  0.00    -0.049 F  
HETATM   26  C   UNL     1      -5.748   7.186  68.786  1.00  0.00    -0.019 A  
HETATM   27  C   UNL     1      -6.091   6.005  69.446  1.00  0.00    -0.029 A  
ENDBRANCH  19  21
ENDBRANCH  18  19
ENDBRANCH  17  18
ENDBRANCH  16  17
ENDBRANCH   8  16
TORSDOF 6
ENDMDL
MODEL      232
REMARK 921   NORMALIZED FREE ENERGY PREDICTED BY IDOCK:   -2.86 KCAL/MOL
REMARK 922        TOTAL FREE ENERGY PREDICTED BY IDOCK:   -5.08 KCAL/MOL
REMARK 923 INTER-LIGAND FREE ENERGY PREDICTED BY IDOCK:   -4.29 KCAL/MOL
REMARK 924 INTRA-LIGAND FREE ENERGY PREDICTED BY IDOCK:   -0.78 KCAL/MOL
REMARK 927      BINDING AFFINITY PREDICTED BY RF-SCORE:    0.00 PKD
ROOT
HETATM    1  O   UNL     1     -10.341  11.728  69.235  1.00  0.00    -0.421 OA 
HETATM    2  C   UNL     1      -9.685  10.612  68.607  1.00  0.00    -0.178 C  
HETATM    3  H   UNL     1      -9.859  11.941  70.025  1.00  0.00     0.000 HD 
HETATM    4  C   UNL     1     -10.468  10.267  67.326  1.00  0.00    -0.307 C  
HETATM    5  C   UNL     1      -8.234  11.031  68.295  1.00  0.00    -0.130 C  
HETATM    6  C   UNL     1     -10.276  11.330  66.241  1.00  0.00    -0.236 C  
HETATM    7  C   UNL     1      -8.153  12.037  67.144  1.00  0.00    -0.177 C  
HETATM    8  N   UNL     1      -8.867  11.607  65.932  1.00  0.00    -0.119 NA 
ENDROOT
BRANCH   2   9
HETATM    9  C   UNL     1      -9.698   9.438  69.595  1.00  0.00    -0.202 A  
HETATM   10  C   UNL     1      -8.653   9.248  70.517  1.00  0.00    -0.271 A  
HETATM   11  C   UNL     1     -10.746   8.496  69.594  1.00  0.00    -0.200 A  
HETATM   12  C   UNL     1      -9.676   7.231  71.350  1.00  0.00    -0.164 A  
HETATM   13  C   UNL     1      -8.638   8.155  71.387  1.00  0.00    -0.168 A  
HETATM   14 BR   UNL     1      -9.641   5.735  72.504  1.00  0.00    -0.171 Br 
HETATM   15  C   UNL     1     -10.734   7.399  70.462  1.00  0.00    -0.247 A  
ENDBRANCH   2   9
BRANCH   8  16
HETATM   16  C   UNL     1      -8.170  10.494  65.261  1.00  0.00    -0.146 C  
BRANCH  16  17
HETATM   17  C   UNL     1      -6.682  10.379  65.609  1.00  0.00    -0.127 C  
BRANCH  17  18
HETATM   18  C   UNL     1      -6.170   8.941  65.534  1.00  0.00    -0.056 C  
BRANCH  18  19
HETATM   19  C   UNL     1      -6.942   8.134  64.508  1.00  0.00    -0.075 C  
HETATM   20  O   UNL     1      -6.814   8.297  63.297  1.00  0.00    -0.084 OA 
BRANCH  19  21
HETATM   21  C   UNL     1      -7.930   7.133  64.999  1.00  0.00    -0.129 A  
HETATM   22  C   UNL     1      -7.743   5.793  64.636  1.00  0.00    -0.098 A  
HETATM   23  C   UNL     1      -8.649   4.820  65.057  1.00  0.00    -0.143 A  
HETATM   24  C   UNL     1      -9.731   5.190  65.847  1.00  0.00    -0.140 A  
HETATM   25  F   UNL     1     -10.601   4.254  66.251  1.00  0.00    -0.233 F  
HETATM   26  C   UNL     1      -9.923   6.514  66.227  1.00  0.00     0.006 A  
HETATM   27  C   UNL     1      -9.021   7.492  65.803  1.00  0.00    -0.077 A  
ENDBRANCH  19  21
ENDBRANCH  18  19
ENDBRANCH  17  18
ENDBRANCH  16  17
ENDBRANCH   8  16
TORSDOF 6
ENDMDL
MODEL      233
REMARK 921   NORMALIZED FREE ENERGY PREDICTED BY IDOCK:   -2.74 KCAL/MOL
REMARK 922        TOTAL FREE ENERGY PREDICTED BY IDOCK:   -4.91 KCAL/MOL
REMARK 923 INTER-LIGAND FREE ENERGY PREDICTED BY IDOCK:   -4.74 KCAL/MOL
REMARK 924 INTRA-LIGAND FREE ENERGY PREDICTED BY IDOCK:   -0.17 KCAL/MOL
REMARK 927      BINDING AFFINITY PREDICTED BY RF-SCORE:    0.00 PKD
ROOT
HETATM    1  O   UNL     1     -11.875  16.879  69.521  1.00  0.00     0.131 OA 
HETATM    2  C   UNL     1     -10.928  16.568  68.483  1.00  0.00    -0.350 C  
HETATM    3  H   UNL     1     -11.602  16.422  70.309  1.00  0.00     0.000 HD 
HETATM    4  C   UNL     1     -11.371  17.308  67.207  1.00  0.00     0.520 C  
HETATM    5  C   UNL     1      -9.537  17.032  68.960  1.00  0.00    -0.197 C  
HETATM    6  C   UNL     1     -11.150  18.818  67.321  1.00  0.00     0.006 C  
HETATM    7  C   UNL     1      -9.399  18.556  68.962  1.00  0.00    -0.126 C  
HETATM    8  N   UNL     1      -9.775  19.186  67.686  1.00  0.00    -0.311 NA 
ENDROOT
BRANCH   2   9
HETATM    9  C   UNL     1     -10.938  15.048  68.273  1.00  0.00    -0.274 A  
HETATM   10  C   UNL     1     -11.893  14.230  68.903  1.00  0.00    -0.372 A  
HETATM   11  C   UNL     1      -9.974  14.419  67.461  1.00  0.00    -0.224 A  
HETATM   12  C   UNL     1     -10.902  12.246  67.958  1.00  0.00    -0.220 A  
HETATM   13  C   UNL     1     -11.877  12.841  68.750  1.00  0.00    -0.346 A  
HETATM   14 BR   UNL     1     -10.860  10.366  67.777  1.00  0.00    -0.372 Br 
HETATM   15  C   UNL     1      -9.953  13.028  67.306  1.00  0.00    -0.232 A  
ENDBRANCH   2   9
BRANCH   8  16
HETATM   16  C   UNL     1      -8.781  18.907  66.633  1.00  0.00    -0.312 C  
BRANCH  16  17
HETATM   17  C   UNL     1      -7.324  19.057  67.084  1.00  0.00    -0.227 C  
BRANCH  17  18
HETATM   18  C   UNL     1      -7.049  20.407  67.747  1.00  0.00    -0.344 C  
BRANCH  18  19
HETATM   19  C   UNL     1      -5.923  20.305  68.757  1.00  0.00    -0.300 C  
HETATM   20  O   UNL     1      -5.144  21.228  68.984  1.00  0.00    -0.276 OA 
BRANCH  19  21
HETATM   21  C   UNL     1      -5.731  19.011  69.468  1.00  0.00    -0.245 A  
HETATM   22  C   UNL     1      -5.592  19.041  70.862  1.00  0.00    -0.182 A  
HETATM   23  C   UNL     1      -5.394  17.858  71.573  1.00  0.00     0.107 A  
HETATM   24  C   UNL     1      -5.346  16.650  70.889  1.00  0.00    -0.100 A  
HETATM   25  F   UNL     1      -5.157  15.513  71.573  1.00  0.00    -0.168 F  
HETATM   26  C   UNL     1      -5.496  16.601  69.506  1.00  0.00    -0.152 A  
HETATM   27  C   UNL     1      -5.688  17.784  68.791  1.00  0.00    -0.176 A  
ENDBRANCH  19  21
ENDBRANCH  18  19
ENDBRANCH  17  18
ENDBRANCH  16  17
ENDBRANCH   8  16
TORSDOF 6
ENDMDL
MODEL      234
REMARK 921   NORMALIZED FREE ENERGY PREDICTED BY IDOCK:   -2.65 KCAL/MOL
REMARK 922        TOTAL FREE ENERGY PREDICTED BY IDOCK:   -4.80 KCAL/MOL
REMARK 923 INTER-LIGAND FREE ENERGY PREDICTED BY IDOCK:   -4.46 KCAL/MOL
REMARK 924 INTRA-LIGAND FREE ENERGY PREDICTED BY IDOCK:   -0.33 KCAL/MOL
REMARK 927      BINDING AFFINITY PREDICTED BY RF-SCORE:    0.00 PKD
ROOT
HETATM    1  O   UNL     1      -6.307   8.947  64.236  1.00  0.00    -0.071 OA 
HETATM    2  C   UNL     1      -7.397   8.579  65.100  1.00  0.00    -0.081 C  
HETATM    3  H   UNL     1      -5.998   9.804  64.508  1.00  0.00     0.000 HD 
HETATM    4  C   UNL     1      -7.898   7.190  64.660  1.00  0.00    -0.123 C  
HETATM    5  C   UNL     1      -6.868   8.563  66.549  1.00  0.00    -0.071 C  
HETATM    6  C   UNL     1      -6.897   6.089  65.016  1.00  0.00    -0.051 C  
HETATM    7  C   UNL     1      -5.938   7.377  66.817  1.00  0.00    -0.039 C  
HETATM    8  N   UNL     1      -6.513   6.078  66.434  1.00  0.00    -0.045 NA 
ENDROOT
BRANCH   2   9
HETATM    9  C   UNL     1      -8.499   9.637  64.949  1.00  0.00    -0.161 A  
HETATM   10  C   UNL     1      -9.144  10.185  66.073  1.00  0.00    -0.185 A  
HETATM   11  C   UNL     1      -8.918  10.076  63.678  1.00  0.00    -0.280 A  
HETATM   12  C   UNL     1     -10.584  11.514  64.669  1.00  0.00    -0.311 A  
HETATM   13  C   UNL     1     -10.179  11.114  65.937  1.00  0.00    -0.303 A  
HETATM   14 BR   UNL     1     -12.005  12.746  64.484  1.00  0.00    -0.490 Br 
HETATM   15  C   UNL     1      -9.955  11.005  63.537  1.00  0.00    -0.421 A  
ENDBRANCH   2   9
BRANCH   8  16
HETATM   16  C   UNL     1      -7.599   5.677  67.347  1.00  0.00    -0.089 C  
BRANCH  16  17
HETATM   17  C   UNL     1      -8.332   4.397  66.932  1.00  0.00    -0.101 C  
BRANCH  17  18
HETATM   18  C   UNL     1      -8.766   3.553  68.131  1.00  0.00    -0.133 C  
BRANCH  18  19
HETATM   19  C   UNL     1      -9.555   4.378  69.128  1.00  0.00    -0.181 C  
HETATM   20  O   UNL     1     -10.006   5.491  68.866  1.00  0.00    -0.148 OA 
BRANCH  19  21
HETATM   21  C   UNL     1      -9.749   3.829  70.498  1.00  0.00    -0.230 A  
HETATM   22  C   UNL     1     -10.463   4.603  71.423  1.00  0.00    -0.083 A  
HETATM   23  C   UNL     1     -10.657   4.140  72.723  1.00  0.00    -0.226 A  
HETATM   24  C   UNL     1     -10.149   2.900  73.091  1.00  0.00    -0.129 A  
HETATM   25  F   UNL     1     -10.338   2.455  74.341  1.00  0.00    -0.142 F  
HETATM   26  C   UNL     1      -9.450   2.112  72.181  1.00  0.00    -0.170 A  
HETATM   27  C   UNL     1      -9.248   2.576  70.880  1.00  0.00    -0.199 A  
ENDBRANCH  19  21
ENDBRANCH  18  19
ENDBRANCH  17  18
ENDBRANCH  16  17
ENDBRANCH   8  16
TORSDOF 6
ENDMDL
MODEL      235
REMARK 921   NORMALIZED FREE ENERGY PREDICTED BY IDOCK:   -2.37 KCAL/MOL
REMARK 922        TOTAL FREE ENERGY PREDICTED BY IDOCK:   -4.42 KCAL/MOL
REMARK 923 INTER-LIGAND FREE ENERGY PREDICTED BY IDOCK:   -4.41 KCAL/MOL
REMARK 924 INTRA-LIGAND FREE ENERGY PREDICTED BY IDOCK:   -0.01 KCAL/MOL
REMARK 927      BINDING AFFINITY PREDICTED BY RF-SCORE:    0.00 PKD
ROOT
HETATM    1  O   UNL     1      -6.290   8.939  64.254  1.00  0.00    -0.071 OA 
HETATM    2  C   UNL     1      -7.171   8.506  65.306  1.00  0.00    -0.083 C  
HETATM    3  H   UNL     1      -5.935   9.784  64.504  1.00  0.00     0.000 HD 
HETATM    4  C   UNL     1      -7.748   7.136  64.902  1.00  0.00    -0.117 C  
HETATM    5  C   UNL     1      -6.347   8.418  66.606  1.00  0.00    -0.055 C  
HETATM    6  C   UNL     1      -6.691   6.033  64.973  1.00  0.00    -0.043 C  
HETATM    7  C   UNL     1      -5.377   7.234  66.602  1.00  0.00    -0.023 C  
HETATM    8  N   UNL     1      -6.014   5.949  66.274  1.00  0.00    -0.024 NA 
ENDROOT
BRANCH   2   9
HETATM    9  C   UNL     1      -8.284   9.553  65.453  1.00  0.00    -0.128 A  
HETATM   10  C   UNL     1      -8.680  10.024  66.718  1.00  0.00    -0.137 A  
HETATM   11  C   UNL     1      -8.963  10.057  64.327  1.00  0.00    -0.269 A  
HETATM   12  C   UNL     1     -10.388  11.409  65.731  1.00  0.00    -0.255 A  
HETATM   13  C   UNL     1      -9.723  10.943  66.859  1.00  0.00    -0.210 A  
HETATM   14 BR   UNL     1     -11.821  12.626  65.923  1.00  0.00    -0.499 Br 
HETATM   15  C   UNL     1     -10.010  10.976  64.464  1.00  0.00    -0.366 A  
ENDBRANCH   2   9
BRANCH   8  16
HETATM   16  C   UNL     1      -6.881   5.480  67.371  1.00  0.00    -0.060 C  
BRANCH  16  17
HETATM   17  C   UNL     1      -7.780   4.295  67.004  1.00  0.00    -0.092 C  
BRANCH  17  18
HETATM   18  C   UNL     1      -7.752   3.186  68.055  1.00  0.00    -0.059 C  
BRANCH  18  19
HETATM   19  C   UNL     1      -7.934   3.747  69.452  1.00  0.00    -0.054 C  
HETATM   20  O   UNL     1      -7.219   3.424  70.398  1.00  0.00    -0.040 OA 
BRANCH  19  21
HETATM   21  C   UNL     1      -9.057   4.695  69.688  1.00  0.00    -0.163 A  
HETATM   22  C   UNL     1      -9.220   5.211  70.981  1.00  0.00    -0.187 A  
HETATM   23  C   UNL     1     -10.267   6.089  71.258  1.00  0.00    -0.253 A  
HETATM   24  C   UNL     1     -11.138   6.457  70.240  1.00  0.00    -0.354 A  
HETATM   25  F   UNL     1     -12.143   7.303  70.507  1.00  0.00    -0.312 F  
HETATM   26  C   UNL     1     -10.981   5.965  68.948  1.00  0.00    -0.337 A  
HETATM   27  C   UNL     1      -9.939   5.080  68.669  1.00  0.00    -0.215 A  
ENDBRANCH  19  21
ENDBRANCH  18  19
ENDBRANCH  17  18
ENDBRANCH  16  17
ENDBRANCH   8  16
TORSDOF 6
ENDMDL
MODEL      236
REMARK 921   NORMALIZED FREE ENERGY PREDICTED BY IDOCK:   -2.27 KCAL/MOL
REMARK 922        TOTAL FREE ENERGY PREDICTED BY IDOCK:   -4.28 KCAL/MOL
REMARK 923 INTER-LIGAND FREE ENERGY PREDICTED BY IDOCK:   -3.77 KCAL/MOL
REMARK 924 INTRA-LIGAND FREE ENERGY PREDICTED BY IDOCK:   -0.51 KCAL/MOL
REMARK 927      BINDING AFFINITY PREDICTED BY RF-SCORE:    0.00 PKD
ROOT
HETATM    1  O   UNL     1      -9.761  12.324  64.129  1.00  0.00    -0.518 OA 
HETATM    2  C   UNL     1      -9.474  12.043  65.511  1.00  0.00    -0.104 C  
HETATM    3  H   UNL     1      -9.079  12.900  63.803  1.00  0.00     0.000 HD 
HETATM    4  C   UNL     1     -10.580  11.110  66.040  1.00  0.00    -0.298 C  
HETATM    5  C   UNL     1      -8.084  11.378  65.579  1.00  0.00     0.366 C  
HETATM    6  C   UNL     1     -10.461   9.701  65.454  1.00  0.00     0.620 C  
HETATM    7  C   UNL     1      -8.097   9.945  65.039  1.00  0.00    -0.140 C  
HETATM    8  N   UNL     1      -9.136   9.096  65.641  1.00  0.00    -0.205 NA 
ENDROOT
BRANCH   2   9
HETATM    9  C   UNL     1      -9.463  13.375  66.274  1.00  0.00    -0.196 A  
HETATM   10  C   UNL     1      -8.499  13.641  67.263  1.00  0.00    -0.203 A  
HETATM   11  C   UNL     1     -10.434  14.365  66.025  1.00  0.00    -0.307 A  
HETATM   12  C   UNL     1      -9.495  15.784  67.737  1.00  0.00    -0.212 A  
HETATM   13  C   UNL     1      -8.513  14.834  67.991  1.00  0.00    -0.151 A  
HETATM   14 BR   UNL     1      -9.535  17.383  68.744  1.00  0.00    -0.220 Br 
HETATM   15  C   UNL     1     -10.453  15.560  66.753  1.00  0.00    -0.295 A  
ENDBRANCH   2   9
BRANCH   8  16
HETATM   16  C   UNL     1      -8.820   8.767  67.043  1.00  0.00    -0.127 C  
BRANCH  16  17
HETATM   17  C   UNL     1     -10.045   8.651  67.956  1.00  0.00    -0.241 C  
BRANCH  17  18
HETATM   18  C   UNL     1      -9.936   7.489  68.942  1.00  0.00    -0.168 C  
BRANCH  18  19
HETATM   19  C   UNL     1      -9.426   7.956  70.291  1.00  0.00    -0.163 C  
HETATM   20  O   UNL     1      -9.095   9.119  70.512  1.00  0.00    -0.199 OA 
BRANCH  19  21
HETATM   21  C   UNL     1      -9.282   6.948  71.377  1.00  0.00    -0.156 A  
HETATM   22  C   UNL     1      -7.989   6.649  71.829  1.00  0.00    -0.103 A  
HETATM   23  C   UNL     1      -7.799   5.700  72.832  1.00  0.00    -0.098 A  
HETATM   24  C   UNL     1      -8.902   5.062  73.388  1.00  0.00    -0.113 A  
HETATM   25  F   UNL     1      -8.719   4.151  74.353  1.00  0.00    -0.094 F  
HETATM   26  C   UNL     1     -10.193   5.358  72.961  1.00  0.00    -0.212 A  
HETATM   27  C   UNL     1     -10.386   6.303  71.951  1.00  0.00    -0.234 A  
ENDBRANCH  19  21
ENDBRANCH  18  19
ENDBRANCH  17  18
ENDBRANCH  16  17
ENDBRANCH   8  16
TORSDOF 6
ENDMDL
MODEL      237
REMARK 921   NORMALIZED FREE ENERGY PREDICTED BY IDOCK:   -2.19 KCAL/MOL
REMARK 922        TOTAL FREE ENERGY PREDICTED BY IDOCK:   -4.17 KCAL/MOL
REMARK 923 INTER-LIGAND FREE ENERGY PREDICTED BY IDOCK:   -3.10 KCAL/MOL
REMARK 924 INTRA-LIGAND FREE ENERGY PREDICTED BY IDOCK:   -1.07 KCAL/MOL
REMARK 927      BINDING AFFINITY PREDICTED BY RF-SCORE:    0.00 PKD
ROOT
HETATM    1  O   UNL     1     -11.567  11.114  64.309  1.00  0.00    -0.143 OA 
HETATM    2  C   UNL     1     -10.442  11.007  65.202  1.00  0.00    -0.262 C  
HETATM    3  H   UNL     1     -12.032  10.285  64.329  1.00  0.00     0.000 HD 
HETATM    4  C   UNL     1      -9.688  12.350  65.169  1.00  0.00    -0.070 C  
HETATM    5  C   UNL     1     -10.985  10.690  66.610  1.00  0.00    -0.144 C  
HETATM    6  C   UNL     1     -10.476  13.459  65.870  1.00  0.00    -0.287 C  
HETATM    7  C   UNL     1     -11.686  11.891  67.248  1.00  0.00    -0.247 C  
HETATM    8  N   UNL     1     -10.877  13.120  67.242  1.00  0.00    -0.254 NA 
ENDROOT
BRANCH   2   9
HETATM    9  C   UNL     1      -9.551   9.861  64.706  1.00  0.00    -0.339 A  
HETATM   10  C   UNL     1      -8.976   9.886  63.422  1.00  0.00    -0.278 A  
HETATM   11  C   UNL     1      -9.300   8.732  65.511  1.00  0.00    -0.165 A  
HETATM   12  C   UNL     1      -7.987   7.714  63.760  1.00  0.00    -0.090 A  
HETATM   13  C   UNL     1      -8.202   8.823  62.950  1.00  0.00    -0.190 A  
HETATM   14 BR   UNL     1      -6.967   6.261  63.110  1.00  0.00    -0.049 Br 
HETATM   15  C   UNL     1      -8.526   7.665  65.041  1.00  0.00    -0.027 A  
ENDBRANCH   2   9
BRANCH   8  16
HETATM   16  C   UNL     1      -9.752  13.031  68.190  1.00  0.00    -0.228 C  
BRANCH  16  17
HETATM   17  C   UNL     1      -9.863  11.880  69.195  1.00  0.00     0.246 C  
BRANCH  17  18
HETATM   18  C   UNL     1      -8.537  11.147  69.400  1.00  0.00     0.278 C  
BRANCH  18  19
HETATM   19  C   UNL     1      -8.752   9.790  70.041  1.00  0.00    -0.209 C  
HETATM   20  O   UNL     1      -9.670   9.561  70.826  1.00  0.00    -0.269 OA 
BRANCH  19  21
HETATM   21  C   UNL     1      -7.778   8.706  69.738  1.00  0.00    -0.088 A  
HETATM   22  C   UNL     1      -7.933   7.479  70.397  1.00  0.00    -0.102 A  
HETATM   23  C   UNL     1      -7.037   6.437  70.159  1.00  0.00    -0.074 A  
HETATM   24  C   UNL     1      -5.997   6.623  69.255  1.00  0.00    -0.022 A  
HETATM   25  F   UNL     1      -5.137   5.620  69.026  1.00  0.00    -0.003 F  
HETATM   26  C   UNL     1      -5.838   7.830  68.582  1.00  0.00    -0.031 A  
HETATM   27  C   UNL     1      -6.729   8.877  68.823  1.00  0.00    -0.054 A  
ENDBRANCH  19  21
ENDBRANCH  18  19
ENDBRANCH  17  18
ENDBRANCH  16  17
ENDBRANCH   8  16
TORSDOF 6
ENDMDL
MODEL      238
REMARK 921   NORMALIZED FREE ENERGY PREDICTED BY IDOCK:   -1.98 KCAL/MOL
REMARK 922        TOTAL FREE ENERGY PREDICTED BY IDOCK:   -3.89 KCAL/MOL
REMARK 923 INTER-LIGAND FREE ENERGY PREDICTED BY IDOCK:   -3.24 KCAL/MOL
REMARK 924 INTRA-LIGAND FREE ENERGY PREDICTED BY IDOCK:   -0.65 KCAL/MOL
REMARK 927      BINDING AFFINITY PREDICTED BY RF-SCORE:    0.00 PKD
ROOT
HETATM    1  O   UNL     1      -9.744   8.832  70.418  1.00  0.00    -0.167 OA 
HETATM    2  C   UNL     1      -9.084   7.699  69.826  1.00  0.00    -0.147 C  
HETATM    3  H   UNL     1      -9.077   9.384  70.810  1.00  0.00     0.000 HD 
HETATM    4  C   UNL     1     -10.165   6.803  69.192  1.00  0.00    -0.195 C  
HETATM    5  C   UNL     1      -8.090   8.229  68.772  1.00  0.00    -0.115 C  
HETATM    6  C   UNL     1     -10.766   7.442  67.938  1.00  0.00    -0.149 C  
HETATM    7  C   UNL     1      -8.796   8.774  67.528  1.00  0.00    -0.134 C  
HETATM    8  N   UNL     1      -9.764   7.835  66.939  1.00  0.00    -0.198 NA 
ENDROOT
BRANCH   2   9
HETATM    9  C   UNL     1      -8.332   6.954  70.937  1.00  0.00    -0.130 A  
HETATM   10  C   UNL     1      -6.941   6.750  70.868  1.00  0.00    -0.067 A  
HETATM   11  C   UNL     1      -9.013   6.429  72.052  1.00  0.00    -0.137 A  
HETATM   12  C   UNL     1      -6.962   5.510  72.934  1.00  0.00    -0.084 A  
HETATM   13  C   UNL     1      -6.260   6.034  71.855  1.00  0.00    -0.041 A  
HETATM   14 BR   UNL     1      -6.047   4.512  74.253  1.00  0.00    -0.043 Br 
HETATM   15  C   UNL     1      -8.335   5.709  73.043  1.00  0.00    -0.118 A  
ENDBRANCH   2   9
BRANCH   8  16
HETATM   16  C   UNL     1      -9.087   6.697  66.290  1.00  0.00    -0.145 C  
BRANCH  16  17
HETATM   17  C   UNL     1      -7.566   6.849  66.175  1.00  0.00    -0.092 C  
BRANCH  17  18
HETATM   18  C   UNL     1      -7.049   6.549  64.768  1.00  0.00    -0.053 C  
BRANCH  18  19
HETATM   19  C   UNL     1      -6.520   7.801  64.097  1.00  0.00    -0.057 C  
HETATM   20  O   UNL     1      -5.333   7.956  63.818  1.00  0.00    -0.040 OA 
BRANCH  19  21
HETATM   21  C   UNL     1      -7.478   8.903  63.807  1.00  0.00    -0.112 A  
HETATM   22  C   UNL     1      -7.449  10.034  64.634  1.00  0.00    -0.143 A  
HETATM   23  C   UNL     1      -8.337  11.086  64.414  1.00  0.00     0.275 A  
HETATM   24  C   UNL     1      -9.241  11.008  63.362  1.00  0.00    -0.245 A  
HETATM   25  F   UNL     1     -10.094  12.021  63.151  1.00  0.00    -0.404 F  
HETATM   26  C   UNL     1      -9.273   9.899  62.523  1.00  0.00    -0.307 A  
HETATM   27  C   UNL     1      -8.390   8.841  62.744  1.00  0.00    -0.192 A  
ENDBRANCH  19  21
ENDBRANCH  18  19
ENDBRANCH  17  18
ENDBRANCH  16  17
ENDBRANCH   8  16
TORSDOF 6
ENDMDL
MODEL      239
REMARK 921   NORMALIZED FREE ENERGY PREDICTED BY IDOCK:   -1.87 KCAL/MOL
REMARK 922        TOTAL FREE ENERGY PREDICTED BY IDOCK:   -3.74 KCAL/MOL
REMARK 923 INTER-LIGAND FREE ENERGY PREDICTED BY IDOCK:   -3.00 KCAL/MOL
REMARK 924 INTRA-LIGAND FREE ENERGY PREDICTED BY IDOCK:   -0.74 KCAL/MOL
REMARK 927      BINDING AFFINITY PREDICTED BY RF-SCORE:    0.00 PKD
ROOT
HETATM    1  O   UNL     1      -6.643  19.942  68.945  1.00  0.00    -0.297 OA 
HETATM    2  C   UNL     1      -7.110  18.987  67.975  1.00  0.00    -0.238 C  
HETATM    3  H   UNL     1      -7.102  20.760  68.791  1.00  0.00     0.000 HD 
HETATM    4  C   UNL     1      -6.366  17.661  68.224  1.00  0.00    -0.183 C  
HETATM    5  C   UNL     1      -8.633  18.832  68.159  1.00  0.00    -0.338 C  
HETATM    6  C   UNL     1      -6.839  16.981  69.511  1.00  0.00    -0.111 C  
HETATM    7  C   UNL     1      -8.991  18.070  69.437  1.00  0.00     0.454 C  
HETATM    8  N   UNL     1      -8.293  16.781  69.572  1.00  0.00     0.219 NA 
ENDROOT
BRANCH   2   9
HETATM    9  C   UNL     1      -6.798  19.541  66.578  1.00  0.00    -0.205 A  
HETATM   10  C   UNL     1      -5.661  19.123  65.864  1.00  0.00    -0.180 A  
HETATM   11  C   UNL     1      -7.628  20.507  65.975  1.00  0.00    -0.053 A  
HETATM   12  C   UNL     1      -6.176  20.624  64.050  1.00  0.00    -0.286 A  
HETATM   13  C   UNL     1      -5.349  19.659  64.611  1.00  0.00    -0.213 A  
HETATM   14 BR   UNL     1      -5.737  21.374  62.371  1.00  0.00    -0.343 Br 
HETATM   15  C   UNL     1      -7.319  21.047  64.722  1.00  0.00     0.669 A  
ENDBRANCH   2   9
BRANCH   8  16
HETATM   16  C   UNL     1      -8.803  15.788  68.610  1.00  0.00    -0.199 C  
BRANCH  16  17
HETATM   17  C   UNL     1      -9.556  14.617  69.250  1.00  0.00    -0.018 C  
BRANCH  17  18
HETATM   18  C   UNL     1      -9.064  13.258  68.751  1.00  0.00     0.136 C  
BRANCH  18  19
HETATM   19  C   UNL     1     -10.125  12.558  67.925  1.00  0.00    -0.214 C  
HETATM   20  O   UNL     1     -11.324  12.621  68.187  1.00  0.00    -0.249 OA 
BRANCH  19  21
HETATM   21  C   UNL     1      -9.684  11.725  66.773  1.00  0.00    -0.213 A  
HETATM   22  C   UNL     1     -10.666  11.238  65.899  1.00  0.00    -0.291 A  
HETATM   23  C   UNL     1     -10.305  10.439  64.815  1.00  0.00    -0.221 A  
HETATM   24  C   UNL     1      -8.965  10.140  64.602  1.00  0.00    -0.209 A  
HETATM   25  F   UNL     1      -8.619   9.373  63.558  1.00  0.00    -0.166 F  
HETATM   26  C   UNL     1      -7.976  10.627  65.452  1.00  0.00    -0.086 A  
HETATM   27  C   UNL     1      -8.335  11.422  66.542  1.00  0.00    -0.164 A  
ENDBRANCH  19  21
ENDBRANCH  18  19
ENDBRANCH  17  18
ENDBRANCH  16  17
ENDBRANCH   8  16
TORSDOF 6
ENDMDL
MODEL      240
REMARK 921   NORMALIZED FREE ENERGY PREDICTED BY IDOCK:   -1.70 KCAL/MOL
REMARK 922        TOTAL FREE ENERGY PREDICTED BY IDOCK:   -3.51 KCAL/MOL
REMARK 923 INTER-LIGAND FREE ENERGY PREDICTED BY IDOCK:   -2.93 KCAL/MOL
REMARK 924 INTRA-LIGAND FREE ENERGY PREDICTED BY IDOCK:   -0.58 KCAL/MOL
REMARK 927      BINDING AFFINITY PREDICTED BY RF-SCORE:    0.00 PKD
ROOT
HETATM    1  O   UNL     1     -10.354   3.481  65.552  1.00  0.00    -0.389 OA 
HETATM    2  C   UNL     1      -9.399   4.261  66.293  1.00  0.00    -0.162 C  
HETATM    3  H   UNL     1      -9.876   2.802  65.089  1.00  0.00     0.000 HD 
HETATM    4  C   UNL     1     -10.173   5.361  67.044  1.00  0.00    -0.274 C  
HETATM    5  C   UNL     1      -8.665   3.314  67.264  1.00  0.00    -0.135 C  
HETATM    6  C   UNL     1     -10.996   4.786  68.200  1.00  0.00     1.361 C  
HETATM    7  C   UNL     1      -9.557   2.862  68.423  1.00  0.00    -0.043 C  
HETATM    8  N   UNL     1     -10.209   3.972  69.135  1.00  0.00     0.355 NA 
ENDROOT
BRANCH   2   9
HETATM    9  C   UNL     1      -8.406   4.869  65.293  1.00  0.00    -0.131 A  
HETATM   10  C   UNL     1      -7.658   4.057  64.421  1.00  0.00    -0.076 A  
HETATM   11  C   UNL     1      -8.192   6.260  65.233  1.00  0.00    -0.138 A  
HETATM   12  C   UNL     1      -6.516   5.978  63.518  1.00  0.00    -0.029 A  
HETATM   13  C   UNL     1      -6.720   4.603  63.541  1.00  0.00    -0.038 A  
HETATM   14 BR   UNL     1      -5.225   6.714  62.352  1.00  0.00    -0.027 Br 
HETATM   15  C   UNL     1      -7.252   6.811  64.355  1.00  0.00    -0.069 A  
ENDBRANCH   2   9
BRANCH   8  16
HETATM   16  C   UNL     1      -9.239   4.745  69.933  1.00  0.00    -0.124 C  
BRANCH  16  17
HETATM   17  C   UNL     1      -9.711   6.153  70.310  1.00  0.00    -0.195 C  
BRANCH  17  18
HETATM   18  C   UNL     1      -9.462   6.483  71.782  1.00  0.00    -0.155 C  
BRANCH  18  19
HETATM   19  C   UNL     1     -10.661   7.173  72.402  1.00  0.00    -0.241 C  
HETATM   20  O   UNL     1     -11.294   6.695  73.341  1.00  0.00    -0.028 OA 
BRANCH  19  21
HETATM   21  C   UNL     1     -11.113   8.463  71.812  1.00  0.00    -0.358 A  
HETATM   22  C   UNL     1     -12.446   8.846  72.012  1.00  0.00    -0.461 A  
HETATM   23  C   UNL     1     -12.922  10.038  71.467  1.00  0.00    -0.535 A  
HETATM   24  C   UNL     1     -12.062  10.846  70.734  1.00  0.00    -0.368 A  
HETATM   25  F   UNL     1     -12.520  11.992  70.212  1.00  0.00    -0.327 F  
HETATM   26  C   UNL     1     -10.732  10.488  70.539  1.00  0.00     0.045 A  
HETATM   27  C   UNL     1     -10.253   9.292  71.078  1.00  0.00    -0.384 A  
ENDBRANCH  19  21
ENDBRANCH  18  19
ENDBRANCH  17  18
ENDBRANCH  16  17
ENDBRANCH   8  16
TORSDOF 6
ENDMDL
MODEL      241
REMARK 921   NORMALIZED FREE ENERGY PREDICTED BY IDOCK:   -1.67 KCAL/MOL
REMARK 922        TOTAL FREE ENERGY PREDICTED BY IDOCK:   -3.46 KCAL/MOL
REMARK 923 INTER-LIGAND FREE ENERGY PREDICTED BY IDOCK:   -2.96 KCAL/MOL
REMARK 924 INTRA-LIGAND FREE ENERGY PREDICTED BY IDOCK:   -0.50 KCAL/MOL
REMARK 927      BINDING AFFINITY PREDICTED BY RF-SCORE:    0.00 PKD
ROOT
HETATM    1  O   UNL     1     -11.713  11.764  65.087  1.00  0.00    -0.230 OA 
HETATM    2  C   UNL     1     -10.505  11.428  65.793  1.00  0.00    -0.262 C  
HETATM    3  H   UNL     1     -12.216  10.965  64.975  1.00  0.00     0.000 HD 
HETATM    4  C   UNL     1      -9.690  12.722  65.974  1.00  0.00    -0.226 C  
HETATM    5  C   UNL     1     -10.906  10.810  67.148  1.00  0.00    -0.335 C  
HETATM    6  C   UNL     1     -10.338  13.661  66.994  1.00  0.00    -0.260 C  
HETATM    7  C   UNL     1     -11.469  11.850  68.119  1.00  0.00    -0.320 C  
HETATM    8  N   UNL     1     -10.603  13.027  68.293  1.00  0.00    -0.241 NA 
ENDROOT
BRANCH   2   9
HETATM    9  C   UNL     1      -9.734  10.403  64.949  1.00  0.00    -0.372 A  
HETATM   10  C   UNL     1      -8.811   9.519  65.538  1.00  0.00    -0.201 A  
HETATM   11  C   UNL     1      -9.907  10.331  63.553  1.00  0.00    -0.156 A  
HETATM   12  C   UNL     1      -8.252   8.581  63.390  1.00  0.00    -0.136 A  
HETATM   13  C   UNL     1      -8.074   8.616  64.768  1.00  0.00    -0.149 A  
HETATM   14 BR   UNL     1      -7.231   7.382  62.343  1.00  0.00    -0.087 Br 
HETATM   15  C   UNL     1      -9.169   9.429  62.778  1.00  0.00     0.015 A  
ENDBRANCH   2   9
BRANCH   8  16
HETATM   16  C   UNL     1      -9.387  12.694  69.056  1.00  0.00     0.463 C  
BRANCH  16  17
HETATM   17  C   UNL     1      -9.442  11.340  69.773  1.00  0.00     0.992 C  
BRANCH  17  18
HETATM   18  C   UNL     1      -8.165  10.521  69.583  1.00  0.00    -0.031 C  
BRANCH  18  19
HETATM   19  C   UNL     1      -8.391   9.062  69.925  1.00  0.00    -0.134 C  
HETATM   20  O   UNL     1      -8.045   8.566  70.995  1.00  0.00    -0.105 OA 
BRANCH  19  21
HETATM   21  C   UNL     1      -9.021   8.188  68.897  1.00  0.00    -0.141 A  
HETATM   22  C   UNL     1     -10.363   8.421  68.569  1.00  0.00    -0.232 A  
HETATM   23  C   UNL     1     -11.003   7.620  67.625  1.00  0.00    -0.059 A  
HETATM   24  C   UNL     1     -10.296   6.597  67.004  1.00  0.00    -0.262 A  
HETATM   25  F   UNL     1     -10.912   5.828  66.095  1.00  0.00    -0.260 F  
HETATM   26  C   UNL     1      -8.959   6.362  67.308  1.00  0.00    -0.107 A  
HETATM   27  C   UNL     1      -8.317   7.158  68.258  1.00  0.00    -0.124 A  
ENDBRANCH  19  21
ENDBRANCH  18  19
ENDBRANCH  17  18
ENDBRANCH  16  17
ENDBRANCH   8  16
TORSDOF 6
ENDMDL
MODEL      242
REMARK 921   NORMALIZED FREE ENERGY PREDICTED BY IDOCK:   -1.48 KCAL/MOL
REMARK 922        TOTAL FREE ENERGY PREDICTED BY IDOCK:   -3.21 KCAL/MOL
REMARK 923 INTER-LIGAND FREE ENERGY PREDICTED BY IDOCK:   -2.95 KCAL/MOL
REMARK 924 INTRA-LIGAND FREE ENERGY PREDICTED BY IDOCK:   -0.26 KCAL/MOL
REMARK 927      BINDING AFFINITY PREDICTED BY RF-SCORE:    0.00 PKD
ROOT
HETATM    1  O   UNL     1      -9.779   8.193  70.343  1.00  0.00    -0.177 OA 
HETATM    2  C   UNL     1      -9.191   6.935  69.968  1.00  0.00    -0.155 C  
HETATM    3  H   UNL     1      -9.077   8.828  70.427  1.00  0.00     0.000 HD 
HETATM    4  C   UNL     1     -10.329   5.906  69.832  1.00  0.00    -0.307 C  
HETATM    5  C   UNL     1      -8.445   7.141  68.634  1.00  0.00    -0.125 C  
HETATM    6  C   UNL     1     -11.190   6.173  68.595  1.00  0.00    -0.185 C  
HETATM    7  C   UNL     1      -9.401   7.321  67.453  1.00  0.00    -0.128 C  
HETATM    8  N   UNL     1     -10.418   6.263  67.348  1.00  0.00    -0.210 NA 
ENDROOT
BRANCH   2   9
HETATM    9  C   UNL     1      -8.205   6.525  71.070  1.00  0.00    -0.121 A  
HETATM   10  C   UNL     1      -6.930   6.017  70.758  1.00  0.00    -0.067 A  
HETATM   11  C   UNL     1      -8.553   6.621  72.432  1.00  0.00    -0.124 A  
HETATM   12  C   UNL     1      -6.426   5.689  73.092  1.00  0.00    -0.067 A  
HETATM   13  C   UNL     1      -6.047   5.601  71.758  1.00  0.00    -0.034 A  
HETATM   14 BR   UNL     1      -5.245   5.096  74.443  1.00  0.00    -0.018 Br 
HETATM   15  C   UNL     1      -7.673   6.203  73.436  1.00  0.00    -0.099 A  
ENDBRANCH   2   9
BRANCH   8  16
HETATM   16  C   UNL     1      -9.824   4.984  66.918  1.00  0.00    -0.188 C  
BRANCH  16  17
HETATM   17  C   UNL     1      -8.682   5.126  65.906  1.00  0.00    -0.135 C  
BRANCH  17  18
HETATM   18  C   UNL     1      -8.822   4.169  64.722  1.00  0.00    -0.135 C  
BRANCH  18  19
HETATM   19  C   UNL     1      -8.312   4.800  63.442  1.00  0.00    -0.112 C  
HETATM   20  O   UNL     1      -8.315   4.212  62.362  1.00  0.00    -0.074 OA 
BRANCH  19  21
HETATM   21  C   UNL     1      -7.743   6.173  63.511  1.00  0.00    -0.105 A  
HETATM   22  C   UNL     1      -6.659   6.393  64.372  1.00  0.00    -0.034 A  
HETATM   23  C   UNL     1      -6.101   7.666  64.486  1.00  0.00    -0.041 A  
HETATM   24  C   UNL     1      -6.620   8.710  63.730  1.00  0.00    -0.084 A  
HETATM   25  F   UNL     1      -6.082   9.933  63.839  1.00  0.00    -0.094 F  
HETATM   26  C   UNL     1      -7.687   8.506  62.860  1.00  0.00    -0.124 A  
HETATM   27  C   UNL     1      -8.252   7.234  62.749  1.00  0.00    -0.007 A  
ENDBRANCH  19  21
ENDBRANCH  18  19
ENDBRANCH  17  18
ENDBRANCH  16  17
ENDBRANCH   8  16
TORSDOF 6
ENDMDL
MODEL      243
REMARK 921   NORMALIZED FREE ENERGY PREDICTED BY IDOCK:   -1.19 KCAL/MOL
REMARK 922        TOTAL FREE ENERGY PREDICTED BY IDOCK:   -2.82 KCAL/MOL
REMARK 923 INTER-LIGAND FREE ENERGY PREDICTED BY IDOCK:   -2.05 KCAL/MOL
REMARK 924 INTRA-LIGAND FREE ENERGY PREDICTED BY IDOCK:   -0.77 KCAL/MOL
REMARK 927      BINDING AFFINITY PREDICTED BY RF-SCORE:    0.00 PKD
ROOT
HETATM    1  O   UNL     1     -11.714  11.764  65.091  1.00  0.00    -0.230 OA 
HETATM    2  C   UNL     1     -10.499  11.449  65.795  1.00  0.00    -0.262 C  
HETATM    3  H   UNL     1     -12.211  10.960  64.998  1.00  0.00     0.000 HD 
HETATM    4  C   UNL     1      -9.692  12.753  65.947  1.00  0.00    -0.203 C  
HETATM    5  C   UNL     1     -10.888  10.855  67.164  1.00  0.00    -0.337 C  
HETATM    6  C   UNL     1     -10.340  13.706  66.953  1.00  0.00    -0.262 C  
HETATM    7  C   UNL     1     -11.452  11.909  68.119  1.00  0.00    -0.320 C  
HETATM    8  N   UNL     1     -10.593  13.095  68.265  1.00  0.00    -0.241 NA 
ENDROOT
BRANCH   2   9
HETATM    9  C   UNL     1      -9.726  10.414  64.967  1.00  0.00    -0.362 A  
HETATM   10  C   UNL     1      -8.797   9.545  65.567  1.00  0.00    -0.201 A  
HETATM   11  C   UNL     1      -9.904  10.317  63.573  1.00  0.00    -0.156 A  
HETATM   12  C   UNL     1      -8.241   8.573  63.433  1.00  0.00    -0.136 A  
HETATM   13  C   UNL     1      -8.058   8.632  64.810  1.00  0.00    -0.149 A  
HETATM   14 BR   UNL     1      -7.218   7.362  62.403  1.00  0.00    -0.087 Br 
HETATM   15  C   UNL     1      -9.165   9.406  62.810  1.00  0.00     0.015 A  
ENDBRANCH   2   9
BRANCH   8  16
HETATM   16  C   UNL     1      -9.370  12.785  69.027  1.00  0.00     0.476 C  
BRANCH  16  17
HETATM   17  C   UNL     1      -9.387  11.418  69.720  1.00  0.00     1.228 C  
BRANCH  17  18
HETATM   18  C   UNL     1      -8.086  10.640  69.521  1.00  0.00    -0.056 C  
BRANCH  18  19
HETATM   19  C   UNL     1      -8.284   9.160  69.781  1.00  0.00    -0.128 C  
HETATM   20  O   UNL     1      -9.039   8.460  69.110  1.00  0.00    -0.146 OA 
BRANCH  19  21
HETATM   21  C   UNL     1      -7.563   8.545  70.929  1.00  0.00    -0.080 A  
HETATM   22  C   UNL     1      -6.389   7.829  70.660  1.00  0.00    -0.037 A  
HETATM   23  C   UNL     1      -5.686   7.221  71.699  1.00  0.00    -0.036 A  
HETATM   24  C   UNL     1      -6.153   7.339  73.003  1.00  0.00    -0.055 A  
HETATM   25  F   UNL     1      -5.476   6.755  74.001  1.00  0.00    -0.047 F  
HETATM   26  C   UNL     1      -7.310   8.058  73.288  1.00  0.00    -0.163 A  
HETATM   27  C   UNL     1      -8.020   8.663  72.249  1.00  0.00    -0.072 A  
ENDBRANCH  19  21
ENDBRANCH  18  19
ENDBRANCH  17  18
ENDBRANCH  16  17
ENDBRANCH   8  16
TORSDOF 6
ENDMDL
MODEL      244
REMARK 921   NORMALIZED FREE ENERGY PREDICTED BY IDOCK:   -1.18 KCAL/MOL
REMARK 922        TOTAL FREE ENERGY PREDICTED BY IDOCK:   -2.80 KCAL/MOL
REMARK 923 INTER-LIGAND FREE ENERGY PREDICTED BY IDOCK:   -3.08 KCAL/MOL
REMARK 924 INTRA-LIGAND FREE ENERGY PREDICTED BY IDOCK:    0.28 KCAL/MOL
REMARK 927      BINDING AFFINITY PREDICTED BY RF-SCORE:    0.00 PKD
ROOT
HETATM    1  O   UNL     1     -10.025  14.361  64.173  1.00  0.00    -0.322 OA 
HETATM    2  C   UNL     1     -10.389  14.012  65.521  1.00  0.00    -0.339 C  
HETATM    3  H   UNL     1      -9.174  14.782  64.203  1.00  0.00     0.000 HD 
HETATM    4  C   UNL     1     -11.769  13.330  65.473  1.00  0.00    -0.376 C  
HETATM    5  C   UNL     1      -9.303  13.068  66.074  1.00  0.00    -0.024 C  
HETATM    6  C   UNL     1     -11.689  11.933  64.852  1.00  0.00    -0.196 C  
HETATM    7  C   UNL     1      -9.363  11.675  65.441  1.00  0.00    -0.127 C  
HETATM    8  N   UNL     1     -10.698  11.059  65.494  1.00  0.00    -0.196 NA 
ENDROOT
BRANCH   2   9
HETATM    9  C   UNL     1     -10.440  15.304  66.347  1.00  0.00    -0.307 A  
HETATM   10  C   UNL     1     -10.041  16.537  65.800  1.00  0.00    -0.328 A  
HETATM   11  C   UNL     1     -10.864  15.294  67.690  1.00  0.00    -0.295 A  
HETATM   12  C   UNL     1     -10.448  17.664  67.891  1.00  0.00    -0.392 A  
HETATM   13  C   UNL     1     -10.043  17.708  66.562  1.00  0.00    -0.350 A  
HETATM   14 BR   UNL     1     -10.419  19.240  68.933  1.00  0.00     0.187 Br 
HETATM   15  C   UNL     1     -10.866  16.464  68.459  1.00  0.00    -0.339 A  
ENDBRANCH   2   9
BRANCH   8  16
HETATM   16  C   UNL     1     -11.054  10.658  66.868  1.00  0.00    -0.090 C  
BRANCH  16  17
HETATM   17  C   UNL     1     -10.137   9.589  67.471  1.00  0.00    -0.257 C  
BRANCH  17  18
HETATM   18  C   UNL     1      -9.608   9.976  68.851  1.00  0.00    -0.181 C  
BRANCH  18  19
HETATM   19  C   UNL     1      -9.817  11.453  69.126  1.00  0.00     0.057 C  
HETATM   20  O   UNL     1     -10.898  11.919  69.478  1.00  0.00    -0.109 OA 
BRANCH  19  21
HETATM   21  C   UNL     1      -8.669  12.377  68.915  1.00  0.00     0.287 A  
HETATM   22  C   UNL     1      -7.634  11.958  68.069  1.00  0.00    -0.122 A  
HETATM   23  C   UNL     1      -6.529  12.780  67.852  1.00  0.00    -0.120 A  
HETATM   24  C   UNL     1      -6.469  14.022  68.472  1.00  0.00    -0.093 A  
HETATM   25  F   UNL     1      -5.407  14.813  68.262  1.00  0.00    -0.085 F  
HETATM   26  C   UNL     1      -7.495  14.460  69.304  1.00  0.00    -0.060 A  
HETATM   27  C   UNL     1      -8.600  13.636  69.529  1.00  0.00     1.091 A  
ENDBRANCH  19  21
ENDBRANCH  18  19
ENDBRANCH  17  18
ENDBRANCH  16  17
ENDBRANCH   8  16
TORSDOF 6
ENDMDL
MODEL      245
REMARK 921   NORMALIZED FREE ENERGY PREDICTED BY IDOCK:   -0.58 KCAL/MOL
REMARK 922        TOTAL FREE ENERGY PREDICTED BY IDOCK:   -1.99 KCAL/MOL
REMARK 923 INTER-LIGAND FREE ENERGY PREDICTED BY IDOCK:   -1.58 KCAL/MOL
REMARK 924 INTRA-LIGAND FREE ENERGY PREDICTED BY IDOCK:   -0.42 KCAL/MOL
REMARK 927      BINDING AFFINITY PREDICTED BY RF-SCORE:    0.00 PKD
ROOT
HETATM    1  O   UNL     1     -10.227   3.407  65.434  1.00  0.00    -0.392 OA 
HETATM    2  C   UNL     1      -9.133   3.951  66.194  1.00  0.00    -0.146 C  
HETATM    3  H   UNL     1      -9.863   2.824  64.777  1.00  0.00     0.000 HD 
HETATM    4  C   UNL     1      -9.723   4.895  67.258  1.00  0.00    -0.194 C  
HETATM    5  C   UNL     1      -8.371   2.773  66.834  1.00  0.00    -0.094 C  
HETATM    6  C   UNL     1     -10.450   4.121  68.361  1.00  0.00     0.936 C  
HETATM    7  C   UNL     1      -9.155   2.122  67.975  1.00  0.00    -0.178 C  
HETATM    8  N   UNL     1      -9.628   3.078  68.988  1.00  0.00    -0.090 NA 
ENDROOT
BRANCH   2   9
HETATM    9  C   UNL     1      -8.217   4.713  65.226  1.00  0.00    -0.117 A  
HETATM   10  C   UNL     1      -6.836   4.454  65.172  1.00  0.00    -0.053 A  
HETATM   11  C   UNL     1      -8.727   5.715  64.378  1.00  0.00     0.090 A  
HETATM   12  C   UNL     1      -6.520   6.174  63.513  1.00  0.00    -0.029 A  
HETATM   13  C   UNL     1      -5.992   5.177  64.325  1.00  0.00    -0.022 A  
HETATM   14 BR   UNL     1      -5.374   7.175  62.392  1.00  0.00    -0.038 Br 
HETATM   15  C   UNL     1      -7.885   6.443  63.530  1.00  0.00    -0.110 A  
ENDBRANCH   2   9
BRANCH   8  16
HETATM   16  C   UNL     1      -8.513   3.601  69.799  1.00  0.00    -0.053 C  
BRANCH  16  17
HETATM   17  C   UNL     1      -8.069   5.018  69.423  1.00  0.00    -0.079 C  
BRANCH  17  18
HETATM   18  C   UNL     1      -7.487   5.787  70.608  1.00  0.00    -0.086 C  
BRANCH  18  19
HETATM   19  C   UNL     1      -8.045   7.195  70.678  1.00  0.00    -0.113 C  
HETATM   20  O   UNL     1      -8.632   7.632  71.666  1.00  0.00    -0.112 OA 
BRANCH  19  21
HETATM   21  C   UNL     1      -7.910   8.066  69.478  1.00  0.00    -0.105 A  
HETATM   22  C   UNL     1      -9.065   8.689  68.985  1.00  0.00    -0.145 A  
HETATM   23  C   UNL     1      -8.994   9.501  67.854  1.00  0.00    -0.125 A  
HETATM   24  C   UNL     1      -7.769   9.696  67.228  1.00  0.00    -0.091 A  
HETATM   25  F   UNL     1      -7.702  10.478  66.141  1.00  0.00    -0.117 F  
HETATM   26  C   UNL     1      -6.611   9.097  67.713  1.00  0.00    -0.060 A  
HETATM   27  C   UNL     1      -6.679   8.277  68.841  1.00  0.00    -0.053 A  
ENDBRANCH  19  21
ENDBRANCH  18  19
ENDBRANCH  17  18
ENDBRANCH  16  17
ENDBRANCH   8  16
TORSDOF 6
ENDMDL
MODEL      246
REMARK 921   NORMALIZED FREE ENERGY PREDICTED BY IDOCK:    4.85 KCAL/MOL
REMARK 922        TOTAL FREE ENERGY PREDICTED BY IDOCK:    5.34 KCAL/MOL
REMARK 923 INTER-LIGAND FREE ENERGY PREDICTED BY IDOCK:    0.88 KCAL/MOL
REMARK 924 INTRA-LIGAND FREE ENERGY PREDICTED BY IDOCK:    4.46 KCAL/MOL
REMARK 927      BINDING AFFINITY PREDICTED BY RF-SCORE:    0.00 PKD
ROOT
HETATM    1  O   UNL     1     -11.766   8.162  71.744  1.00  0.00    -0.268 OA 
HETATM    2  C   UNL     1     -10.724   7.641  70.900  1.00  0.00    -0.235 C  
HETATM    3  H   UNL     1     -11.379   8.819  72.310  1.00  0.00     0.000 HD 
HETATM    4  C   UNL     1     -11.351   6.575  69.982  1.00  0.00    -0.472 C  
HETATM    5  C   UNL     1     -10.137   8.817  70.093  1.00  0.00    -0.203 C  
HETATM    6  C   UNL     1     -12.258   7.204  68.921  1.00  0.00     2.232 C  
HETATM    7  C   UNL     1     -11.096   9.317  69.010  1.00  0.00     0.052 C  
HETATM    8  N   UNL     1     -11.600   8.251  68.129  1.00  0.00     1.344 NA 
ENDROOT
BRANCH   2   9
HETATM    9  C   UNL     1      -9.646   7.026  71.803  1.00  0.00    -0.161 A  
HETATM   10  C   UNL     1      -8.762   7.836  72.540  1.00  0.00    -0.196 A  
HETATM   11  C   UNL     1      -9.490   5.630  71.905  1.00  0.00    -0.171 A  
HETATM   12  C   UNL     1      -7.608   5.900  73.393  1.00  0.00    -0.098 A  
HETATM   13  C   UNL     1      -7.751   7.281  73.328  1.00  0.00    -0.109 A  
HETATM   14 BR   UNL     1      -6.219   5.149  74.432  1.00  0.00    -0.064 Br 
HETATM   15  C   UNL     1      -8.476   5.070  72.691  1.00  0.00    -0.116 A  
ENDBRANCH   2   9
BRANCH   8  16
HETATM   16  C   UNL     1     -10.544   7.748  67.231  1.00  0.00    -0.306 C  
BRANCH  16  17
HETATM   17  C   UNL     1     -10.265   8.645  66.020  1.00  0.00     0.216 C  
BRANCH  17  18
HETATM   18  C   UNL     1      -9.305   9.789  66.344  1.00  0.00    -0.218 C  
BRANCH  18  19
HETATM   19  C   UNL     1      -9.897  10.729  67.375  1.00  0.00    -0.177 C  
HETATM   20  O   UNL     1     -11.089  10.727  67.673  1.00  0.00    -0.284 OA 
BRANCH  19  21
HETATM   21  C   UNL     1      -8.997  11.726  68.018  1.00  0.00    -0.176 A  
HETATM   22  C   UNL     1      -7.614  11.518  67.927  1.00  0.00    -0.113 A  
HETATM   23  C   UNL     1      -6.730  12.413  68.527  1.00  0.00    -0.077 A  
HETATM   24  C   UNL     1      -7.230  13.519  69.204  1.00  0.00     0.020 A  
HETATM   25  F   UNL     1      -6.379  14.380  69.779  1.00  0.00    -0.108 F  
HETATM   26  C   UNL     1      -8.600  13.748  69.291  1.00  0.00     0.566 A  
HETATM   27  C   UNL     1      -9.489  12.849  68.698  1.00  0.00    -0.002 A  
ENDBRANCH  19  21
ENDBRANCH  18  19
ENDBRANCH  17  18
ENDBRANCH  16  17
ENDBRANCH   8  16
TORSDOF 6
ENDMDL
MODEL      247
REMARK 921   NORMALIZED FREE ENERGY PREDICTED BY IDOCK:    5.67 KCAL/MOL
REMARK 922        TOTAL FREE ENERGY PREDICTED BY IDOCK:    6.44 KCAL/MOL
REMARK 923 INTER-LIGAND FREE ENERGY PREDICTED BY IDOCK:    7.61 KCAL/MOL
REMARK 924 INTRA-LIGAND FREE ENERGY PREDICTED BY IDOCK:   -1.17 KCAL/MOL
REMARK 927      BINDING AFFINITY PREDICTED BY RF-SCORE:    0.00 PKD
ROOT
HETATM    1  O   UNL     1      -9.046   9.972  74.340  1.00  0.00     5.942 OA 
HETATM    2  C   UNL     1      -8.783   8.873  73.449  1.00  0.00     0.826 C  
HETATM    3  H   UNL     1      -9.495   9.626  75.102  1.00  0.00     0.000 HD 
HETATM    4  C   UNL     1      -8.056   9.434  72.212  1.00  0.00     1.249 C  
HETATM    5  C   UNL     1      -7.915   7.848  74.207  1.00  0.00    -0.282 C  
HETATM    6  C   UNL     1      -6.622   9.855  72.541  1.00  0.00     1.426 C  
HETATM    7  C   UNL     1      -6.480   8.339  74.413  1.00  0.00    -0.128 C  
HETATM    8  N   UNL     1      -5.827   8.795  73.175  1.00  0.00    -0.094 NA 
ENDROOT
BRANCH   2   9
HETATM    9  C   UNL     1     -10.129   8.245  73.061  1.00  0.00    -0.187 A  
HETATM   10  C   UNL     1     -11.094   8.973  72.342  1.00  0.00     0.037 A  
HETATM   11  C   UNL     1     -10.452   6.926  73.436  1.00  0.00    -0.360 A  
HETATM   12  C   UNL     1     -12.637   7.123  72.426  1.00  0.00     0.114 A  
HETATM   13  C   UNL     1     -12.338   8.420  72.027  1.00  0.00    -0.413 A  
HETATM   14 BR   UNL     1     -14.331   6.386  72.029  1.00  0.00     0.322 Br 
HETATM   15  C   UNL     1     -11.698   6.369  73.124  1.00  0.00     0.385 A  
ENDBRANCH   2   9
BRANCH   8  16
HETATM   16  C   UNL     1      -5.515   7.665  72.282  1.00  0.00    -0.036 C  
BRANCH  16  17
HETATM   17  C   UNL     1      -5.310   8.057  70.815  1.00  0.00    -0.026 C  
BRANCH  17  18
HETATM   18  C   UNL     1      -5.925   7.049  69.844  1.00  0.00    -0.024 C  
BRANCH  18  19
HETATM   19  C   UNL     1      -6.922   7.715  68.917  1.00  0.00    -0.070 C  
HETATM   20  O   UNL     1      -7.056   8.934  68.847  1.00  0.00    -0.064 OA 
BRANCH  19  21
HETATM   21  C   UNL     1      -7.803   6.846  68.090  1.00  0.00    -0.114 A  
HETATM   22  C   UNL     1      -8.781   6.086  68.747  1.00  0.00    -0.111 A  
HETATM   23  C   UNL     1      -9.621   5.244  68.020  1.00  0.00    -0.163 A  
HETATM   24  C   UNL     1      -9.488   5.173  66.638  1.00  0.00    -0.144 A  
HETATM   25  F   UNL     1     -10.297   4.364  65.940  1.00  0.00    -0.228 F  
HETATM   26  C   UNL     1      -8.532   5.931  65.969  1.00  0.00    -0.137 A  
HETATM   27  C   UNL     1      -7.685   6.770  66.695  1.00  0.00    -0.105 A  
ENDBRANCH  19  21
ENDBRANCH  18  19
ENDBRANCH  17  18
ENDBRANCH  16  17
ENDBRANCH   8  16
TORSDOF 6
ENDMDL
MODEL      248
REMARK 921   NORMALIZED FREE ENERGY PREDICTED BY IDOCK:   20.66 KCAL/MOL
REMARK 922        TOTAL FREE ENERGY PREDICTED BY IDOCK:   26.70 KCAL/MOL
REMARK 923 INTER-LIGAND FREE ENERGY PREDICTED BY IDOCK:    9.61 KCAL/MOL
REMARK 924 INTRA-LIGAND FREE ENERGY PREDICTED BY IDOCK:   17.09 KCAL/MOL
REMARK 927      BINDING AFFINITY PREDICTED BY RF-SCORE:    0.00 PKD
ROOT
HETATM    1  O   UNL     1      -7.033  15.378  69.743  1.00  0.00    -0.183 OA 
HETATM    2  C   UNL     1      -8.325  15.873  69.348  1.00  0.00    -0.180 C  
HETATM    3  H   UNL     1      -7.006  14.449  69.546  1.00  0.00     0.000 HD 
HETATM    4  C   UNL     1      -8.368  17.380  69.668  1.00  0.00     0.938 C  
HETATM    5  C   UNL     1      -8.493  15.604  67.839  1.00  0.00    -0.153 C  
HETATM    6  C   UNL     1      -7.477  18.186  68.721  1.00  0.00    -0.274 C  
HETATM    7  C   UNL     1      -7.613  16.518  66.982  1.00  0.00    -0.205 C  
HETATM    8  N   UNL     1      -7.760  17.947  67.299  1.00  0.00    -0.201 NA 
ENDROOT
BRANCH   2   9
HETATM    9  C   UNL     1      -9.390  15.108  70.146  1.00  0.00     0.385 A  
HETATM   10  C   UNL     1     -10.330  15.784  70.944  1.00  0.00     0.476 A  
HETATM   11  C   UNL     1      -9.444  13.700  70.124  1.00  0.00     2.801 A  
HETATM   12  C   UNL     1     -11.289  13.699  71.681  1.00  0.00     2.354 A  
HETATM   13  C   UNL     1     -11.272  15.089  71.707  1.00  0.00    -0.188 A  
HETATM   14 BR   UNL     1     -12.541  12.757  72.739  1.00  0.00     2.015 Br 
HETATM   15  C   UNL     1     -10.384  13.000  70.889  1.00  0.00     5.277 A  
ENDBRANCH   2   9
BRANCH   8  16
HETATM   16  C   UNL     1      -9.065  18.468  66.853  1.00  0.00    -0.290 C  
BRANCH  16  17
HETATM   17  C   UNL     1     -10.103  17.385  66.538  1.00  0.00    -0.320 C  
BRANCH  17  18
HETATM   18  C   UNL     1      -9.908  16.121  67.376  1.00  0.00    -0.238 C  
BRANCH  18  19
HETATM   19  C   UNL     1     -10.635  14.939  66.765  1.00  0.00    -0.305 C  
HETATM   20  O   UNL     1     -11.327  15.031  65.754  1.00  0.00    -0.337 OA 
BRANCH  19  21
HETATM   21  C   UNL     1     -10.536  13.622  67.452  1.00  0.00    -0.251 A  
HETATM   22  C   UNL     1      -9.257  13.115  67.721  1.00  0.00    -0.203 A  
HETATM   23  C   UNL     1      -9.111  11.878  68.347  1.00  0.00    -0.167 A  
HETATM   24  C   UNL     1     -10.242  11.158  68.711  1.00  0.00    -0.206 A  
HETATM   25  F   UNL     1     -10.100   9.970  69.315  1.00  0.00    -0.171 F  
HETATM   26  C   UNL     1     -11.519  11.654  68.465  1.00  0.00    -0.358 A  
HETATM   27  C   UNL     1     -11.669  12.889  67.832  1.00  0.00    -0.405 A  
ENDBRANCH  19  21
ENDBRANCH  18  19
ENDBRANCH  17  18
ENDBRANCH  16  17
ENDBRANCH   8  16
TORSDOF 6
ENDMDL
