MODEL        1
REMARK 921   NORMALIZED FREE ENERGY PREDICTED BY IDOCK:   -5.88 KCAL/MOL
REMARK 922        TOTAL FREE ENERGY PREDICTED BY IDOCK:   -8.86 KCAL/MOL
REMARK 923 INTER-LIGAND FREE ENERGY PREDICTED BY IDOCK:   -7.94 KCAL/MOL
REMARK 924 INTRA-LIGAND FREE ENERGY PREDICTED BY IDOCK:   -0.91 KCAL/MOL
REMARK 927      BINDING AFFINITY PREDICTED BY RF-SCORE:    0.00 PKD
ROOT
HETATM    1  C   UNL     1     -10.469  19.814  66.007  1.00  0.00    -0.506 C  
HETATM    2  N   UNL     1      -9.837  19.169  67.161  1.00  0.00    -0.325 NA 
HETATM    3  C   UNL     1     -10.241  19.860  68.389  1.00  0.00    -0.433 C  
ENDROOT
BRANCH   2   4
HETATM    4  C   UNL     1     -10.179  17.731  67.193  1.00  0.00    -0.353 C  
BRANCH   4   5
HETATM    5  C   UNL     1     -10.197  17.139  68.611  1.00  0.00    -0.336 C  
BRANCH   5   6
HETATM    6  O   UNL     1     -11.403  16.400  68.839  1.00  0.00    -0.332 OA 
BRANCH   6   7
HETATM    7  C   UNL     1     -11.129  15.051  69.270  1.00  0.00    -0.272 C  
BRANCH   7   8
HETATM    8  C   UNL     1     -12.145  14.581  70.306  1.00  0.00    -0.386 A  
HETATM    9  C   UNL     1     -12.208  13.225  70.668  1.00  0.00    -0.417 A  
HETATM   10  C   UNL     1     -13.014  15.485  70.936  1.00  0.00    -0.526 A  
HETATM   11  C   UNL     1     -13.127  12.788  71.624  1.00  0.00    -0.428 A  
HETATM   12  C   UNL     1     -13.935  15.044  71.887  1.00  0.00    -0.604 A  
HETATM   13  C   UNL     1     -13.994  13.696  72.230  1.00  0.00    -0.661 A  
ENDBRANCH   7   8
BRANCH   7  14
HETATM   14  C   UNL     1     -11.079  14.115  68.067  1.00  0.00    -0.285 A  
HETATM   15  C   UNL     1     -12.064  13.334  65.979  1.00  0.00    -0.491 A  
HETATM   16  C   UNL     1      -9.941  12.440  66.711  1.00  0.00    -0.234 A  
HETATM   17  C   UNL     1     -12.111  14.150  67.113  1.00  0.00    -0.432 A  
HETATM   18 BR   UNL     1     -10.909  11.388  64.246  1.00  0.00    -0.395 Br 
HETATM   19  C   UNL     1      -9.991  13.251  67.847  1.00  0.00    -0.233 A  
HETATM   20  C   UNL     1     -10.978  12.485  65.785  1.00  0.00    -0.292 A  
ENDBRANCH   7  14
ENDBRANCH   6   7
ENDBRANCH   5   6
ENDBRANCH   4   5
ENDBRANCH   2   4
TORSDOF 6
ENDMDL
MODEL        2
REMARK 921   NORMALIZED FREE ENERGY PREDICTED BY IDOCK:   -5.87 KCAL/MOL
REMARK 922        TOTAL FREE ENERGY PREDICTED BY IDOCK:   -8.85 KCAL/MOL
REMARK 923 INTER-LIGAND FREE ENERGY PREDICTED BY IDOCK:   -8.33 KCAL/MOL
REMARK 924 INTRA-LIGAND FREE ENERGY PREDICTED BY IDOCK:   -0.52 KCAL/MOL
REMARK 927      BINDING AFFINITY PREDICTED BY RF-SCORE:    0.00 PKD
ROOT
HETATM    1  C   UNL     1     -12.393  12.542  64.304  1.00  0.00    -0.456 C  
HETATM    2  N   UNL     1     -12.173  12.531  65.751  1.00  0.00    -0.626 NA 
HETATM    3  C   UNL     1     -10.972  11.747  66.058  1.00  0.00    -0.306 C  
ENDROOT
BRANCH   2   4
HETATM    4  C   UNL     1     -12.080  13.914  66.264  1.00  0.00    -0.451 C  
BRANCH   4   5
HETATM    5  C   UNL     1     -11.461  14.004  67.669  1.00  0.00    -0.334 C  
BRANCH   5   6
HETATM    6  O   UNL     1     -12.403  13.595  68.667  1.00  0.00    -0.258 OA 
BRANCH   6   7
HETATM    7  C   UNL     1     -11.776  13.417  69.954  1.00  0.00    -0.267 C  
BRANCH   7   8
HETATM    8  C   UNL     1     -12.379  14.349  71.001  1.00  0.00    -0.427 A  
HETATM    9  C   UNL     1     -13.773  14.440  71.145  1.00  0.00    -0.297 A  
HETATM   10  C   UNL     1     -11.564  15.109  71.854  1.00  0.00    -0.490 A  
HETATM   11  C   UNL     1     -14.333  15.282  72.108  1.00  0.00    -0.651 A  
HETATM   12  C   UNL     1     -12.127  15.954  72.811  1.00  0.00    -0.611 A  
HETATM   13  C   UNL     1     -13.511  16.043  72.937  1.00  0.00    -0.532 A  
ENDBRANCH   7   8
BRANCH   7  14
HETATM   14  C   UNL     1     -11.862  11.957  70.383  1.00  0.00    -0.329 A  
HETATM   15  C   UNL     1     -11.026   9.674  70.220  1.00  0.00    -0.337 A  
HETATM   16  C   UNL     1     -12.775  10.200  71.803  1.00  0.00    -0.534 A  
HETATM   17  C   UNL     1     -10.997  11.009  69.809  1.00  0.00    -0.258 A  
HETATM   18 BR   UNL     1     -11.948   7.472  71.779  1.00  0.00    -0.355 Br 
HETATM   19  C   UNL     1     -12.749  11.533  71.389  1.00  0.00    -0.469 A  
HETATM   20  C   UNL     1     -11.914   9.277  71.216  1.00  0.00    -0.340 A  
ENDBRANCH   7  14
ENDBRANCH   6   7
ENDBRANCH   5   6
ENDBRANCH   4   5
ENDBRANCH   2   4
TORSDOF 6
ENDMDL
MODEL        3
REMARK 921   NORMALIZED FREE ENERGY PREDICTED BY IDOCK:   -5.85 KCAL/MOL
REMARK 922        TOTAL FREE ENERGY PREDICTED BY IDOCK:   -8.81 KCAL/MOL
REMARK 923 INTER-LIGAND FREE ENERGY PREDICTED BY IDOCK:   -8.11 KCAL/MOL
REMARK 924 INTRA-LIGAND FREE ENERGY PREDICTED BY IDOCK:   -0.70 KCAL/MOL
REMARK 927      BINDING AFFINITY PREDICTED BY RF-SCORE:    0.00 PKD
ROOT
HETATM    1  C   UNL     1     -12.307  14.493  64.232  1.00  0.00    -0.369 C  
HETATM    2  N   UNL     1     -12.668  13.186  64.785  1.00  0.00    -0.700 NA 
HETATM    3  C   UNL     1     -12.192  12.127  63.890  1.00  0.00    -0.489 C  
ENDROOT
BRANCH   2   4
HETATM    4  C   UNL     1     -12.125  13.043  66.154  1.00  0.00    -0.409 C  
BRANCH   4   5
HETATM    5  C   UNL     1     -11.924  14.387  66.873  1.00  0.00    -0.399 C  
BRANCH   5   6
HETATM    6  O   UNL     1     -11.856  14.199  68.291  1.00  0.00    -0.333 OA 
BRANCH   6   7
HETATM    7  C   UNL     1     -11.870  15.456  68.999  1.00  0.00    -0.335 C  
BRANCH   7   8
HETATM    8  C   UNL     1     -12.197  15.260  70.476  1.00  0.00    -0.415 A  
HETATM    9  C   UNL     1     -12.919  14.130  70.895  1.00  0.00    -0.374 A  
HETATM   10  C   UNL     1     -11.767  16.180  71.445  1.00  0.00    -0.506 A  
HETATM   11  C   UNL     1     -13.213  13.938  72.247  1.00  0.00    -0.568 A  
HETATM   12  C   UNL     1     -12.068  15.988  72.793  1.00  0.00    -0.635 A  
HETATM   13  C   UNL     1     -12.792  14.869  73.195  1.00  0.00    -0.619 A  
ENDBRANCH   7   8
BRANCH   7  14
HETATM   14  C   UNL     1     -10.543  16.182  68.807  1.00  0.00    -0.279 A  
HETATM   15  C   UNL     1      -9.334  18.205  68.189  1.00  0.00    -0.295 A  
HETATM   16  C   UNL     1      -8.118  16.289  69.019  1.00  0.00    -0.236 A  
HETATM   17  C   UNL     1     -10.535  17.504  68.329  1.00  0.00    -0.383 A  
HETATM   18 BR   UNL     1      -6.509  18.545  68.355  1.00  0.00    -0.235 Br 
HETATM   19  C   UNL     1      -9.318  15.586  69.153  1.00  0.00    -0.250 A  
HETATM   20  C   UNL     1      -8.133  17.593  68.536  1.00  0.00    -0.283 A  
ENDBRANCH   7  14
ENDBRANCH   6   7
ENDBRANCH   5   6
ENDBRANCH   4   5
ENDBRANCH   2   4
TORSDOF 6
ENDMDL
MODEL        4
REMARK 921   NORMALIZED FREE ENERGY PREDICTED BY IDOCK:   -5.84 KCAL/MOL
REMARK 922        TOTAL FREE ENERGY PREDICTED BY IDOCK:   -8.81 KCAL/MOL
REMARK 923 INTER-LIGAND FREE ENERGY PREDICTED BY IDOCK:   -7.78 KCAL/MOL
REMARK 924 INTRA-LIGAND FREE ENERGY PREDICTED BY IDOCK:   -1.03 KCAL/MOL
REMARK 927      BINDING AFFINITY PREDICTED BY RF-SCORE:    0.00 PKD
ROOT
HETATM    1  C   UNL     1      -8.427  18.741  66.330  1.00  0.00    -0.284 C  
HETATM    2  N   UNL     1      -9.449  17.703  66.182  1.00  0.00    -0.488 NA 
HETATM    3  C   UNL     1      -8.826  16.382  66.306  1.00  0.00    -0.332 C  
ENDROOT
BRANCH   2   4
HETATM    4  C   UNL     1     -10.529  17.904  67.172  1.00  0.00    -0.353 C  
BRANCH   4   5
HETATM    5  C   UNL     1     -10.305  17.134  68.484  1.00  0.00    -0.364 C  
BRANCH   5   6
HETATM    6  O   UNL     1     -11.486  16.416  68.860  1.00  0.00    -0.311 OA 
BRANCH   6   7
HETATM    7  C   UNL     1     -11.189  15.050  69.216  1.00  0.00    -0.286 C  
BRANCH   7   8
HETATM    8  C   UNL     1     -12.149  14.531  70.283  1.00  0.00    -0.386 A  
HETATM    9  C   UNL     1     -13.028  15.415  70.930  1.00  0.00    -0.539 A  
HETATM   10  C   UNL     1     -12.194  13.170  70.622  1.00  0.00    -0.402 A  
HETATM   11  C   UNL     1     -13.918  14.946  71.900  1.00  0.00    -0.585 A  
HETATM   12  C   UNL     1     -13.079  12.707  71.596  1.00  0.00    -0.421 A  
HETATM   13  C   UNL     1     -13.940  13.594  72.236  1.00  0.00    -0.661 A  
ENDBRANCH   7   8
BRANCH   7  14
HETATM   14  C   UNL     1     -11.202  14.168  67.972  1.00  0.00    -0.302 A  
HETATM   15  C   UNL     1     -12.236  13.552  65.853  1.00  0.00    -0.507 A  
HETATM   16  C   UNL     1     -10.180  12.482  66.540  1.00  0.00    -0.255 A  
HETATM   17  C   UNL     1     -12.228  14.316  67.023  1.00  0.00    -0.338 A  
HETATM   18 BR   UNL     1     -11.215  11.611  64.032  1.00  0.00    -0.426 Br 
HETATM   19  C   UNL     1     -10.176  13.242  67.712  1.00  0.00    -0.228 A  
HETATM   20  C   UNL     1     -11.210  12.639  65.618  1.00  0.00    -0.309 A  
ENDBRANCH   7  14
ENDBRANCH   6   7
ENDBRANCH   5   6
ENDBRANCH   4   5
ENDBRANCH   2   4
TORSDOF 6
ENDMDL
MODEL        5
REMARK 921   NORMALIZED FREE ENERGY PREDICTED BY IDOCK:   -5.84 KCAL/MOL
REMARK 922        TOTAL FREE ENERGY PREDICTED BY IDOCK:   -8.80 KCAL/MOL
REMARK 923 INTER-LIGAND FREE ENERGY PREDICTED BY IDOCK:   -8.21 KCAL/MOL
REMARK 924 INTRA-LIGAND FREE ENERGY PREDICTED BY IDOCK:   -0.59 KCAL/MOL
REMARK 927      BINDING AFFINITY PREDICTED BY RF-SCORE:    0.00 PKD
ROOT
HETATM    1  C   UNL     1     -14.084  15.277  72.136  1.00  0.00    -0.560 C  
HETATM    2  N   UNL     1     -12.954  15.990  72.737  1.00  0.00    -0.454 NA 
HETATM    3  C   UNL     1     -12.481  15.256  73.914  1.00  0.00    -0.616 C  
ENDROOT
BRANCH   2   4
HETATM    4  C   UNL     1     -11.884  16.187  71.736  1.00  0.00    -0.506 C  
BRANCH   4   5
HETATM    5  C   UNL     1     -12.183  15.518  70.384  1.00  0.00    -0.406 C  
BRANCH   5   6
HETATM    6  O   UNL     1     -11.034  15.564  69.530  1.00  0.00    -0.234 OA 
BRANCH   6   7
HETATM    7  C   UNL     1     -11.325  16.217  68.277  1.00  0.00    -0.316 C  
BRANCH   7   8
HETATM    8  C   UNL     1     -10.392  17.399  68.035  1.00  0.00    -0.362 A  
HETATM    9  C   UNL     1     -10.878  18.568  67.428  1.00  0.00    -0.342 A  
HETATM   10  C   UNL     1      -9.046  17.357  68.432  1.00  0.00    -0.274 A  
HETATM   11  C   UNL     1     -10.033  19.659  67.212  1.00  0.00    -0.518 A  
HETATM   12  C   UNL     1      -8.204  18.447  68.209  1.00  0.00    -0.317 A  
HETATM   13  C   UNL     1      -8.696  19.597  67.598  1.00  0.00    -0.372 A  
ENDBRANCH   7   8
BRANCH   7  14
HETATM   14  C   UNL     1     -11.267  15.210  67.133  1.00  0.00    -0.320 A  
HETATM   15  C   UNL     1     -11.969  13.079  66.182  1.00  0.00    -0.488 A  
HETATM   16  C   UNL     1     -10.575  14.569  64.886  1.00  0.00    -0.450 A  
HETATM   17  C   UNL     1     -11.970  13.997  67.236  1.00  0.00    -0.448 A  
HETATM   18 BR   UNL     1     -11.277  12.133  63.584  1.00  0.00    -0.562 Br 
HETATM   19  C   UNL     1     -10.572  15.484  65.942  1.00  0.00    -0.350 A  
HETATM   20  C   UNL     1     -11.272  13.371  65.013  1.00  0.00    -0.317 A  
ENDBRANCH   7  14
ENDBRANCH   6   7
ENDBRANCH   5   6
ENDBRANCH   4   5
ENDBRANCH   2   4
TORSDOF 6
ENDMDL
MODEL        6
REMARK 921   NORMALIZED FREE ENERGY PREDICTED BY IDOCK:   -5.81 KCAL/MOL
REMARK 922        TOTAL FREE ENERGY PREDICTED BY IDOCK:   -8.76 KCAL/MOL
REMARK 923 INTER-LIGAND FREE ENERGY PREDICTED BY IDOCK:   -8.07 KCAL/MOL
REMARK 924 INTRA-LIGAND FREE ENERGY PREDICTED BY IDOCK:   -0.68 KCAL/MOL
REMARK 927      BINDING AFFINITY PREDICTED BY RF-SCORE:    0.00 PKD
ROOT
HETATM    1  C   UNL     1     -12.259  14.613  64.313  1.00  0.00    -0.408 C  
HETATM    2  N   UNL     1     -12.695  13.308  64.815  1.00  0.00    -0.689 NA 
HETATM    3  C   UNL     1     -12.194  12.251  63.933  1.00  0.00    -0.515 C  
ENDROOT
BRANCH   2   4
HETATM    4  C   UNL     1     -12.249  13.124  66.213  1.00  0.00    -0.355 C  
BRANCH   4   5
HETATM    5  C   UNL     1     -11.983  14.448  66.948  1.00  0.00    -0.399 C  
BRANCH   5   6
HETATM    6  O   UNL     1     -11.897  14.236  68.362  1.00  0.00    -0.324 OA 
BRANCH   6   7
HETATM    7  C   UNL     1     -11.962  15.478  69.093  1.00  0.00    -0.309 C  
BRANCH   7   8
HETATM    8  C   UNL     1     -12.291  15.242  70.564  1.00  0.00    -0.434 A  
HETATM    9  C   UNL     1     -13.018  14.104  70.950  1.00  0.00    -0.374 A  
HETATM   10  C   UNL     1     -11.858  16.132  71.559  1.00  0.00    -0.528 A  
HETATM   11  C   UNL     1     -13.314  13.874  72.296  1.00  0.00    -0.599 A  
HETATM   12  C   UNL     1     -12.161  15.903  72.902  1.00  0.00    -0.605 A  
HETATM   13  C   UNL     1     -12.890  14.776  73.271  1.00  0.00    -0.621 A  
ENDBRANCH   7   8
BRANCH   7  14
HETATM   14  C   UNL     1     -10.661  16.256  68.926  1.00  0.00    -0.284 A  
HETATM   15  C   UNL     1      -8.224  16.277  68.894  1.00  0.00    -0.231 A  
HETATM   16  C   UNL     1      -9.448  18.290  68.354  1.00  0.00    -0.336 A  
HETATM   17  C   UNL     1      -9.429  15.597  69.088  1.00  0.00    -0.256 A  
HETATM   18 BR   UNL     1      -6.611  18.539  68.257  1.00  0.00    -0.233 Br 
HETATM   19  C   UNL     1     -10.653  17.611  68.553  1.00  0.00    -0.281 A  
HETATM   20  C   UNL     1      -8.241  17.620  68.528  1.00  0.00    -0.292 A  
ENDBRANCH   7  14
ENDBRANCH   6   7
ENDBRANCH   5   6
ENDBRANCH   4   5
ENDBRANCH   2   4
TORSDOF 6
ENDMDL
MODEL        7
REMARK 921   NORMALIZED FREE ENERGY PREDICTED BY IDOCK:   -5.73 KCAL/MOL
REMARK 922        TOTAL FREE ENERGY PREDICTED BY IDOCK:   -8.66 KCAL/MOL
REMARK 923 INTER-LIGAND FREE ENERGY PREDICTED BY IDOCK:   -8.09 KCAL/MOL
REMARK 924 INTRA-LIGAND FREE ENERGY PREDICTED BY IDOCK:   -0.57 KCAL/MOL
REMARK 927      BINDING AFFINITY PREDICTED BY RF-SCORE:    0.00 PKD
ROOT
HETATM    1  C   UNL     1     -13.979  15.136  72.304  1.00  0.00    -0.530 C  
HETATM    2  N   UNL     1     -12.911  16.009  72.795  1.00  0.00    -0.449 NA 
HETATM    3  C   UNL     1     -12.522  15.593  74.146  1.00  0.00    -0.661 C  
ENDROOT
BRANCH   2   4
HETATM    4  C   UNL     1     -11.767  15.993  71.858  1.00  0.00    -0.504 C  
BRANCH   4   5
HETATM    5  C   UNL     1     -12.131  15.469  70.460  1.00  0.00    -0.386 C  
BRANCH   5   6
HETATM    6  O   UNL     1     -11.016  15.581  69.568  1.00  0.00    -0.234 OA 
BRANCH   6   7
HETATM    7  C   UNL     1     -11.371  16.270  68.351  1.00  0.00    -0.312 C  
BRANCH   7   8
HETATM    8  C   UNL     1     -10.483  17.490  68.122  1.00  0.00    -0.386 A  
HETATM    9  C   UNL     1      -9.150  17.485  68.565  1.00  0.00    -0.277 A  
HETATM   10  C   UNL     1     -10.964  18.623  67.448  1.00  0.00    -0.239 A  
HETATM   11  C   UNL     1      -8.328  18.594  68.350  1.00  0.00    -0.362 A  
HETATM   12  C   UNL     1     -10.141  19.731  67.240  1.00  0.00    -0.549 A  
HETATM   13  C   UNL     1      -8.824  19.718  67.692  1.00  0.00    -0.393 A  
ENDBRANCH   7   8
BRANCH   7  14
HETATM   14  C   UNL     1     -11.321  15.308  67.169  1.00  0.00    -0.247 A  
HETATM   15  C   UNL     1     -10.288  14.620  65.072  1.00  0.00    -0.432 A  
HETATM   16  C   UNL     1     -12.055  13.280  66.035  1.00  0.00    -0.491 A  
HETATM   17  C   UNL     1     -10.383  15.514  66.142  1.00  0.00    -0.327 A  
HETATM   18 BR   UNL     1     -10.990  12.293  63.583  1.00  0.00    -0.550 Br 
HETATM   19  C   UNL     1     -12.153  14.177  67.102  1.00  0.00    -0.432 A  
HETATM   20  C   UNL     1     -11.124  13.507  65.026  1.00  0.00    -0.328 A  
ENDBRANCH   7  14
ENDBRANCH   6   7
ENDBRANCH   5   6
ENDBRANCH   4   5
ENDBRANCH   2   4
TORSDOF 6
ENDMDL
MODEL        8
REMARK 921   NORMALIZED FREE ENERGY PREDICTED BY IDOCK:   -5.69 KCAL/MOL
REMARK 922        TOTAL FREE ENERGY PREDICTED BY IDOCK:   -8.60 KCAL/MOL
REMARK 923 INTER-LIGAND FREE ENERGY PREDICTED BY IDOCK:   -7.98 KCAL/MOL
REMARK 924 INTRA-LIGAND FREE ENERGY PREDICTED BY IDOCK:   -0.62 KCAL/MOL
REMARK 927      BINDING AFFINITY PREDICTED BY RF-SCORE:    0.00 PKD
ROOT
HETATM    1  C   UNL     1     -12.099  13.764  66.644  1.00  0.00    -0.429 C  
HETATM    2  N   UNL     1     -12.121  12.376  66.178  1.00  0.00    -0.641 NA 
HETATM    3  C   UNL     1     -12.326  12.350  64.727  1.00  0.00    -0.423 C  
ENDROOT
BRANCH   2   4
HETATM    4  C   UNL     1     -10.877  11.684  66.577  1.00  0.00    -0.284 C  
BRANCH   4   5
HETATM    5  C   UNL     1     -11.115  10.498  67.526  1.00  0.00    -0.290 C  
BRANCH   5   6
HETATM    6  O   UNL     1     -10.730  10.834  68.864  1.00  0.00    -0.194 OA 
BRANCH   6   7
HETATM    7  C   UNL     1     -11.783  10.554  69.809  1.00  0.00    -0.281 C  
BRANCH   7   8
HETATM    8  C   UNL     1     -11.344   9.521  70.843  1.00  0.00    -0.410 A  
HETATM    9  C   UNL     1     -12.295   8.689  71.456  1.00  0.00    -0.370 A  
HETATM   10  C   UNL     1      -9.992   9.362  71.183  1.00  0.00    -0.311 A  
HETATM   11  C   UNL     1     -11.900   7.733  72.396  1.00  0.00    -0.371 A  
HETATM   12  C   UNL     1      -9.601   8.410  72.126  1.00  0.00    -0.367 A  
HETATM   13  C   UNL     1     -10.554   7.597  72.734  1.00  0.00    -0.381 A  
ENDBRANCH   7   8
BRANCH   7  14
HETATM   14  C   UNL     1     -12.255  11.845  70.469  1.00  0.00    -0.426 A  
HETATM   15  C   UNL     1     -13.500  12.954  72.246  1.00  0.00    -0.631 A  
HETATM   16  C   UNL     1     -12.231  14.273  70.668  1.00  0.00    -0.427 A  
HETATM   17  C   UNL     1     -13.092  11.786  71.597  1.00  0.00    -0.443 A  
HETATM   18 BR   UNL     1     -13.610  15.772  72.661  1.00  0.00    -0.583 Br 
HETATM   19  C   UNL     1     -11.828  13.105  70.016  1.00  0.00    -0.360 A  
HETATM   20  C   UNL     1     -13.065  14.191  71.778  1.00  0.00    -0.357 A  
ENDBRANCH   7  14
ENDBRANCH   6   7
ENDBRANCH   5   6
ENDBRANCH   4   5
ENDBRANCH   2   4
TORSDOF 6
ENDMDL
MODEL        9
REMARK 921   NORMALIZED FREE ENERGY PREDICTED BY IDOCK:   -5.64 KCAL/MOL
REMARK 922        TOTAL FREE ENERGY PREDICTED BY IDOCK:   -8.53 KCAL/MOL
REMARK 923 INTER-LIGAND FREE ENERGY PREDICTED BY IDOCK:   -7.75 KCAL/MOL
REMARK 924 INTRA-LIGAND FREE ENERGY PREDICTED BY IDOCK:   -0.78 KCAL/MOL
REMARK 927      BINDING AFFINITY PREDICTED BY RF-SCORE:    0.00 PKD
ROOT
HETATM    1  C   UNL     1     -12.284  14.189  64.295  1.00  0.00    -0.420 C  
HETATM    2  N   UNL     1     -10.989  14.399  64.946  1.00  0.00    -0.387 NA 
HETATM    3  C   UNL     1     -10.731  15.836  65.072  1.00  0.00    -0.421 C  
ENDROOT
BRANCH   2   4
HETATM    4  C   UNL     1     -10.958  13.711  66.255  1.00  0.00    -0.299 C  
BRANCH   4   5
HETATM    5  C   UNL     1     -12.140  14.079  67.165  1.00  0.00    -0.401 C  
BRANCH   5   6
HETATM    6  O   UNL     1     -11.718  14.176  68.531  1.00  0.00    -0.306 OA 
BRANCH   6   7
HETATM    7  C   UNL     1     -11.799  15.531  69.020  1.00  0.00    -0.354 C  
BRANCH   7   8
HETATM    8  C   UNL     1     -12.355  15.578  70.441  1.00  0.00    -0.451 A  
HETATM    9  C   UNL     1     -11.576  16.101  71.486  1.00  0.00    -0.502 A  
HETATM   10  C   UNL     1     -13.653  15.129  70.729  1.00  0.00    -0.299 A  
HETATM   11  C   UNL     1     -12.081  16.158  72.787  1.00  0.00    -0.653 A  
HETATM   12  C   UNL     1     -14.152  15.182  72.031  1.00  0.00    -0.659 A  
HETATM   13  C   UNL     1     -13.367  15.694  73.060  1.00  0.00    -0.668 A  
ENDBRANCH   7   8
BRANCH   7  14
HETATM   14  C   UNL     1     -10.435  16.206  68.927  1.00  0.00    -0.258 A  
HETATM   15  C   UNL     1      -8.009  16.054  69.088  1.00  0.00    -0.238 A  
HETATM   16  C   UNL     1      -9.036  18.123  68.376  1.00  0.00    -0.305 A  
HETATM   17  C   UNL     1      -9.272  15.469  69.211  1.00  0.00    -0.268 A  
HETATM   18 BR   UNL     1      -6.188  18.166  68.495  1.00  0.00    -0.204 Br 
HETATM   19  C   UNL     1     -10.298  17.540  68.505  1.00  0.00    -0.380 A  
HETATM   20  C   UNL     1      -7.898  17.377  68.670  1.00  0.00    -0.274 A  
ENDBRANCH   7  14
ENDBRANCH   6   7
ENDBRANCH   5   6
ENDBRANCH   4   5
ENDBRANCH   2   4
TORSDOF 6
ENDMDL
MODEL       10
REMARK 921   NORMALIZED FREE ENERGY PREDICTED BY IDOCK:   -5.55 KCAL/MOL
REMARK 922        TOTAL FREE ENERGY PREDICTED BY IDOCK:   -8.42 KCAL/MOL
REMARK 923 INTER-LIGAND FREE ENERGY PREDICTED BY IDOCK:   -7.79 KCAL/MOL
REMARK 924 INTRA-LIGAND FREE ENERGY PREDICTED BY IDOCK:   -0.62 KCAL/MOL
REMARK 927      BINDING AFFINITY PREDICTED BY RF-SCORE:    0.00 PKD
ROOT
HETATM    1  C   UNL     1      -9.989  19.066  68.477  1.00  0.00    -0.421 C  
HETATM    2  N   UNL     1     -10.696  18.666  67.259  1.00  0.00    -0.424 NA 
HETATM    3  C   UNL     1     -10.329  19.567  66.162  1.00  0.00    -0.520 C  
ENDROOT
BRANCH   2   4
HETATM    4  C   UNL     1     -10.403  17.252  66.939  1.00  0.00    -0.310 C  
BRANCH   4   5
HETATM    5  C   UNL     1     -10.331  16.349  68.181  1.00  0.00    -0.283 C  
BRANCH   5   6
HETATM    6  O   UNL     1     -10.181  14.975  67.802  1.00  0.00    -0.234 OA 
BRANCH   6   7
HETATM    7  C   UNL     1     -11.450  14.364  67.493  1.00  0.00    -0.349 C  
BRANCH   7   8
HETATM    8  C   UNL     1     -11.438  13.724  66.109  1.00  0.00    -0.350 A  
HETATM    9  C   UNL     1     -10.219  13.475  65.457  1.00  0.00    -0.308 A  
HETATM   10  C   UNL     1     -12.631  13.348  65.470  1.00  0.00    -0.520 A  
HETATM   11  C   UNL     1     -10.199  12.879  64.194  1.00  0.00    -0.311 A  
HETATM   12  C   UNL     1     -12.607  12.759  64.206  1.00  0.00    -0.405 A  
HETATM   13  C   UNL     1     -11.392  12.525  63.567  1.00  0.00    -0.556 A  
ENDBRANCH   7   8
BRANCH   7  14
HETATM   14  C   UNL     1     -11.826  13.357  68.576  1.00  0.00    -0.401 A  
HETATM   15  C   UNL     1     -12.023  11.039  69.301  1.00  0.00    -0.410 A  
HETATM   16  C   UNL     1     -12.505  12.827  70.855  1.00  0.00    -0.373 A  
HETATM   17  C   UNL     1     -11.728  11.980  68.311  1.00  0.00    -0.396 A  
HETATM   18 BR   UNL     1     -12.799  10.197  71.911  1.00  0.00    -0.498 Br 
HETATM   19  C   UNL     1     -12.215  13.767  69.863  1.00  0.00    -0.383 A  
HETATM   20  C   UNL     1     -12.408  11.469  70.568  1.00  0.00    -0.342 A  
ENDBRANCH   7  14
ENDBRANCH   6   7
ENDBRANCH   5   6
ENDBRANCH   4   5
ENDBRANCH   2   4
TORSDOF 6
ENDMDL
MODEL       11
REMARK 921   NORMALIZED FREE ENERGY PREDICTED BY IDOCK:   -5.53 KCAL/MOL
REMARK 922        TOTAL FREE ENERGY PREDICTED BY IDOCK:   -8.39 KCAL/MOL
REMARK 923 INTER-LIGAND FREE ENERGY PREDICTED BY IDOCK:   -7.54 KCAL/MOL
REMARK 924 INTRA-LIGAND FREE ENERGY PREDICTED BY IDOCK:   -0.85 KCAL/MOL
REMARK 927      BINDING AFFINITY PREDICTED BY RF-SCORE:    0.00 PKD
ROOT
HETATM    1  C   UNL     1     -12.844  13.964  65.366  1.00  0.00    -0.427 C  
HETATM    2  N   UNL     1     -12.426  12.564  65.272  1.00  0.00    -0.647 NA 
HETATM    3  C   UNL     1     -12.175  12.221  63.870  1.00  0.00    -0.515 C  
ENDROOT
BRANCH   2   4
HETATM    4  C   UNL     1     -11.240  12.328  66.123  1.00  0.00    -0.328 C  
BRANCH   4   5
HETATM    5  C   UNL     1     -11.593  11.915  67.561  1.00  0.00    -0.304 C  
BRANCH   5   6
HETATM    6  O   UNL     1     -10.936  12.764  68.510  1.00  0.00    -0.237 OA 
BRANCH   6   7
HETATM    7  C   UNL     1     -11.654  13.999  68.709  1.00  0.00    -0.331 C  
BRANCH   7   8
HETATM    8  C   UNL     1     -12.380  14.011  70.051  1.00  0.00    -0.397 A  
HETATM    9  C   UNL     1     -12.941  15.202  70.539  1.00  0.00    -0.366 A  
HETATM   10  C   UNL     1     -12.526  12.839  70.810  1.00  0.00    -0.357 A  
HETATM   11  C   UNL     1     -13.617  15.219  71.762  1.00  0.00    -0.581 A  
HETATM   12  C   UNL     1     -13.197  12.861  72.033  1.00  0.00    -0.549 A  
HETATM   13  C   UNL     1     -13.741  14.050  72.511  1.00  0.00    -0.651 A  
ENDBRANCH   7   8
BRANCH   7  14
HETATM   14  C   UNL     1     -10.708  15.186  68.571  1.00  0.00    -0.240 A  
HETATM   15  C   UNL     1      -8.561  16.222  69.080  1.00  0.00    -0.247 A  
HETATM   16  C   UNL     1     -10.111  17.339  67.599  1.00  0.00    -0.313 A  
HETATM   17  C   UNL     1      -9.465  15.166  69.229  1.00  0.00    -0.212 A  
HETATM   18 BR   UNL     1      -7.664  18.727  68.057  1.00  0.00    -0.297 Br 
HETATM   19  C   UNL     1     -11.016  16.286  67.752  1.00  0.00    -0.281 A  
HETATM   20  C   UNL     1      -8.890  17.302  68.265  1.00  0.00    -0.258 A  
ENDBRANCH   7  14
ENDBRANCH   6   7
ENDBRANCH   5   6
ENDBRANCH   4   5
ENDBRANCH   2   4
TORSDOF 6
ENDMDL
MODEL       12
REMARK 921   NORMALIZED FREE ENERGY PREDICTED BY IDOCK:   -5.52 KCAL/MOL
REMARK 922        TOTAL FREE ENERGY PREDICTED BY IDOCK:   -8.37 KCAL/MOL
REMARK 923 INTER-LIGAND FREE ENERGY PREDICTED BY IDOCK:   -7.61 KCAL/MOL
REMARK 924 INTRA-LIGAND FREE ENERGY PREDICTED BY IDOCK:   -0.76 KCAL/MOL
REMARK 927      BINDING AFFINITY PREDICTED BY RF-SCORE:    0.00 PKD
ROOT
HETATM    1  C   UNL     1     -14.185  14.928  71.974  1.00  0.00    -0.546 C  
HETATM    2  N   UNL     1     -13.161  15.895  72.374  1.00  0.00    -0.459 NA 
HETATM    3  C   UNL     1     -12.881  15.748  73.806  1.00  0.00    -0.580 C  
ENDROOT
BRANCH   2   4
HETATM    4  C   UNL     1     -11.946  15.723  71.549  1.00  0.00    -0.440 C  
BRANCH   4   5
HETATM    5  C   UNL     1     -12.244  15.573  70.049  1.00  0.00    -0.355 C  
BRANCH   5   6
HETATM    6  O   UNL     1     -11.299  14.692  69.429  1.00  0.00    -0.257 OA 
BRANCH   6   7
HETATM    7  C   UNL     1     -11.953  13.605  68.742  1.00  0.00    -0.359 C  
BRANCH   7   8
HETATM    8  C   UNL     1     -11.547  13.550  67.272  1.00  0.00    -0.398 A  
HETATM    9  C   UNL     1     -10.577  14.435  66.775  1.00  0.00    -0.282 A  
HETATM   10  C   UNL     1     -12.108  12.606  66.398  1.00  0.00    -0.330 A  
HETATM   11  C   UNL     1     -10.191  14.383  65.433  1.00  0.00    -0.408 A  
HETATM   12  C   UNL     1     -11.724  12.561  65.057  1.00  0.00    -0.407 A  
HETATM   13  C   UNL     1     -10.768  13.450  64.574  1.00  0.00    -0.434 A  
ENDBRANCH   7   8
BRANCH   7  14
HETATM   14  C   UNL     1     -11.670  12.287  69.455  1.00  0.00    -0.392 A  
HETATM   15  C   UNL     1     -12.282  10.654  71.156  1.00  0.00    -0.479 A  
HETATM   16  C   UNL     1     -10.427  10.203  69.674  1.00  0.00    -0.282 A  
HETATM   17  C   UNL     1     -12.494  11.879  70.518  1.00  0.00    -0.301 A  
HETATM   18 BR   UNL     1     -10.968   8.161  71.587  1.00  0.00    -0.328 Br 
HETATM   19  C   UNL     1     -10.636  11.430  69.040  1.00  0.00    -0.224 A  
HETATM   20  C   UNL     1     -11.250   9.823  70.729  1.00  0.00    -0.348 A  
ENDBRANCH   7  14
ENDBRANCH   6   7
ENDBRANCH   5   6
ENDBRANCH   4   5
ENDBRANCH   2   4
TORSDOF 6
ENDMDL
MODEL       13
REMARK 921   NORMALIZED FREE ENERGY PREDICTED BY IDOCK:   -5.50 KCAL/MOL
REMARK 922        TOTAL FREE ENERGY PREDICTED BY IDOCK:   -8.35 KCAL/MOL
REMARK 923 INTER-LIGAND FREE ENERGY PREDICTED BY IDOCK:   -7.66 KCAL/MOL
REMARK 924 INTRA-LIGAND FREE ENERGY PREDICTED BY IDOCK:   -0.68 KCAL/MOL
REMARK 927      BINDING AFFINITY PREDICTED BY RF-SCORE:    0.00 PKD
ROOT
HETATM    1  C   UNL     1     -12.627  16.011  74.060  1.00  0.00    -0.608 C  
HETATM    2  N   UNL     1     -12.710  15.335  72.764  1.00  0.00    -0.361 NA 
HETATM    3  C   UNL     1     -14.067  15.471  72.227  1.00  0.00    -0.544 C  
ENDROOT
BRANCH   2   4
HETATM    4  C   UNL     1     -11.689  15.874  71.840  1.00  0.00    -0.499 C  
BRANCH   4   5
HETATM    5  C   UNL     1     -12.030  15.653  70.358  1.00  0.00    -0.376 C  
BRANCH   5   6
HETATM    6  O   UNL     1     -11.187  14.646  69.787  1.00  0.00    -0.260 OA 
BRANCH   6   7
HETATM    7  C   UNL     1     -11.945  13.680  69.029  1.00  0.00    -0.353 C  
BRANCH   7   8
HETATM    8  C   UNL     1     -11.471  13.611  67.581  1.00  0.00    -0.357 A  
HETATM    9  C   UNL     1     -10.462  14.477  67.127  1.00  0.00    -0.267 A  
HETATM   10  C   UNL     1     -12.006  12.673  66.684  1.00  0.00    -0.382 A  
HETATM   11  C   UNL     1     -10.014  14.413  65.806  1.00  0.00    -0.354 A  
HETATM   12  C   UNL     1     -11.560  12.616  65.363  1.00  0.00    -0.400 A  
HETATM   13  C   UNL     1     -10.566  13.486  64.923  1.00  0.00    -0.409 A  
ENDBRANCH   7   8
BRANCH   7  14
HETATM   14  C   UNL     1     -11.885  12.316  69.707  1.00  0.00    -0.388 A  
HETATM   15  C   UNL     1     -10.794  10.152  69.962  1.00  0.00    -0.361 A  
HETATM   16  C   UNL     1     -12.650  10.736  71.397  1.00  0.00    -0.516 A  
HETATM   17  C   UNL     1     -10.898  11.390  69.324  1.00  0.00    -0.242 A  
HETATM   18 BR   UNL     1     -11.525   8.160  71.866  1.00  0.00    -0.386 Br 
HETATM   19  C   UNL     1     -12.757  11.972  70.755  1.00  0.00    -0.231 A  
HETATM   20  C   UNL     1     -11.671   9.832  70.996  1.00  0.00    -0.370 A  
ENDBRANCH   7  14
ENDBRANCH   6   7
ENDBRANCH   5   6
ENDBRANCH   4   5
ENDBRANCH   2   4
TORSDOF 6
ENDMDL
MODEL       14
REMARK 921   NORMALIZED FREE ENERGY PREDICTED BY IDOCK:   -5.50 KCAL/MOL
REMARK 922        TOTAL FREE ENERGY PREDICTED BY IDOCK:   -8.34 KCAL/MOL
REMARK 923 INTER-LIGAND FREE ENERGY PREDICTED BY IDOCK:   -7.60 KCAL/MOL
REMARK 924 INTRA-LIGAND FREE ENERGY PREDICTED BY IDOCK:   -0.75 KCAL/MOL
REMARK 927      BINDING AFFINITY PREDICTED BY RF-SCORE:    0.00 PKD
ROOT
HETATM    1  C   UNL     1     -10.647  11.846  63.471  1.00  0.00    -0.453 C  
HETATM    2  N   UNL     1     -11.184  13.035  64.134  1.00  0.00    -0.379 NA 
HETATM    3  C   UNL     1     -12.464  12.706  64.768  1.00  0.00    -0.484 C  
ENDROOT
BRANCH   2   4
HETATM    4  C   UNL     1     -10.203  13.567  65.104  1.00  0.00    -0.316 C  
BRANCH   4   5
HETATM    5  C   UNL     1     -10.170  15.103  65.159  1.00  0.00    -0.351 C  
BRANCH   5   6
HETATM    6  O   UNL     1     -10.991  15.591  66.227  1.00  0.00    -0.314 OA 
BRANCH   6   7
HETATM    7  C   UNL     1     -10.245  15.731  67.453  1.00  0.00    -0.270 C  
BRANCH   7   8
HETATM    8  C   UNL     1      -9.750  17.161  67.644  1.00  0.00    -0.263 A  
HETATM    9  C   UNL     1     -10.500  18.239  67.146  1.00  0.00    -0.417 A  
HETATM   10  C   UNL     1      -8.560  17.433  68.338  1.00  0.00    -0.270 A  
HETATM   11  C   UNL     1     -10.059  19.553  67.326  1.00  0.00    -0.523 A  
HETATM   12  C   UNL     1      -8.120  18.746  68.510  1.00  0.00    -0.379 A  
HETATM   13  C   UNL     1      -8.868  19.806  68.003  1.00  0.00    -0.360 A  
ENDBRANCH   7   8
BRANCH   7  14
HETATM   14  C   UNL     1     -11.087  15.264  68.636  1.00  0.00    -0.282 A  
HETATM   15  C   UNL     1     -12.286  13.474  69.775  1.00  0.00    -0.330 A  
HETATM   16  C   UNL     1     -12.094  15.644  70.822  1.00  0.00    -0.454 A  
HETATM   17  C   UNL     1     -11.552  13.938  68.680  1.00  0.00    -0.363 A  
HETATM   18 BR   UNL     1     -13.536  13.701  72.327  1.00  0.00    -0.709 Br 
HETATM   19  C   UNL     1     -11.365  16.109  69.725  1.00  0.00    -0.323 A  
HETATM   20  C   UNL     1     -12.551  14.331  70.841  1.00  0.00    -0.356 A  
ENDBRANCH   7  14
ENDBRANCH   6   7
ENDBRANCH   5   6
ENDBRANCH   4   5
ENDBRANCH   2   4
TORSDOF 6
ENDMDL
MODEL       15
REMARK 921   NORMALIZED FREE ENERGY PREDICTED BY IDOCK:   -5.49 KCAL/MOL
REMARK 922        TOTAL FREE ENERGY PREDICTED BY IDOCK:   -8.33 KCAL/MOL
REMARK 923 INTER-LIGAND FREE ENERGY PREDICTED BY IDOCK:   -7.51 KCAL/MOL
REMARK 924 INTRA-LIGAND FREE ENERGY PREDICTED BY IDOCK:   -0.82 KCAL/MOL
REMARK 927      BINDING AFFINITY PREDICTED BY RF-SCORE:    0.00 PKD
ROOT
HETATM    1  C   UNL     1     -10.548  19.468  66.365  1.00  0.00    -0.472 C  
HETATM    2  N   UNL     1      -9.548  18.690  67.099  1.00  0.00    -0.291 NA 
HETATM    3  C   UNL     1      -9.909  18.642  68.519  1.00  0.00    -0.386 C  
ENDROOT
BRANCH   2   4
HETATM    4  C   UNL     1      -9.420  17.339  66.511  1.00  0.00    -0.269 C  
BRANCH   4   5
HETATM    5  C   UNL     1      -8.725  16.332  67.442  1.00  0.00    -0.182 C  
BRANCH   5   6
HETATM    6  O   UNL     1      -9.273  15.019  67.270  1.00  0.00    -0.190 OA 
BRANCH   6   7
HETATM    7  C   UNL     1     -10.698  15.059  67.049  1.00  0.00    -0.304 C  
BRANCH   7   8
HETATM    8  C   UNL     1     -11.111  14.128  65.914  1.00  0.00    -0.306 A  
HETATM    9  C   UNL     1     -12.456  13.752  65.765  1.00  0.00    -0.527 A  
HETATM   10  C   UNL     1     -10.173  13.650  64.986  1.00  0.00    -0.356 A  
HETATM   11  C   UNL     1     -12.845  12.908  64.722  1.00  0.00    -0.359 A  
HETATM   12  C   UNL     1     -10.564  12.803  63.948  1.00  0.00    -0.427 A  
HETATM   13  C   UNL     1     -11.899  12.430  63.817  1.00  0.00    -0.587 A  
ENDBRANCH   7   8
BRANCH   7  14
HETATM   14  C   UNL     1     -11.439  14.736  68.341  1.00  0.00    -0.336 A  
HETATM   15  C   UNL     1     -12.132  13.093  70.003  1.00  0.00    -0.375 A  
HETATM   16  C   UNL     1     -12.654  15.429  70.337  1.00  0.00    -0.433 A  
HETATM   17  C   UNL     1     -11.497  13.407  68.798  1.00  0.00    -0.344 A  
HETATM   18 BR   UNL     1     -13.557  13.683  72.400  1.00  0.00    -0.706 Br 
HETATM   19  C   UNL     1     -12.024  15.742  69.130  1.00  0.00    -0.312 A  
HETATM   20  C   UNL     1     -12.705  14.107  70.766  1.00  0.00    -0.344 A  
ENDBRANCH   7  14
ENDBRANCH   6   7
ENDBRANCH   5   6
ENDBRANCH   4   5
ENDBRANCH   2   4
TORSDOF 6
ENDMDL
MODEL       16
REMARK 921   NORMALIZED FREE ENERGY PREDICTED BY IDOCK:   -5.47 KCAL/MOL
REMARK 922        TOTAL FREE ENERGY PREDICTED BY IDOCK:   -8.31 KCAL/MOL
REMARK 923 INTER-LIGAND FREE ENERGY PREDICTED BY IDOCK:   -8.31 KCAL/MOL
REMARK 924 INTRA-LIGAND FREE ENERGY PREDICTED BY IDOCK:    0.00 KCAL/MOL
REMARK 927      BINDING AFFINITY PREDICTED BY RF-SCORE:    0.00 PKD
ROOT
HETATM    1  C   UNL     1     -12.735  13.920  65.618  1.00  0.00    -0.495 C  
HETATM    2  N   UNL     1     -12.323  12.514  65.652  1.00  0.00    -0.638 NA 
HETATM    3  C   UNL     1     -11.852  12.110  64.324  1.00  0.00    -0.378 C  
ENDROOT
BRANCH   2   4
HETATM    4  C   UNL     1     -11.294  12.309  66.693  1.00  0.00    -0.343 C  
BRANCH   4   5
HETATM    5  C   UNL     1     -11.506  11.027  67.515  1.00  0.00    -0.185 C  
BRANCH   5   6
HETATM    6  O   UNL     1     -12.392  11.269  68.614  1.00  0.00    -0.534 OA 
BRANCH   6   7
HETATM    7  C   UNL     1     -11.673  11.642  69.808  1.00  0.00    -0.352 C  
BRANCH   7   8
HETATM    8  C   UNL     1     -12.402  12.739  70.578  1.00  0.00    -0.355 A  
HETATM    9  C   UNL     1     -12.341  14.070  70.134  1.00  0.00    -0.409 A  
HETATM   10  C   UNL     1     -13.164  12.444  71.719  1.00  0.00    -0.435 A  
HETATM   11  C   UNL     1     -13.015  15.080  70.826  1.00  0.00    -0.442 A  
HETATM   12  C   UNL     1     -13.831  13.456  72.411  1.00  0.00    -0.665 A  
HETATM   13  C   UNL     1     -13.755  14.774  71.967  1.00  0.00    -0.527 A  
ENDBRANCH   7   8
BRANCH   7  14
HETATM   14  C   UNL     1     -11.426  10.414  70.678  1.00  0.00    -0.438 A  
HETATM   15  C   UNL     1     -12.307   8.660  72.122  1.00  0.00    -0.452 A  
HETATM   16  C   UNL     1      -9.961   8.668  71.539  1.00  0.00    -0.344 A  
HETATM   17  C   UNL     1     -12.501   9.813  71.356  1.00  0.00    -0.482 A  
HETATM   18 BR   UNL     1     -10.777   6.529  73.238  1.00  0.00    -0.293 Br 
HETATM   19  C   UNL     1     -10.154   9.823  70.778  1.00  0.00    -0.200 A  
HETATM   20  C   UNL     1     -11.038   8.094  72.208  1.00  0.00    -0.344 A  
ENDBRANCH   7  14
ENDBRANCH   6   7
ENDBRANCH   5   6
ENDBRANCH   4   5
ENDBRANCH   2   4
TORSDOF 6
ENDMDL
MODEL       17
REMARK 921   NORMALIZED FREE ENERGY PREDICTED BY IDOCK:   -5.47 KCAL/MOL
REMARK 922        TOTAL FREE ENERGY PREDICTED BY IDOCK:   -8.31 KCAL/MOL
REMARK 923 INTER-LIGAND FREE ENERGY PREDICTED BY IDOCK:   -7.52 KCAL/MOL
REMARK 924 INTRA-LIGAND FREE ENERGY PREDICTED BY IDOCK:   -0.78 KCAL/MOL
REMARK 927      BINDING AFFINITY PREDICTED BY RF-SCORE:    0.00 PKD
ROOT
HETATM    1  C   UNL     1     -12.861  15.703  73.620  1.00  0.00    -0.574 C  
HETATM    2  N   UNL     1     -12.753  14.839  72.442  1.00  0.00    -0.333 NA 
HETATM    3  C   UNL     1     -13.691  13.720  72.567  1.00  0.00    -0.561 C  
ENDROOT
BRANCH   2   4
HETATM    4  C   UNL     1     -12.984  15.624  71.210  1.00  0.00    -0.492 C  
BRANCH   4   5
HETATM    5  C   UNL     1     -11.703  15.881  70.401  1.00  0.00    -0.354 C  
BRANCH   5   6
HETATM    6  O   UNL     1     -11.948  15.727  68.998  1.00  0.00    -0.385 OA 
BRANCH   6   7
HETATM    7  C   UNL     1     -10.728  15.494  68.264  1.00  0.00    -0.271 C  
BRANCH   7   8
HETATM    8  C   UNL     1     -10.999  14.778  66.945  1.00  0.00    -0.328 A  
HETATM    9  C   UNL     1      -9.968  14.616  66.005  1.00  0.00    -0.337 A  
HETATM   10  C   UNL     1     -12.265  14.246  66.652  1.00  0.00    -0.411 A  
HETATM   11  C   UNL     1     -10.205  13.952  64.799  1.00  0.00    -0.353 A  
HETATM   12  C   UNL     1     -12.499  13.588  65.444  1.00  0.00    -0.540 A  
HETATM   13  C   UNL     1     -11.471  13.442  64.517  1.00  0.00    -0.402 A  
ENDBRANCH   7   8
BRANCH   7  14
HETATM   14  C   UNL     1      -9.986  16.809  68.049  1.00  0.00    -0.272 A  
HETATM   15  C   UNL     1      -7.983  18.159  68.369  1.00  0.00    -0.312 A  
HETATM   16  C   UNL     1      -9.808  19.019  67.039  1.00  0.00    -0.379 A  
HETATM   17  C   UNL     1      -8.701  16.981  68.592  1.00  0.00    -0.261 A  
HETATM   18 BR   UNL     1      -7.566  20.762  67.284  1.00  0.00    -0.289 Br 
HETATM   19  C   UNL     1     -10.527  17.844  67.266  1.00  0.00    -0.373 A  
HETATM   20  C   UNL     1      -8.541  19.171  67.593  1.00  0.00    -0.296 A  
ENDBRANCH   7  14
ENDBRANCH   6   7
ENDBRANCH   5   6
ENDBRANCH   4   5
ENDBRANCH   2   4
TORSDOF 6
ENDMDL
MODEL       18
REMARK 921   NORMALIZED FREE ENERGY PREDICTED BY IDOCK:   -5.47 KCAL/MOL
REMARK 922        TOTAL FREE ENERGY PREDICTED BY IDOCK:   -8.31 KCAL/MOL
REMARK 923 INTER-LIGAND FREE ENERGY PREDICTED BY IDOCK:   -7.43 KCAL/MOL
REMARK 924 INTRA-LIGAND FREE ENERGY PREDICTED BY IDOCK:   -0.87 KCAL/MOL
REMARK 927      BINDING AFFINITY PREDICTED BY RF-SCORE:    0.00 PKD
ROOT
HETATM    1  C   UNL     1     -13.469  13.095  72.121  1.00  0.00    -0.560 C  
HETATM    2  N   UNL     1     -13.513  14.261  71.237  1.00  0.00    -0.339 NA 
HETATM    3  C   UNL     1     -13.991  15.427  71.986  1.00  0.00    -0.539 C  
ENDROOT
BRANCH   2   4
HETATM    4  C   UNL     1     -12.183  14.495  70.633  1.00  0.00    -0.331 C  
BRANCH   4   5
HETATM    5  C   UNL     1     -11.833  13.491  69.523  1.00  0.00    -0.334 C  
BRANCH   5   6
HETATM    6  O   UNL     1     -11.996  14.087  68.230  1.00  0.00    -0.357 OA 
BRANCH   6   7
HETATM    7  C   UNL     1     -10.795  13.980  67.437  1.00  0.00    -0.282 C  
BRANCH   7   8
HETATM    8  C   UNL     1     -11.068  13.289  66.104  1.00  0.00    -0.300 A  
HETATM    9  C   UNL     1     -10.336  12.147  65.739  1.00  0.00    -0.289 A  
HETATM   10  C   UNL     1     -12.063  13.757  65.232  1.00  0.00    -0.425 A  
HETATM   11  C   UNL     1     -10.586  11.502  64.526  1.00  0.00    -0.387 A  
HETATM   12  C   UNL     1     -12.306  13.114  64.018  1.00  0.00    -0.425 A  
HETATM   13  C   UNL     1     -11.567  11.988  63.663  1.00  0.00    -0.578 A  
ENDBRANCH   7   8
BRANCH   7  14
HETATM   14  C   UNL     1     -10.171  15.357  67.240  1.00  0.00    -0.254 A  
HETATM   15  C   UNL     1      -8.460  16.752  66.207  1.00  0.00    -0.342 A  
HETATM   16  C   UNL     1     -10.188  17.773  67.555  1.00  0.00    -0.356 A  
HETATM   17  C   UNL     1      -9.023  15.494  66.440  1.00  0.00    -0.359 A  
HETATM   18 BR   UNL     1      -8.291  19.587  66.445  1.00  0.00    -0.378 Br 
HETATM   19  C   UNL     1     -10.747  16.515  67.791  1.00  0.00    -0.329 A  
HETATM   20  C   UNL     1      -9.047  17.884  66.766  1.00  0.00    -0.268 A  
ENDBRANCH   7  14
ENDBRANCH   6   7
ENDBRANCH   5   6
ENDBRANCH   4   5
ENDBRANCH   2   4
TORSDOF 6
ENDMDL
MODEL       19
REMARK 921   NORMALIZED FREE ENERGY PREDICTED BY IDOCK:   -5.42 KCAL/MOL
REMARK 922        TOTAL FREE ENERGY PREDICTED BY IDOCK:   -8.24 KCAL/MOL
REMARK 923 INTER-LIGAND FREE ENERGY PREDICTED BY IDOCK:   -7.48 KCAL/MOL
REMARK 924 INTRA-LIGAND FREE ENERGY PREDICTED BY IDOCK:   -0.76 KCAL/MOL
REMARK 927      BINDING AFFINITY PREDICTED BY RF-SCORE:    0.00 PKD
ROOT
HETATM    1  C   UNL     1      -9.567  18.776  66.900  1.00  0.00    -0.309 C  
HETATM    2  N   UNL     1      -9.232  17.708  65.954  1.00  0.00    -0.518 NA 
HETATM    3  C   UNL     1      -7.928  17.136  66.304  1.00  0.00    -0.304 C  
ENDROOT
BRANCH   2   4
HETATM    4  C   UNL     1     -10.301  16.687  65.937  1.00  0.00    -0.340 C  
BRANCH   4   5
HETATM    5  C   UNL     1     -10.626  16.120  67.329  1.00  0.00    -0.305 C  
BRANCH   5   6
HETATM    6  O   UNL     1     -10.340  14.718  67.386  1.00  0.00    -0.241 OA 
BRANCH   6   7
HETATM    7  C   UNL     1     -11.519  13.922  67.145  1.00  0.00    -0.347 C  
BRANCH   7   8
HETATM    8  C   UNL     1     -11.456  13.230  65.787  1.00  0.00    -0.349 A  
HETATM    9  C   UNL     1     -12.640  12.920  65.098  1.00  0.00    -0.536 A  
HETATM   10  C   UNL     1     -10.227  12.913  65.188  1.00  0.00    -0.288 A  
HETATM   11  C   UNL     1     -12.591  12.296  63.849  1.00  0.00    -0.544 A  
HETATM   12  C   UNL     1     -10.182  12.284  63.943  1.00  0.00    -0.421 A  
HETATM   13  C   UNL     1     -11.363  11.974  63.274  1.00  0.00    -0.396 A  
ENDBRANCH   7   8
BRANCH   7  14
HETATM   14  C   UNL     1     -11.718  12.921  68.278  1.00  0.00    -0.390 A  
HETATM   15  C   UNL     1     -12.357  12.472  70.586  1.00  0.00    -0.369 A  
HETATM   16  C   UNL     1     -11.802  10.635  69.117  1.00  0.00    -0.287 A  
HETATM   17  C   UNL     1     -12.123  13.375  69.545  1.00  0.00    -0.334 A  
HETATM   18 BR   UNL     1     -12.519   9.885  71.771  1.00  0.00    -0.459 Br 
HETATM   19  C   UNL     1     -11.564  11.538  68.078  1.00  0.00    -0.370 A  
HETATM   20  C   UNL     1     -12.195  11.107  70.365  1.00  0.00    -0.369 A  
ENDBRANCH   7  14
ENDBRANCH   6   7
ENDBRANCH   5   6
ENDBRANCH   4   5
ENDBRANCH   2   4
TORSDOF 6
ENDMDL
MODEL       20
REMARK 921   NORMALIZED FREE ENERGY PREDICTED BY IDOCK:   -5.41 KCAL/MOL
REMARK 922        TOTAL FREE ENERGY PREDICTED BY IDOCK:   -8.23 KCAL/MOL
REMARK 923 INTER-LIGAND FREE ENERGY PREDICTED BY IDOCK:   -7.13 KCAL/MOL
REMARK 924 INTRA-LIGAND FREE ENERGY PREDICTED BY IDOCK:   -1.10 KCAL/MOL
REMARK 927      BINDING AFFINITY PREDICTED BY RF-SCORE:    0.00 PKD
ROOT
HETATM    1  C   UNL     1     -10.394  11.804  63.778  1.00  0.00    -0.410 C  
HETATM    2  N   UNL     1     -11.493  12.713  63.446  1.00  0.00    -0.488 NA 
HETATM    3  C   UNL     1     -12.764  11.984  63.493  1.00  0.00    -0.443 C  
ENDROOT
BRANCH   2   4
HETATM    4  C   UNL     1     -11.486  13.878  64.357  1.00  0.00    -0.361 C  
BRANCH   4   5
HETATM    5  C   UNL     1     -12.533  13.781  65.478  1.00  0.00    -0.512 C  
BRANCH   5   6
HETATM    6  O   UNL     1     -11.991  14.243  66.721  1.00  0.00    -0.414 OA 
BRANCH   6   7
HETATM    7  C   UNL     1     -12.036  13.219  67.737  1.00  0.00    -0.314 C  
BRANCH   7   8
HETATM    8  C   UNL     1     -10.872  12.243  67.596  1.00  0.00    -0.262 A  
HETATM    9  C   UNL     1      -9.553  12.722  67.530  1.00  0.00    -0.192 A  
HETATM   10  C   UNL     1     -11.086  10.856  67.556  1.00  0.00    -0.375 A  
HETATM   11  C   UNL     1      -8.481  11.835  67.412  1.00  0.00    -0.158 A  
HETATM   12  C   UNL     1     -10.013   9.973  67.431  1.00  0.00    -0.242 A  
HETATM   13  C   UNL     1      -8.711  10.461  67.358  1.00  0.00    -0.125 A  
ENDBRANCH   7   8
BRANCH   7  14
HETATM   14  C   UNL     1     -12.072  13.855  69.123  1.00  0.00    -0.377 A  
HETATM   15  C   UNL     1     -11.893  15.845  70.518  1.00  0.00    -0.374 A  
HETATM   16  C   UNL     1     -12.489  13.727  71.520  1.00  0.00    -0.364 A  
HETATM   17  C   UNL     1     -11.820  15.231  69.265  1.00  0.00    -0.353 A  
HETATM   18 BR   UNL     1     -12.335  15.920  73.333  1.00  0.00    -0.702 Br 
HETATM   19  C   UNL     1     -12.410  13.113  70.268  1.00  0.00    -0.319 A  
HETATM   20  C   UNL     1     -12.228  15.089  71.639  1.00  0.00    -0.347 A  
ENDBRANCH   7  14
ENDBRANCH   6   7
ENDBRANCH   5   6
ENDBRANCH   4   5
ENDBRANCH   2   4
TORSDOF 6
ENDMDL
MODEL       21
REMARK 921   NORMALIZED FREE ENERGY PREDICTED BY IDOCK:   -5.39 KCAL/MOL
REMARK 922        TOTAL FREE ENERGY PREDICTED BY IDOCK:   -8.19 KCAL/MOL
REMARK 923 INTER-LIGAND FREE ENERGY PREDICTED BY IDOCK:   -7.55 KCAL/MOL
REMARK 924 INTRA-LIGAND FREE ENERGY PREDICTED BY IDOCK:   -0.65 KCAL/MOL
REMARK 927      BINDING AFFINITY PREDICTED BY RF-SCORE:    0.00 PKD
ROOT
HETATM    1  C   UNL     1     -12.974  10.275  71.294  1.00  0.00    -0.420 C  
HETATM    2  N   UNL     1     -11.692  10.713  70.739  1.00  0.00    -0.341 NA 
HETATM    3  C   UNL     1     -10.787   9.565  70.631  1.00  0.00    -0.306 C  
ENDROOT
BRANCH   2   4
HETATM    4  C   UNL     1     -11.900  11.383  69.437  1.00  0.00    -0.351 C  
BRANCH   4   5
HETATM    5  C   UNL     1     -11.718  12.908  69.500  1.00  0.00    -0.323 C  
BRANCH   5   6
HETATM    6  O   UNL     1     -12.148  13.521  68.278  1.00  0.00    -0.354 OA 
BRANCH   6   7
HETATM    7  C   UNL     1     -11.042  13.767  67.385  1.00  0.00    -0.296 C  
BRANCH   7   8
HETATM    8  C   UNL     1     -11.238  13.059  66.048  1.00  0.00    -0.320 A  
HETATM    9  C   UNL     1     -10.164  12.384  65.444  1.00  0.00    -0.302 A  
HETATM   10  C   UNL     1     -12.487  13.042  65.410  1.00  0.00    -0.531 A  
HETATM   11  C   UNL     1     -10.337  11.724  64.225  1.00  0.00    -0.359 A  
HETATM   12  C   UNL     1     -12.655  12.387  64.189  1.00  0.00    -0.498 A  
HETATM   13  C   UNL     1     -11.581  11.729  63.596  1.00  0.00    -0.521 A  
ENDBRANCH   7   8
BRANCH   7  14
HETATM   14  C   UNL     1     -10.837  15.267  67.203  1.00  0.00    -0.322 A  
HETATM   15  C   UNL     1     -10.764  17.502  68.170  1.00  0.00    -0.330 A  
HETATM   16  C   UNL     1     -10.205  17.185  65.840  1.00  0.00    -0.290 A  
HETATM   17  C   UNL     1     -10.991  16.130  68.303  1.00  0.00    -0.340 A  
HETATM   18 BR   UNL     1     -10.055  19.878  66.763  1.00  0.00    -0.621 Br 
HETATM   19  C   UNL     1     -10.438  15.814  65.971  1.00  0.00    -0.350 A  
HETATM   20  C   UNL     1     -10.371  18.022  66.940  1.00  0.00    -0.370 A  
ENDBRANCH   7  14
ENDBRANCH   6   7
ENDBRANCH   5   6
ENDBRANCH   4   5
ENDBRANCH   2   4
TORSDOF 6
ENDMDL
MODEL       22
REMARK 921   NORMALIZED FREE ENERGY PREDICTED BY IDOCK:   -5.38 KCAL/MOL
REMARK 922        TOTAL FREE ENERGY PREDICTED BY IDOCK:   -8.18 KCAL/MOL
REMARK 923 INTER-LIGAND FREE ENERGY PREDICTED BY IDOCK:   -8.05 KCAL/MOL
REMARK 924 INTRA-LIGAND FREE ENERGY PREDICTED BY IDOCK:   -0.13 KCAL/MOL
REMARK 927      BINDING AFFINITY PREDICTED BY RF-SCORE:    0.00 PKD
ROOT
HETATM    1  C   UNL     1     -14.045  15.648  72.443  1.00  0.00    -0.490 C  
HETATM    2  N   UNL     1     -12.650  15.960  72.762  1.00  0.00    -0.433 NA 
HETATM    3  C   UNL     1     -12.423  15.779  74.199  1.00  0.00    -0.655 C  
ENDROOT
BRANCH   2   4
HETATM    4  C   UNL     1     -11.741  15.127  71.946  1.00  0.00    -0.415 C  
BRANCH   4   5
HETATM    5  C   UNL     1     -11.929  15.322  70.433  1.00  0.00    -0.335 C  
BRANCH   5   6
HETATM    6  O   UNL     1     -12.573  14.182  69.850  1.00  0.00    -0.311 OA 
BRANCH   6   7
HETATM    7  C   UNL     1     -11.618  13.199  69.402  1.00  0.00    -0.300 C  
BRANCH   7   8
HETATM    8  C   UNL     1     -11.799  11.872  70.134  1.00  0.00    -0.390 A  
HETATM    9  C   UNL     1     -12.874  11.697  71.021  1.00  0.00    -0.339 A  
HETATM   10  C   UNL     1     -10.921  10.798  69.921  1.00  0.00    -0.304 A  
HETATM   11  C   UNL     1     -13.053  10.482  71.686  1.00  0.00    -0.551 A  
HETATM   12  C   UNL     1     -11.099   9.588  70.593  1.00  0.00    -0.364 A  
HETATM   13  C   UNL     1     -12.164   9.430  71.476  1.00  0.00    -0.448 A  
ENDBRANCH   7   8
BRANCH   7  14
HETATM   14  C   UNL     1     -11.712  13.025  67.890  1.00  0.00    -0.402 A  
HETATM   15  C   UNL     1     -11.297  11.668  65.909  1.00  0.00    -0.262 A  
HETATM   16  C   UNL     1     -12.493  13.758  65.702  1.00  0.00    -0.541 A  
HETATM   17  C   UNL     1     -11.181  11.871  67.287  1.00  0.00    -0.376 A  
HETATM   18 BR   UNL     1     -12.117  12.334  63.262  1.00  0.00    -0.417 Br 
HETATM   19  C   UNL     1     -12.373  13.963  67.078  1.00  0.00    -0.287 A  
HETATM   20  C   UNL     1     -11.953  12.613  65.125  1.00  0.00    -0.428 A  
ENDBRANCH   7  14
ENDBRANCH   6   7
ENDBRANCH   5   6
ENDBRANCH   4   5
ENDBRANCH   2   4
TORSDOF 6
ENDMDL
MODEL       23
REMARK 921   NORMALIZED FREE ENERGY PREDICTED BY IDOCK:   -5.38 KCAL/MOL
REMARK 922        TOTAL FREE ENERGY PREDICTED BY IDOCK:   -8.18 KCAL/MOL
REMARK 923 INTER-LIGAND FREE ENERGY PREDICTED BY IDOCK:   -7.21 KCAL/MOL
REMARK 924 INTRA-LIGAND FREE ENERGY PREDICTED BY IDOCK:   -0.96 KCAL/MOL
REMARK 927      BINDING AFFINITY PREDICTED BY RF-SCORE:    0.00 PKD
ROOT
HETATM    1  C   UNL     1      -8.778   8.892  70.683  1.00  0.00    -0.197 C  
HETATM    2  N   UNL     1     -10.064   9.172  70.040  1.00  0.00    -0.194 NA 
HETATM    3  C   UNL     1     -11.062   9.497  71.064  1.00  0.00    -0.363 C  
ENDROOT
BRANCH   2   4
HETATM    4  C   UNL     1      -9.914  10.256  69.046  1.00  0.00    -0.213 C  
BRANCH   4   5
HETATM    5  C   UNL     1     -11.024  10.267  67.983  1.00  0.00    -0.289 C  
BRANCH   5   6
HETATM    6  O   UNL     1     -11.903  11.381  68.178  1.00  0.00    -0.530 OA 
BRANCH   6   7
HETATM    7  C   UNL     1     -11.177  12.624  68.278  1.00  0.00    -0.272 C  
BRANCH   7   8
HETATM    8  C   UNL     1     -11.270  13.429  66.984  1.00  0.00    -0.328 A  
HETATM    9  C   UNL     1     -10.114  13.994  66.421  1.00  0.00    -0.299 A  
HETATM   10  C   UNL     1     -12.494  13.599  66.320  1.00  0.00    -0.420 A  
HETATM   11  C   UNL     1     -10.189  14.723  65.232  1.00  0.00    -0.415 A  
HETATM   12  C   UNL     1     -12.566  14.332  65.135  1.00  0.00    -0.384 A  
HETATM   13  C   UNL     1     -11.414  14.896  64.592  1.00  0.00    -0.380 A  
ENDBRANCH   7   8
BRANCH   7  14
HETATM   14  C   UNL     1     -11.671  13.427  69.476  1.00  0.00    -0.385 A  
HETATM   15  C   UNL     1     -12.830  13.491  71.619  1.00  0.00    -0.419 A  
HETATM   16  C   UNL     1     -11.779  15.492  70.764  1.00  0.00    -0.397 A  
HETATM   17  C   UNL     1     -12.406  12.786  70.489  1.00  0.00    -0.355 A  
HETATM   18 BR   UNL     1     -13.077  15.792  73.283  1.00  0.00    -0.714 Br 
HETATM   19  C   UNL     1     -11.360  14.789  69.632  1.00  0.00    -0.316 A  
HETATM   20  C   UNL     1     -12.512  14.840  71.750  1.00  0.00    -0.343 A  
ENDBRANCH   7  14
ENDBRANCH   6   7
ENDBRANCH   5   6
ENDBRANCH   4   5
ENDBRANCH   2   4
TORSDOF 6
ENDMDL
MODEL       24
REMARK 921   NORMALIZED FREE ENERGY PREDICTED BY IDOCK:   -5.35 KCAL/MOL
REMARK 922        TOTAL FREE ENERGY PREDICTED BY IDOCK:   -8.14 KCAL/MOL
REMARK 923 INTER-LIGAND FREE ENERGY PREDICTED BY IDOCK:   -7.46 KCAL/MOL
REMARK 924 INTRA-LIGAND FREE ENERGY PREDICTED BY IDOCK:   -0.68 KCAL/MOL
REMARK 927      BINDING AFFINITY PREDICTED BY RF-SCORE:    0.00 PKD
ROOT
HETATM    1  C   UNL     1     -11.384   9.814  70.932  1.00  0.00    -0.365 C  
HETATM    2  N   UNL     1     -12.445  10.675  70.403  1.00  0.00    -0.336 NA 
HETATM    3  C   UNL     1     -12.908  11.584  71.455  1.00  0.00    -0.380 C  
ENDROOT
BRANCH   2   4
HETATM    4  C   UNL     1     -11.963  11.403  69.210  1.00  0.00    -0.332 C  
BRANCH   4   5
HETATM    5  C   UNL     1     -11.725  12.901  69.464  1.00  0.00    -0.323 C  
BRANCH   5   6
HETATM    6  O   UNL     1     -12.081  13.675  68.313  1.00  0.00    -0.357 OA 
BRANCH   6   7
HETATM    7  C   UNL     1     -10.960  13.855  67.422  1.00  0.00    -0.288 C  
BRANCH   7   8
HETATM    8  C   UNL     1     -11.183  13.138  66.094  1.00  0.00    -0.320 A  
HETATM    9  C   UNL     1     -12.444  13.172  65.477  1.00  0.00    -0.516 A  
HETATM   10  C   UNL     1     -10.138  12.456  65.451  1.00  0.00    -0.289 A  
HETATM   11  C   UNL     1     -12.653  12.528  64.256  1.00  0.00    -0.485 A  
HETATM   12  C   UNL     1     -10.352  11.808  64.234  1.00  0.00    -0.359 A  
HETATM   13  C   UNL     1     -11.610  11.842  63.637  1.00  0.00    -0.521 A  
ENDBRANCH   7   8
BRANCH   7  14
HETATM   14  C   UNL     1     -10.682  15.340  67.220  1.00  0.00    -0.311 A  
HETATM   15  C   UNL     1     -10.096  17.176  65.729  1.00  0.00    -0.192 A  
HETATM   16  C   UNL     1     -10.635  17.634  68.041  1.00  0.00    -0.379 A  
HETATM   17  C   UNL     1     -10.311  15.813  65.949  1.00  0.00    -0.372 A  
HETATM   18 BR   UNL     1      -9.978  19.924  66.477  1.00  0.00    -0.630 Br 
HETATM   19  C   UNL     1     -10.844  16.271  68.262  1.00  0.00    -0.340 A  
HETATM   20  C   UNL     1     -10.261  18.079  66.777  1.00  0.00    -0.364 A  
ENDBRANCH   7  14
ENDBRANCH   6   7
ENDBRANCH   5   6
ENDBRANCH   4   5
ENDBRANCH   2   4
TORSDOF 6
ENDMDL
MODEL       25
REMARK 921   NORMALIZED FREE ENERGY PREDICTED BY IDOCK:   -5.34 KCAL/MOL
REMARK 922        TOTAL FREE ENERGY PREDICTED BY IDOCK:   -8.13 KCAL/MOL
REMARK 923 INTER-LIGAND FREE ENERGY PREDICTED BY IDOCK:   -7.50 KCAL/MOL
REMARK 924 INTRA-LIGAND FREE ENERGY PREDICTED BY IDOCK:   -0.62 KCAL/MOL
REMARK 927      BINDING AFFINITY PREDICTED BY RF-SCORE:    0.00 PKD
ROOT
HETATM    1  C   UNL     1     -13.656  13.292  72.214  1.00  0.00    -0.605 C  
HETATM    2  N   UNL     1     -13.397  14.633  71.686  1.00  0.00    -0.333 NA 
HETATM    3  C   UNL     1     -13.448  15.608  72.780  1.00  0.00    -0.574 C  
ENDROOT
BRANCH   2   4
HETATM    4  C   UNL     1     -12.099  14.661  70.977  1.00  0.00    -0.329 C  
BRANCH   4   5
HETATM    5  C   UNL     1     -11.984  13.594  69.876  1.00  0.00    -0.348 C  
BRANCH   5   6
HETATM    6  O   UNL     1     -12.148  14.182  68.580  1.00  0.00    -0.342 OA 
BRANCH   6   7
HETATM    7  C   UNL     1     -10.924  14.144  67.817  1.00  0.00    -0.262 C  
BRANCH   7   8
HETATM    8  C   UNL     1     -11.089  13.327  66.539  1.00  0.00    -0.313 A  
HETATM    9  C   UNL     1     -12.294  13.379  65.819  1.00  0.00    -0.513 A  
HETATM   10  C   UNL     1     -10.044  12.532  66.043  1.00  0.00    -0.268 A  
HETATM   11  C   UNL     1     -12.450  12.642  64.643  1.00  0.00    -0.538 A  
HETATM   12  C   UNL     1     -10.205  11.793  64.871  1.00  0.00    -0.315 A  
HETATM   13  C   UNL     1     -11.408  11.846  64.171  1.00  0.00    -0.455 A  
ENDBRANCH   7   8
BRANCH   7  14
HETATM   14  C   UNL     1     -10.445  15.561  67.520  1.00  0.00    -0.282 A  
HETATM   15  C   UNL     1     -10.377  17.919  68.132  1.00  0.00    -0.395 A  
HETATM   16  C   UNL     1      -9.098  17.135  66.237  1.00  0.00    -0.260 A  
HETATM   17  C   UNL     1     -10.840  16.620  68.357  1.00  0.00    -0.361 A  
HETATM   18 BR   UNL     1      -8.874  19.925  66.774  1.00  0.00    -0.447 Br 
HETATM   19  C   UNL     1      -9.565  15.837  66.459  1.00  0.00    -0.288 A  
HETATM   20  C   UNL     1      -9.507  18.168  67.074  1.00  0.00    -0.274 A  
ENDBRANCH   7  14
ENDBRANCH   6   7
ENDBRANCH   5   6
ENDBRANCH   4   5
ENDBRANCH   2   4
TORSDOF 6
ENDMDL
MODEL       26
REMARK 921   NORMALIZED FREE ENERGY PREDICTED BY IDOCK:   -5.33 KCAL/MOL
REMARK 922        TOTAL FREE ENERGY PREDICTED BY IDOCK:   -8.12 KCAL/MOL
REMARK 923 INTER-LIGAND FREE ENERGY PREDICTED BY IDOCK:   -7.47 KCAL/MOL
REMARK 924 INTRA-LIGAND FREE ENERGY PREDICTED BY IDOCK:   -0.65 KCAL/MOL
REMARK 927      BINDING AFFINITY PREDICTED BY RF-SCORE:    0.00 PKD
ROOT
HETATM    1  C   UNL     1     -10.974  15.859  65.347  1.00  0.00    -0.285 C  
HETATM    2  N   UNL     1     -10.270  16.316  66.548  1.00  0.00    -0.290 NA 
HETATM    3  C   UNL     1     -10.377  17.774  66.653  1.00  0.00    -0.345 C  
ENDROOT
BRANCH   2   4
HETATM    4  C   UNL     1     -10.805  15.632  67.745  1.00  0.00    -0.307 C  
BRANCH   4   5
HETATM    5  C   UNL     1     -11.628  14.377  67.413  1.00  0.00    -0.375 C  
BRANCH   5   6
HETATM    6  O   UNL     1     -12.515  14.051  68.490  1.00  0.00    -0.134 OA 
BRANCH   6   7
HETATM    7  C   UNL     1     -11.796  13.777  69.710  1.00  0.00    -0.331 C  
BRANCH   7   8
HETATM    8  C   UNL     1     -12.394  14.537  70.891  1.00  0.00    -0.415 A  
HETATM    9  C   UNL     1     -11.557  15.051  71.895  1.00  0.00    -0.426 A  
HETATM   10  C   UNL     1     -13.776  14.761  70.988  1.00  0.00    -0.322 A  
HETATM   11  C   UNL     1     -12.095  15.757  72.974  1.00  0.00    -0.601 A  
HETATM   12  C   UNL     1     -14.310  15.461  72.070  1.00  0.00    -0.653 A  
HETATM   13  C   UNL     1     -13.471  15.958  73.064  1.00  0.00    -0.653 A  
ENDBRANCH   7   8
BRANCH   7  14
HETATM   14  C   UNL     1     -11.755  12.275  69.970  1.00  0.00    -0.319 A  
HETATM   15  C   UNL     1     -10.781  10.094  69.488  1.00  0.00    -0.277 A  
HETATM   16  C   UNL     1     -12.446  10.307  71.228  1.00  0.00    -0.514 A  
HETATM   17  C   UNL     1     -10.870  11.466  69.236  1.00  0.00    -0.242 A  
HETATM   18 BR   UNL     1     -11.443   7.669  70.832  1.00  0.00    -0.298 Br 
HETATM   19  C   UNL     1     -12.538  11.677  70.972  1.00  0.00    -0.431 A  
HETATM   20  C   UNL     1     -11.569   9.523  70.484  1.00  0.00    -0.254 A  
ENDBRANCH   7  14
ENDBRANCH   6   7
ENDBRANCH   5   6
ENDBRANCH   4   5
ENDBRANCH   2   4
TORSDOF 6
ENDMDL
MODEL       27
REMARK 921   NORMALIZED FREE ENERGY PREDICTED BY IDOCK:   -5.29 KCAL/MOL
REMARK 922        TOTAL FREE ENERGY PREDICTED BY IDOCK:   -8.06 KCAL/MOL
REMARK 923 INTER-LIGAND FREE ENERGY PREDICTED BY IDOCK:   -7.16 KCAL/MOL
REMARK 924 INTRA-LIGAND FREE ENERGY PREDICTED BY IDOCK:   -0.90 KCAL/MOL
REMARK 927      BINDING AFFINITY PREDICTED BY RF-SCORE:    0.00 PKD
ROOT
HETATM    1  C   UNL     1     -13.269   9.612  71.849  1.00  0.00    -0.446 C  
HETATM    2  N   UNL     1     -11.987  10.109  71.344  1.00  0.00    -0.374 NA 
HETATM    3  C   UNL     1     -11.302   9.040  70.612  1.00  0.00    -0.265 C  
ENDROOT
BRANCH   2   4
HETATM    4  C   UNL     1     -12.198  11.310  70.507  1.00  0.00    -0.383 C  
BRANCH   4   5
HETATM    5  C   UNL     1     -11.839  11.093  69.028  1.00  0.00    -0.348 C  
BRANCH   5   6
HETATM    6  O   UNL     1     -12.178  12.247  68.249  1.00  0.00    -0.315 OA 
BRANCH   6   7
HETATM    7  C   UNL     1     -11.074  12.682  67.430  1.00  0.00    -0.273 C  
BRANCH   7   8
HETATM    8  C   UNL     1     -11.302  12.341  65.960  1.00  0.00    -0.398 A  
HETATM    9  C   UNL     1     -12.408  12.873  65.277  1.00  0.00    -0.544 A  
HETATM   10  C   UNL     1     -10.408  11.519  65.257  1.00  0.00    -0.322 A  
HETATM   11  C   UNL     1     -12.618  12.574  63.928  1.00  0.00    -0.485 A  
HETATM   12  C   UNL     1     -10.625  11.219  63.911  1.00  0.00    -0.455 A  
HETATM   13  C   UNL     1     -11.730  11.744  63.247  1.00  0.00    -0.340 A  
ENDBRANCH   7   8
BRANCH   7  14
HETATM   14  C   UNL     1     -10.826  14.173  67.630  1.00  0.00    -0.266 A  
HETATM   15  C   UNL     1     -11.390  16.255  68.765  1.00  0.00    -0.329 A  
HETATM   16  C   UNL     1      -9.534  16.197  67.217  1.00  0.00    -0.231 A  
HETATM   17  C   UNL     1     -11.627  14.898  68.531  1.00  0.00    -0.347 A  
HETATM   18 BR   UNL     1     -10.017  18.730  68.430  1.00  0.00    -0.461 Br 
HETATM   19  C   UNL     1      -9.775  14.842  66.979  1.00  0.00    -0.242 A  
HETATM   20  C   UNL     1     -10.343  16.896  68.107  1.00  0.00    -0.336 A  
ENDBRANCH   7  14
ENDBRANCH   6   7
ENDBRANCH   5   6
ENDBRANCH   4   5
ENDBRANCH   2   4
TORSDOF 6
ENDMDL
MODEL       28
REMARK 921   NORMALIZED FREE ENERGY PREDICTED BY IDOCK:   -5.29 KCAL/MOL
REMARK 922        TOTAL FREE ENERGY PREDICTED BY IDOCK:   -8.05 KCAL/MOL
REMARK 923 INTER-LIGAND FREE ENERGY PREDICTED BY IDOCK:   -7.16 KCAL/MOL
REMARK 924 INTRA-LIGAND FREE ENERGY PREDICTED BY IDOCK:   -0.90 KCAL/MOL
REMARK 927      BINDING AFFINITY PREDICTED BY RF-SCORE:    0.00 PKD
ROOT
HETATM    1  C   UNL     1     -12.395  12.234  63.491  1.00  0.00    -0.565 C  
HETATM    2  N   UNL     1     -11.114  12.123  64.191  1.00  0.00    -0.334 NA 
HETATM    3  C   UNL     1     -10.137  11.461  63.321  1.00  0.00    -0.387 C  
ENDROOT
BRANCH   2   4
HETATM    4  C   UNL     1     -10.654  13.458  64.630  1.00  0.00    -0.415 C  
BRANCH   4   5
HETATM    5  C   UNL     1     -11.799  14.464  64.822  1.00  0.00    -0.433 C  
BRANCH   5   6
HETATM    6  O   UNL     1     -12.152  14.575  66.206  1.00  0.00    -0.377 OA 
BRANCH   6   7
HETATM    7  C   UNL     1     -11.048  14.230  67.069  1.00  0.00    -0.312 C  
BRANCH   7   8
HETATM    8  C   UNL     1     -10.371  15.476  67.631  1.00  0.00    -0.269 A  
HETATM    9  C   UNL     1      -9.092  15.384  68.206  1.00  0.00    -0.187 A  
HETATM   10  C   UNL     1     -10.990  16.734  67.565  1.00  0.00    -0.134 A  
HETATM   11  C   UNL     1      -8.460  16.522  68.713  1.00  0.00    -0.248 A  
HETATM   12  C   UNL     1     -10.358  17.867  68.078  1.00  0.00    -0.394 A  
HETATM   13  C   UNL     1      -9.094  17.762  68.654  1.00  0.00    -0.262 A  
ENDBRANCH   7   8
BRANCH   7  14
HETATM   14  C   UNL     1     -11.520  13.296  68.178  1.00  0.00    -0.347 A  
HETATM   15  C   UNL     1     -11.904  11.028  68.983  1.00  0.00    -0.399 A  
HETATM   16  C   UNL     1     -12.282  12.905  70.459  1.00  0.00    -0.395 A  
HETATM   17  C   UNL     1     -11.520  11.906  67.966  1.00  0.00    -0.389 A  
HETATM   18 BR   UNL     1     -12.793  10.346  71.604  1.00  0.00    -0.585 Br 
HETATM   19  C   UNL     1     -11.903  13.782  69.440  1.00  0.00    -0.392 A  
HETATM   20  C   UNL     1     -12.281  11.534  70.225  1.00  0.00    -0.332 A  
ENDBRANCH   7  14
ENDBRANCH   6   7
ENDBRANCH   5   6
ENDBRANCH   4   5
ENDBRANCH   2   4
TORSDOF 6
ENDMDL
MODEL       29
REMARK 921   NORMALIZED FREE ENERGY PREDICTED BY IDOCK:   -5.25 KCAL/MOL
REMARK 922        TOTAL FREE ENERGY PREDICTED BY IDOCK:   -8.01 KCAL/MOL
REMARK 923 INTER-LIGAND FREE ENERGY PREDICTED BY IDOCK:   -7.13 KCAL/MOL
REMARK 924 INTRA-LIGAND FREE ENERGY PREDICTED BY IDOCK:   -0.88 KCAL/MOL
REMARK 927      BINDING AFFINITY PREDICTED BY RF-SCORE:    0.00 PKD
ROOT
HETATM    1  C   UNL     1      -6.831  13.451  67.646  1.00  0.00    -0.165 C  
HETATM    2  N   UNL     1      -6.875  14.721  68.373  1.00  0.00    -0.097 NA 
HETATM    3  C   UNL     1      -6.649  15.828  67.439  1.00  0.00    -0.180 C  
ENDROOT
BRANCH   2   4
HETATM    4  C   UNL     1      -8.160  14.854  69.093  1.00  0.00    -0.160 C  
BRANCH   4   5
HETATM    5  C   UNL     1      -9.167  15.770  68.380  1.00  0.00    -0.192 C  
BRANCH   5   6
HETATM    6  O   UNL     1     -10.454  15.695  69.005  1.00  0.00    -0.209 OA 
BRANCH   6   7
HETATM    7  C   UNL     1     -10.882  14.330  69.185  1.00  0.00    -0.242 C  
BRANCH   7   8
HETATM    8  C   UNL     1     -11.999  14.228  70.219  1.00  0.00    -0.398 A  
HETATM    9  C   UNL     1     -12.336  12.982  70.772  1.00  0.00    -0.394 A  
HETATM   10  C   UNL     1     -12.692  15.367  70.657  1.00  0.00    -0.490 A  
HETATM   11  C   UNL     1     -13.350  12.881  71.728  1.00  0.00    -0.451 A  
HETATM   12  C   UNL     1     -13.708  15.262  71.607  1.00  0.00    -0.600 A  
HETATM   13  C   UNL     1     -14.039  14.020  72.142  1.00  0.00    -0.641 A  
ENDBRANCH   7   8
BRANCH   7  14
HETATM   14  C   UNL     1     -11.298  13.729  67.846  1.00  0.00    -0.328 A  
HETATM   15  C   UNL     1     -12.492  13.950  65.733  1.00  0.00    -0.530 A  
HETATM   16  C   UNL     1     -11.171  11.971  66.164  1.00  0.00    -0.394 A  
HETATM   17  C   UNL     1     -12.135  14.460  66.984  1.00  0.00    -0.374 A  
HETATM   18 BR   UNL     1     -12.483  12.022  63.634  1.00  0.00    -0.569 Br 
HETATM   19  C   UNL     1     -10.819  12.479  67.416  1.00  0.00    -0.272 A  
HETATM   20  C   UNL     1     -12.007  12.708  65.330  1.00  0.00    -0.446 A  
ENDBRANCH   7  14
ENDBRANCH   6   7
ENDBRANCH   5   6
ENDBRANCH   4   5
ENDBRANCH   2   4
TORSDOF 6
ENDMDL
MODEL       30
REMARK 921   NORMALIZED FREE ENERGY PREDICTED BY IDOCK:   -5.23 KCAL/MOL
REMARK 922        TOTAL FREE ENERGY PREDICTED BY IDOCK:   -7.97 KCAL/MOL
REMARK 923 INTER-LIGAND FREE ENERGY PREDICTED BY IDOCK:   -7.09 KCAL/MOL
REMARK 924 INTRA-LIGAND FREE ENERGY PREDICTED BY IDOCK:   -0.89 KCAL/MOL
REMARK 927      BINDING AFFINITY PREDICTED BY RF-SCORE:    0.00 PKD
ROOT
HETATM    1  C   UNL     1     -10.366  12.114  64.698  1.00  0.00    -0.297 C  
HETATM    2  N   UNL     1     -11.357  12.830  63.892  1.00  0.00    -0.411 NA 
HETATM    3  C   UNL     1     -12.533  11.978  63.691  1.00  0.00    -0.525 C  
ENDROOT
BRANCH   2   4
HETATM    4  C   UNL     1     -11.706  14.116  64.534  1.00  0.00    -0.413 C  
BRANCH   4   5
HETATM    5  C   UNL     1     -12.518  13.951  65.829  1.00  0.00    -0.495 C  
BRANCH   5   6
HETATM    6  O   UNL     1     -12.108  14.909  66.812  1.00  0.00    -0.210 OA 
BRANCH   6   7
HETATM    7  C   UNL     1     -11.111  14.368  67.703  1.00  0.00    -0.300 C  
BRANCH   7   8
HETATM    8  C   UNL     1      -9.729  14.945  67.409  1.00  0.00    -0.217 A  
HETATM    9  C   UNL     1      -8.577  14.265  67.834  1.00  0.00    -0.171 A  
HETATM   10  C   UNL     1      -9.578  16.142  66.693  1.00  0.00    -0.263 A  
HETATM   11  C   UNL     1      -7.308  14.780  67.560  1.00  0.00    -0.225 A  
HETATM   12  C   UNL     1      -8.309  16.658  66.426  1.00  0.00    -0.353 A  
HETATM   13  C   UNL     1      -7.174  15.978  66.860  1.00  0.00    -0.212 A  
ENDBRANCH   7   8
BRANCH   7  14
HETATM   14  C   UNL     1     -11.521  14.599  69.153  1.00  0.00    -0.320 A  
HETATM   15  C   UNL     1     -11.658  16.088  71.078  1.00  0.00    -0.472 A  
HETATM   16  C   UNL     1     -12.632  13.879  71.198  1.00  0.00    -0.446 A  
HETATM   17  C   UNL     1     -11.251  15.836  69.765  1.00  0.00    -0.330 A  
HETATM   18 BR   UNL     1     -12.906  15.451  73.560  1.00  0.00    -0.704 Br 
HETATM   19  C   UNL     1     -12.220  13.626  69.888  1.00  0.00    -0.367 A  
HETATM   20  C   UNL     1     -12.347  15.108  71.786  1.00  0.00    -0.354 A  
ENDBRANCH   7  14
ENDBRANCH   6   7
ENDBRANCH   5   6
ENDBRANCH   4   5
ENDBRANCH   2   4
TORSDOF 6
ENDMDL
MODEL       31
REMARK 921   NORMALIZED FREE ENERGY PREDICTED BY IDOCK:   -5.22 KCAL/MOL
REMARK 922        TOTAL FREE ENERGY PREDICTED BY IDOCK:   -7.97 KCAL/MOL
REMARK 923 INTER-LIGAND FREE ENERGY PREDICTED BY IDOCK:   -7.26 KCAL/MOL
REMARK 924 INTRA-LIGAND FREE ENERGY PREDICTED BY IDOCK:   -0.71 KCAL/MOL
REMARK 927      BINDING AFFINITY PREDICTED BY RF-SCORE:    0.00 PKD
ROOT
HETATM    1  C   UNL     1     -10.707   7.199  69.496  1.00  0.00    -0.239 C  
HETATM    2  N   UNL     1     -10.237   8.207  68.543  1.00  0.00    -0.204 NA 
HETATM    3  C   UNL     1     -10.596   7.799  67.182  1.00  0.00    -0.331 C  
ENDROOT
BRANCH   2   4
HETATM    4  C   UNL     1     -10.788   9.534  68.890  1.00  0.00    -0.150 C  
BRANCH   4   5
HETATM    5  C   UNL     1     -11.151  10.384  67.661  1.00  0.00    -0.293 C  
BRANCH   5   6
HETATM    6  O   UNL     1     -12.001  11.476  68.032  1.00  0.00    -0.595 OA 
BRANCH   6   7
HETATM    7  C   UNL     1     -11.248  12.683  68.269  1.00  0.00    -0.272 C  
BRANCH   7   8
HETATM    8  C   UNL     1     -11.171  13.547  67.014  1.00  0.00    -0.330 A  
HETATM    9  C   UNL     1     -12.245  13.573  66.109  1.00  0.00    -0.484 A  
HETATM   10  C   UNL     1     -10.050  14.348  66.749  1.00  0.00    -0.266 A  
HETATM   11  C   UNL     1     -12.187  14.370  64.963  1.00  0.00    -0.418 A  
HETATM   12  C   UNL     1      -9.993  15.138  65.600  1.00  0.00    -0.387 A  
HETATM   13  C   UNL     1     -11.060  15.148  64.706  1.00  0.00    -0.395 A  
ENDBRANCH   7   8
BRANCH   7  14
HETATM   14  C   UNL     1     -11.842  13.451  69.445  1.00  0.00    -0.390 A  
HETATM   15  C   UNL     1     -12.803  13.435  71.684  1.00  0.00    -0.414 A  
HETATM   16  C   UNL     1     -12.395  15.540  70.570  1.00  0.00    -0.461 A  
HETATM   17  C   UNL     1     -12.297  12.750  70.576  1.00  0.00    -0.355 A  
HETATM   18 BR   UNL     1     -13.523  15.753  73.178  1.00  0.00    -0.581 Br 
HETATM   19  C   UNL     1     -11.895  14.855  69.460  1.00  0.00    -0.360 A  
HETATM   20  C   UNL     1     -12.847  14.826  71.675  1.00  0.00    -0.332 A  
ENDBRANCH   7  14
ENDBRANCH   6   7
ENDBRANCH   5   6
ENDBRANCH   4   5
ENDBRANCH   2   4
TORSDOF 6
ENDMDL
MODEL       32
REMARK 921   NORMALIZED FREE ENERGY PREDICTED BY IDOCK:   -5.18 KCAL/MOL
REMARK 922        TOTAL FREE ENERGY PREDICTED BY IDOCK:   -7.91 KCAL/MOL
REMARK 923 INTER-LIGAND FREE ENERGY PREDICTED BY IDOCK:   -7.27 KCAL/MOL
REMARK 924 INTRA-LIGAND FREE ENERGY PREDICTED BY IDOCK:   -0.65 KCAL/MOL
REMARK 927      BINDING AFFINITY PREDICTED BY RF-SCORE:    0.00 PKD
ROOT
HETATM    1  C   UNL     1     -10.113  11.166  63.334  1.00  0.00    -0.390 C  
HETATM    2  N   UNL     1     -10.909  12.301  63.806  1.00  0.00    -0.402 NA 
HETATM    3  C   UNL     1     -12.318  12.089  63.458  1.00  0.00    -0.551 C  
ENDROOT
BRANCH   2   4
HETATM    4  C   UNL     1     -10.717  12.491  65.260  1.00  0.00    -0.286 C  
BRANCH   4   5
HETATM    5  C   UNL     1     -12.019  12.816  66.009  1.00  0.00    -0.432 C  
BRANCH   5   6
HETATM    6  O   UNL     1     -12.136  12.019  67.194  1.00  0.00    -0.587 OA 
BRANCH   6   7
HETATM    7  C   UNL     1     -11.002  12.193  68.069  1.00  0.00    -0.229 C  
BRANCH   7   8
HETATM    8  C   UNL     1     -10.963  13.600  68.658  1.00  0.00    -0.290 A  
HETATM    9  C   UNL     1     -12.107  14.143  69.265  1.00  0.00    -0.364 A  
HETATM   10  C   UNL     1      -9.788  14.368  68.630  1.00  0.00    -0.231 A  
HETATM   11  C   UNL     1     -12.077  15.426  69.816  1.00  0.00    -0.373 A  
HETATM   12  C   UNL     1      -9.763  15.652  69.176  1.00  0.00    -0.249 A  
HETATM   13  C   UNL     1     -10.907  16.182  69.767  1.00  0.00    -0.333 A  
ENDBRANCH   7   8
BRANCH   7  14
HETATM   14  C   UNL     1     -11.011  11.127  69.159  1.00  0.00    -0.295 A  
HETATM   15  C   UNL     1      -9.804   9.470  70.476  1.00  0.00    -0.331 A  
HETATM   16  C   UNL     1     -12.128   9.924  70.960  1.00  0.00    -0.450 A  
HETATM   17  C   UNL     1      -9.832  10.419  69.451  1.00  0.00    -0.235 A  
HETATM   18 BR   UNL     1     -10.912   7.951  72.619  1.00  0.00    -0.460 Br 
HETATM   19  C   UNL     1     -12.157  10.869  69.931  1.00  0.00    -0.428 A  
HETATM   20  C   UNL     1     -10.952   9.229  71.226  1.00  0.00    -0.351 A  
ENDBRANCH   7  14
ENDBRANCH   6   7
ENDBRANCH   5   6
ENDBRANCH   4   5
ENDBRANCH   2   4
TORSDOF 6
ENDMDL
MODEL       33
REMARK 921   NORMALIZED FREE ENERGY PREDICTED BY IDOCK:   -5.15 KCAL/MOL
REMARK 922        TOTAL FREE ENERGY PREDICTED BY IDOCK:   -7.87 KCAL/MOL
REMARK 923 INTER-LIGAND FREE ENERGY PREDICTED BY IDOCK:   -7.34 KCAL/MOL
REMARK 924 INTRA-LIGAND FREE ENERGY PREDICTED BY IDOCK:   -0.53 KCAL/MOL
REMARK 927      BINDING AFFINITY PREDICTED BY RF-SCORE:    0.00 PKD
ROOT
HETATM    1  C   UNL     1      -8.260  18.207  67.125  1.00  0.00    -0.229 C  
HETATM    2  N   UNL     1      -9.165  18.896  68.048  1.00  0.00    -0.298 NA 
HETATM    3  C   UNL     1      -9.912  19.927  67.322  1.00  0.00    -0.421 C  
ENDROOT
BRANCH   2   4
HETATM    4  C   UNL     1     -10.059  17.922  68.709  1.00  0.00    -0.384 C  
BRANCH   4   5
HETATM    5  C   UNL     1     -10.643  16.877  67.745  1.00  0.00    -0.340 C  
BRANCH   5   6
HETATM    6  O   UNL     1     -11.649  16.092  68.394  1.00  0.00    -0.364 OA 
BRANCH   6   7
HETATM    7  C   UNL     1     -11.093  15.268  69.440  1.00  0.00    -0.280 C  
BRANCH   7   8
HETATM    8  C   UNL     1     -11.923  15.352  70.717  1.00  0.00    -0.402 A  
HETATM    9  C   UNL     1     -11.291  15.514  71.960  1.00  0.00    -0.445 A  
HETATM   10  C   UNL     1     -13.325  15.297  70.678  1.00  0.00    -0.320 A  
HETATM   11  C   UNL     1     -12.045  15.603  73.133  1.00  0.00    -0.598 A  
HETATM   12  C   UNL     1     -14.075  15.380  71.852  1.00  0.00    -0.636 A  
HETATM   13  C   UNL     1     -13.435  15.531  73.080  1.00  0.00    -0.632 A  
ENDBRANCH   7   8
BRANCH   7  14
HETATM   14  C   UNL     1     -10.949  13.830  68.956  1.00  0.00    -0.277 A  
HETATM   15  C   UNL     1      -9.645  12.135  67.787  1.00  0.00    -0.195 A  
HETATM   16  C   UNL     1     -11.709  11.516  68.881  1.00  0.00    -0.403 A  
HETATM   17  C   UNL     1      -9.821  13.458  68.203  1.00  0.00    -0.234 A  
HETATM   18 BR   UNL     1     -10.347   9.381  67.575  1.00  0.00    -0.333 Br 
HETATM   19  C   UNL     1     -11.888  12.839  69.292  1.00  0.00    -0.358 A  
HETATM   20  C   UNL     1     -10.590  11.172  68.130  1.00  0.00    -0.193 A  
ENDBRANCH   7  14
ENDBRANCH   6   7
ENDBRANCH   5   6
ENDBRANCH   4   5
ENDBRANCH   2   4
TORSDOF 6
ENDMDL
MODEL       34
REMARK 921   NORMALIZED FREE ENERGY PREDICTED BY IDOCK:   -5.13 KCAL/MOL
REMARK 922        TOTAL FREE ENERGY PREDICTED BY IDOCK:   -7.84 KCAL/MOL
REMARK 923 INTER-LIGAND FREE ENERGY PREDICTED BY IDOCK:   -7.12 KCAL/MOL
REMARK 924 INTRA-LIGAND FREE ENERGY PREDICTED BY IDOCK:   -0.72 KCAL/MOL
REMARK 927      BINDING AFFINITY PREDICTED BY RF-SCORE:    0.00 PKD
ROOT
HETATM    1  C   UNL     1     -10.067  10.623  65.197  1.00  0.00    -0.307 C  
HETATM    2  N   UNL     1     -10.000   9.253  65.712  1.00  0.00    -0.250 NA 
HETATM    3  C   UNL     1      -8.679   8.687  65.425  1.00  0.00    -0.174 C  
ENDROOT
BRANCH   2   4
HETATM    4  C   UNL     1     -10.311   9.234  67.157  1.00  0.00    -0.260 C  
BRANCH   4   5
HETATM    5  C   UNL     1     -10.950  10.539  67.660  1.00  0.00    -0.314 C  
BRANCH   5   6
HETATM    6  O   UNL     1     -10.634  10.760  69.040  1.00  0.00    -0.195 OA 
BRANCH   6   7
HETATM    7  C   UNL     1     -11.754  10.462  69.899  1.00  0.00    -0.264 C  
BRANCH   7   8
HETATM    8  C   UNL     1     -11.421   9.344  70.881  1.00  0.00    -0.382 A  
HETATM    9  C   UNL     1     -10.140   9.265  71.452  1.00  0.00    -0.348 A  
HETATM   10  C   UNL     1     -12.383   8.392  71.254  1.00  0.00    -0.289 A  
HETATM   11  C   UNL     1      -9.830   8.250  72.361  1.00  0.00    -0.375 A  
HETATM   12  C   UNL     1     -12.068   7.376  72.157  1.00  0.00    -0.289 A  
HETATM   13  C   UNL     1     -10.792   7.304  72.710  1.00  0.00    -0.356 A  
ENDBRANCH   7   8
BRANCH   7  14
HETATM   14  C   UNL     1     -12.215  11.725  70.619  1.00  0.00    -0.443 A  
HETATM   15  C   UNL     1     -12.253  14.157  70.762  1.00  0.00    -0.435 A  
HETATM   16  C   UNL     1     -13.542  12.844  72.329  1.00  0.00    -0.611 A  
HETATM   17  C   UNL     1     -11.807  12.985  70.147  1.00  0.00    -0.324 A  
HETATM   18 BR   UNL     1     -13.730  15.666  72.678  1.00  0.00    -0.625 Br 
HETATM   19  C   UNL     1     -13.091  11.672  71.717  1.00  0.00    -0.487 A  
HETATM   20  C   UNL     1     -13.119  14.079  71.850  1.00  0.00    -0.386 A  
ENDBRANCH   7  14
ENDBRANCH   6   7
ENDBRANCH   5   6
ENDBRANCH   4   5
ENDBRANCH   2   4
TORSDOF 6
ENDMDL
MODEL       35
REMARK 921   NORMALIZED FREE ENERGY PREDICTED BY IDOCK:   -5.11 KCAL/MOL
REMARK 922        TOTAL FREE ENERGY PREDICTED BY IDOCK:   -7.81 KCAL/MOL
REMARK 923 INTER-LIGAND FREE ENERGY PREDICTED BY IDOCK:   -7.13 KCAL/MOL
REMARK 924 INTRA-LIGAND FREE ENERGY PREDICTED BY IDOCK:   -0.69 KCAL/MOL
REMARK 927      BINDING AFFINITY PREDICTED BY RF-SCORE:    0.00 PKD
ROOT
HETATM    1  C   UNL     1     -13.831   8.973  72.236  1.00  0.00    -0.484 C  
HETATM    2  N   UNL     1     -12.495   8.372  72.251  1.00  0.00    -0.361 NA 
HETATM    3  C   UNL     1     -12.541   7.059  71.601  1.00  0.00    -0.380 C  
ENDROOT
BRANCH   2   4
HETATM    4  C   UNL     1     -11.520   9.278  71.607  1.00  0.00    -0.398 C  
BRANCH   4   5
HETATM    5  C   UNL     1     -12.175  10.480  70.907  1.00  0.00    -0.388 C  
BRANCH   5   6
HETATM    6  O   UNL     1     -11.265  11.087  69.982  1.00  0.00    -0.273 OA 
BRANCH   6   7
HETATM    7  C   UNL     1     -11.925  12.053  69.138  1.00  0.00    -0.268 C  
BRANCH   7   8
HETATM    8  C   UNL     1     -11.731  13.473  69.659  1.00  0.00    -0.378 A  
HETATM    9  C   UNL     1     -12.686  14.047  70.514  1.00  0.00    -0.347 A  
HETATM   10  C   UNL     1     -10.594  14.223  69.321  1.00  0.00    -0.160 A  
HETATM   11  C   UNL     1     -12.510  15.343  71.005  1.00  0.00    -0.469 A  
HETATM   12  C   UNL     1     -10.425  15.520  69.809  1.00  0.00    -0.308 A  
HETATM   13  C   UNL     1     -11.383  16.081  70.649  1.00  0.00    -0.424 A  
ENDBRANCH   7   8
BRANCH   7  14
HETATM   14  C   UNL     1     -11.442  11.911  67.698  1.00  0.00    -0.387 A  
HETATM   15  C   UNL     1     -10.052  10.760  66.061  1.00  0.00    -0.305 A  
HETATM   16  C   UNL     1     -11.560  12.505  65.339  1.00  0.00    -0.416 A  
HETATM   17  C   UNL     1     -10.476  10.940  67.380  1.00  0.00    -0.263 A  
HETATM   18 BR   UNL     1     -10.030  11.294  63.261  1.00  0.00    -0.441 Br 
HETATM   19  C   UNL     1     -11.980  12.688  66.658  1.00  0.00    -0.382 A  
HETATM   20  C   UNL     1     -10.597  11.543  65.048  1.00  0.00    -0.297 A  
ENDBRANCH   7  14
ENDBRANCH   6   7
ENDBRANCH   5   6
ENDBRANCH   4   5
ENDBRANCH   2   4
TORSDOF 6
ENDMDL
MODEL       36
REMARK 921   NORMALIZED FREE ENERGY PREDICTED BY IDOCK:   -5.08 KCAL/MOL
REMARK 922        TOTAL FREE ENERGY PREDICTED BY IDOCK:   -7.78 KCAL/MOL
REMARK 923 INTER-LIGAND FREE ENERGY PREDICTED BY IDOCK:   -6.82 KCAL/MOL
REMARK 924 INTRA-LIGAND FREE ENERGY PREDICTED BY IDOCK:   -0.95 KCAL/MOL
REMARK 927      BINDING AFFINITY PREDICTED BY RF-SCORE:    0.00 PKD
ROOT
HETATM    1  C   UNL     1     -10.846   7.083  67.323  1.00  0.00    -0.333 C  
HETATM    2  N   UNL     1      -9.645   7.632  67.956  1.00  0.00    -0.143 NA 
HETATM    3  C   UNL     1      -8.510   6.737  67.713  1.00  0.00    -0.122 C  
ENDROOT
BRANCH   2   4
HETATM    4  C   UNL     1      -9.389   9.003  67.463  1.00  0.00    -0.135 C  
BRANCH   4   5
HETATM    5  C   UNL     1     -10.548   9.975  67.733  1.00  0.00    -0.261 C  
BRANCH   5   6
HETATM    6  O   UNL     1     -10.455  10.523  69.054  1.00  0.00    -0.191 OA 
BRANCH   6   7
HETATM    7  C   UNL     1     -11.624  10.219  69.843  1.00  0.00    -0.256 C  
BRANCH   7   8
HETATM    8  C   UNL     1     -11.336   9.126  70.868  1.00  0.00    -0.359 A  
HETATM    9  C   UNL     1     -12.285   8.121  71.113  1.00  0.00    -0.257 A  
HETATM   10  C   UNL     1     -10.117   9.084  71.563  1.00  0.00    -0.409 A  
HETATM   11  C   UNL     1     -12.025   7.111  72.041  1.00  0.00    -0.332 A  
HETATM   12  C   UNL     1      -9.863   8.077  72.495  1.00  0.00    -0.330 A  
HETATM   13  C   UNL     1     -10.817   7.091  72.735  1.00  0.00    -0.321 A  
ENDBRANCH   7   8
BRANCH   7  14
HETATM   14  C   UNL     1     -12.155  11.486  70.505  1.00  0.00    -0.472 A  
HETATM   15  C   UNL     1     -12.439  13.906  70.468  1.00  0.00    -0.422 A  
HETATM   16  C   UNL     1     -13.446  12.607  72.240  1.00  0.00    -0.541 A  
HETATM   17  C   UNL     1     -11.924  12.736  69.904  1.00  0.00    -0.368 A  
HETATM   18 BR   UNL     1     -13.904  15.416  72.391  1.00  0.00    -0.675 Br 
HETATM   19  C   UNL     1     -12.926  11.438  71.679  1.00  0.00    -0.523 A  
HETATM   20  C   UNL     1     -13.199  13.834  71.632  1.00  0.00    -0.371 A  
ENDBRANCH   7  14
ENDBRANCH   6   7
ENDBRANCH   5   6
ENDBRANCH   4   5
ENDBRANCH   2   4
TORSDOF 6
ENDMDL
MODEL       37
REMARK 921   NORMALIZED FREE ENERGY PREDICTED BY IDOCK:   -5.05 KCAL/MOL
REMARK 922        TOTAL FREE ENERGY PREDICTED BY IDOCK:   -7.74 KCAL/MOL
REMARK 923 INTER-LIGAND FREE ENERGY PREDICTED BY IDOCK:   -6.69 KCAL/MOL
REMARK 924 INTRA-LIGAND FREE ENERGY PREDICTED BY IDOCK:   -1.05 KCAL/MOL
REMARK 927      BINDING AFFINITY PREDICTED BY RF-SCORE:    0.00 PKD
ROOT
HETATM    1  C   UNL     1     -10.530  13.910  64.728  1.00  0.00    -0.429 C  
HETATM    2  N   UNL     1     -11.950  13.761  64.401  1.00  0.00    -0.426 NA 
HETATM    3  C   UNL     1     -12.144  12.542  63.611  1.00  0.00    -0.554 C  
ENDROOT
BRANCH   2   4
HETATM    4  C   UNL     1     -12.761  13.759  65.637  1.00  0.00    -0.478 C  
BRANCH   4   5
HETATM    5  C   UNL     1     -11.919  13.664  66.920  1.00  0.00    -0.410 C  
BRANCH   5   6
HETATM    6  O   UNL     1     -12.124  12.404  67.570  1.00  0.00    -0.491 OA 
BRANCH   6   7
HETATM    7  C   UNL     1     -10.932  11.950  68.245  1.00  0.00    -0.230 C  
BRANCH   7   8
HETATM    8  C   UNL     1     -11.270  11.045  69.425  1.00  0.00    -0.332 A  
HETATM    9  C   UNL     1     -12.525  11.139  70.049  1.00  0.00    -0.292 A  
HETATM   10  C   UNL     1     -10.356  10.089  69.894  1.00  0.00    -0.315 A  
HETATM   11  C   UNL     1     -12.847  10.306  71.124  1.00  0.00    -0.504 A  
HETATM   12  C   UNL     1     -10.678   9.263  70.972  1.00  0.00    -0.387 A  
HETATM   13  C   UNL     1     -11.922   9.372  71.588  1.00  0.00    -0.465 A  
ENDBRANCH   7   8
BRANCH   7  14
HETATM   14  C   UNL     1      -9.999  11.260  67.255  1.00  0.00    -0.208 A  
HETATM   15  C   UNL     1      -9.699   9.770  65.350  1.00  0.00    -0.383 A  
HETATM   16  C   UNL     1      -7.790  10.920  66.285  1.00  0.00    -0.158 A  
HETATM   17  C   UNL     1     -10.529  10.379  66.296  1.00  0.00    -0.229 A  
HETATM   18 BR   UNL     1      -7.214   9.229  64.065  1.00  0.00    -0.101 Br 
HETATM   19  C   UNL     1      -8.619  11.524  67.234  1.00  0.00    -0.150 A  
HETATM   20  C   UNL     1      -8.335  10.046  65.350  1.00  0.00    -0.151 A  
ENDBRANCH   7  14
ENDBRANCH   6   7
ENDBRANCH   5   6
ENDBRANCH   4   5
ENDBRANCH   2   4
TORSDOF 6
ENDMDL
MODEL       38
REMARK 921   NORMALIZED FREE ENERGY PREDICTED BY IDOCK:   -5.04 KCAL/MOL
REMARK 922        TOTAL FREE ENERGY PREDICTED BY IDOCK:   -7.72 KCAL/MOL
REMARK 923 INTER-LIGAND FREE ENERGY PREDICTED BY IDOCK:   -6.94 KCAL/MOL
REMARK 924 INTRA-LIGAND FREE ENERGY PREDICTED BY IDOCK:   -0.78 KCAL/MOL
REMARK 927      BINDING AFFINITY PREDICTED BY RF-SCORE:    0.00 PKD
ROOT
HETATM    1  C   UNL     1     -10.705  13.164  64.112  1.00  0.00    -0.374 C  
HETATM    2  N   UNL     1     -12.157  13.188  63.918  1.00  0.00    -0.511 NA 
HETATM    3  C   UNL     1     -12.618  11.856  63.515  1.00  0.00    -0.459 C  
ENDROOT
BRANCH   2   4
HETATM    4  C   UNL     1     -12.829  13.662  65.147  1.00  0.00    -0.329 C  
BRANCH   4   5
HETATM    5  C   UNL     1     -11.931  13.607  66.393  1.00  0.00    -0.426 C  
BRANCH   5   6
HETATM    6  O   UNL     1     -12.128  12.382  67.109  1.00  0.00    -0.532 OA 
BRANCH   6   7
HETATM    7  C   UNL     1     -11.188  12.238  68.193  1.00  0.00    -0.269 C  
BRANCH   7   8
HETATM    8  C   UNL     1     -11.889  12.271  69.547  1.00  0.00    -0.380 A  
HETATM    9  C   UNL     1     -12.147  13.499  70.178  1.00  0.00    -0.425 A  
HETATM   10  C   UNL     1     -12.313  11.090  70.176  1.00  0.00    -0.389 A  
HETATM   11  C   UNL     1     -12.799  13.538  71.413  1.00  0.00    -0.440 A  
HETATM   12  C   UNL     1     -12.958  11.133  71.412  1.00  0.00    -0.506 A  
HETATM   13  C   UNL     1     -13.200  12.356  72.032  1.00  0.00    -0.514 A  
ENDBRANCH   7   8
BRANCH   7  14
HETATM   14  C   UNL     1     -10.370  10.964  68.014  1.00  0.00    -0.212 A  
HETATM   15  C   UNL     1      -8.456   9.597  68.654  1.00  0.00    -0.119 A  
HETATM   16  C   UNL     1     -10.048   8.752  67.043  1.00  0.00    -0.335 A  
HETATM   17  C   UNL     1      -9.198  10.776  68.768  1.00  0.00    -0.192 A  
HETATM   18 BR   UNL     1      -7.889   6.992  67.646  1.00  0.00    -0.114 Br 
HETATM   19  C   UNL     1     -10.785   9.933  67.153  1.00  0.00    -0.276 A  
HETATM   20  C   UNL     1      -8.887   8.591  67.793  1.00  0.00    -0.137 A  
ENDBRANCH   7  14
ENDBRANCH   6   7
ENDBRANCH   5   6
ENDBRANCH   4   5
ENDBRANCH   2   4
TORSDOF 6
ENDMDL
MODEL       39
REMARK 921   NORMALIZED FREE ENERGY PREDICTED BY IDOCK:   -5.03 KCAL/MOL
REMARK 922        TOTAL FREE ENERGY PREDICTED BY IDOCK:   -7.70 KCAL/MOL
REMARK 923 INTER-LIGAND FREE ENERGY PREDICTED BY IDOCK:   -6.79 KCAL/MOL
REMARK 924 INTRA-LIGAND FREE ENERGY PREDICTED BY IDOCK:   -0.92 KCAL/MOL
REMARK 927      BINDING AFFINITY PREDICTED BY RF-SCORE:    0.00 PKD
ROOT
HETATM    1  C   UNL     1     -13.861  15.482  72.397  1.00  0.00    -0.568 C  
HETATM    2  N   UNL     1     -12.927  14.355  72.346  1.00  0.00    -0.374 NA 
HETATM    3  C   UNL     1     -13.679  13.097  72.308  1.00  0.00    -0.551 C  
ENDROOT
BRANCH   2   4
HETATM    4  C   UNL     1     -12.020  14.496  71.186  1.00  0.00    -0.339 C  
BRANCH   4   5
HETATM    5  C   UNL     1     -12.396  15.661  70.256  1.00  0.00    -0.370 C  
BRANCH   5   6
HETATM    6  O   UNL     1     -11.230  16.397  69.867  1.00  0.00    -0.332 OA 
BRANCH   6   7
HETATM    7  C   UNL     1     -11.003  16.327  68.444  1.00  0.00    -0.351 C  
BRANCH   7   8
HETATM    8  C   UNL     1     -10.548  17.671  67.885  1.00  0.00    -0.390 A  
HETATM    9  C   UNL     1      -9.885  18.591  68.714  1.00  0.00    -0.411 A  
HETATM   10  C   UNL     1     -10.755  18.008  66.538  1.00  0.00    -0.144 A  
HETATM   11  C   UNL     1      -9.455  19.820  68.208  1.00  0.00    -0.440 A  
HETATM   12  C   UNL     1     -10.330  19.238  66.038  1.00  0.00    -0.556 A  
HETATM   13  C   UNL     1      -9.681  20.145  66.872  1.00  0.00    -0.582 A  
ENDBRANCH   7   8
BRANCH   7  14
HETATM   14  C   UNL     1     -10.007  15.218  68.124  1.00  0.00    -0.221 A  
HETATM   15  C   UNL     1      -7.978  13.997  68.699  1.00  0.00    -0.122 A  
HETATM   16  C   UNL     1      -9.313  13.284  66.815  1.00  0.00    -0.254 A  
HETATM   17  C   UNL     1      -8.880  15.035  68.945  1.00  0.00    -0.201 A  
HETATM   18 BR   UNL     1      -6.984  11.717  67.307  1.00  0.00    -0.147 Br 
HETATM   19  C   UNL     1     -10.212  14.325  67.058  1.00  0.00    -0.260 A  
HETATM   20  C   UNL     1      -8.200  13.127  67.635  1.00  0.00    -0.175 A  
ENDBRANCH   7  14
ENDBRANCH   6   7
ENDBRANCH   5   6
ENDBRANCH   4   5
ENDBRANCH   2   4
TORSDOF 6
ENDMDL
MODEL       40
REMARK 921   NORMALIZED FREE ENERGY PREDICTED BY IDOCK:   -5.00 KCAL/MOL
REMARK 922        TOTAL FREE ENERGY PREDICTED BY IDOCK:   -7.67 KCAL/MOL
REMARK 923 INTER-LIGAND FREE ENERGY PREDICTED BY IDOCK:   -6.74 KCAL/MOL
REMARK 924 INTRA-LIGAND FREE ENERGY PREDICTED BY IDOCK:   -0.93 KCAL/MOL
REMARK 927      BINDING AFFINITY PREDICTED BY RF-SCORE:    0.00 PKD
ROOT
HETATM    1  C   UNL     1      -8.441   8.474  67.231  1.00  0.00    -0.123 C  
HETATM    2  N   UNL     1      -8.525   9.899  67.559  1.00  0.00    -0.115 NA 
HETATM    3  C   UNL     1      -8.475  10.689  66.325  1.00  0.00    -0.155 C  
ENDROOT
BRANCH   2   4
HETATM    4  C   UNL     1      -9.748  10.171  68.345  1.00  0.00    -0.147 C  
BRANCH   4   5
HETATM    5  C   UNL     1     -11.023  10.227  67.488  1.00  0.00    -0.280 C  
BRANCH   5   6
HETATM    6  O   UNL     1     -11.897  11.266  67.944  1.00  0.00    -0.597 OA 
BRANCH   6   7
HETATM    7  C   UNL     1     -11.204  12.523  68.087  1.00  0.00    -0.267 C  
BRANCH   7   8
HETATM    8  C   UNL     1     -11.308  13.364  66.819  1.00  0.00    -0.353 A  
HETATM    9  C   UNL     1     -10.191  14.075  66.351  1.00  0.00    -0.293 A  
HETATM   10  C   UNL     1     -12.501  13.426  66.083  1.00  0.00    -0.389 A  
HETATM   11  C   UNL     1     -10.274  14.839  65.184  1.00  0.00    -0.410 A  
HETATM   12  C   UNL     1     -12.582  14.195  64.921  1.00  0.00    -0.362 A  
HETATM   13  C   UNL     1     -11.470  14.903  64.472  1.00  0.00    -0.328 A  
ENDBRANCH   7   8
BRANCH   7  14
HETATM   14  C   UNL     1     -11.727  13.276  69.306  1.00  0.00    -0.380 A  
HETATM   15  C   UNL     1     -12.323  15.388  70.365  1.00  0.00    -0.443 A  
HETATM   16  C   UNL     1     -12.716  13.309  71.532  1.00  0.00    -0.376 A  
HETATM   17  C   UNL     1     -11.805  14.680  69.278  1.00  0.00    -0.357 A  
HETATM   18 BR   UNL     1     -13.486  15.656  72.953  1.00  0.00    -0.660 Br 
HETATM   19  C   UNL     1     -12.193  12.601  70.448  1.00  0.00    -0.368 A  
HETATM   20  C   UNL     1     -12.777  14.698  71.486  1.00  0.00    -0.338 A  
ENDBRANCH   7  14
ENDBRANCH   6   7
ENDBRANCH   5   6
ENDBRANCH   4   5
ENDBRANCH   2   4
TORSDOF 6
ENDMDL
MODEL       41
REMARK 921   NORMALIZED FREE ENERGY PREDICTED BY IDOCK:   -4.99 KCAL/MOL
REMARK 922        TOTAL FREE ENERGY PREDICTED BY IDOCK:   -7.66 KCAL/MOL
REMARK 923 INTER-LIGAND FREE ENERGY PREDICTED BY IDOCK:   -6.97 KCAL/MOL
REMARK 924 INTRA-LIGAND FREE ENERGY PREDICTED BY IDOCK:   -0.68 KCAL/MOL
REMARK 927      BINDING AFFINITY PREDICTED BY RF-SCORE:    0.00 PKD
ROOT
HETATM    1  C   UNL     1     -10.002  10.563  65.643  1.00  0.00    -0.270 C  
HETATM    2  N   UNL     1     -11.012  10.998  66.610  1.00  0.00    -0.233 NA 
HETATM    3  C   UNL     1     -10.959  10.137  67.795  1.00  0.00    -0.277 C  
ENDROOT
BRANCH   2   4
HETATM    4  C   UNL     1     -10.813  12.424  66.949  1.00  0.00    -0.251 C  
BRANCH   4   5
HETATM    5  C   UNL     1     -11.999  13.042  67.707  1.00  0.00    -0.295 C  
BRANCH   5   6
HETATM    6  O   UNL     1     -11.585  13.525  68.991  1.00  0.00    -0.266 OA 
BRANCH   6   7
HETATM    7  C   UNL     1     -11.881  14.927  69.156  1.00  0.00    -0.307 C  
BRANCH   7   8
HETATM    8  C   UNL     1     -12.360  15.233  70.572  1.00  0.00    -0.434 A  
HETATM    9  C   UNL     1     -11.546  15.971  71.447  1.00  0.00    -0.520 A  
HETATM   10  C   UNL     1     -13.621  14.812  71.020  1.00  0.00    -0.364 A  
HETATM   11  C   UNL     1     -11.981  16.265  72.741  1.00  0.00    -0.636 A  
HETATM   12  C   UNL     1     -14.050  15.102  72.316  1.00  0.00    -0.633 A  
HETATM   13  C   UNL     1     -13.230  15.827  73.177  1.00  0.00    -0.694 A  
ENDBRANCH   7   8
BRANCH   7  14
HETATM   14  C   UNL     1     -10.667  15.768  68.777  1.00  0.00    -0.253 A  
HETATM   15  C   UNL     1      -9.754  17.859  67.920  1.00  0.00    -0.288 A  
HETATM   16  C   UNL     1      -8.259  16.130  68.708  1.00  0.00    -0.216 A  
HETATM   17  C   UNL     1     -10.851  17.051  68.231  1.00  0.00    -0.341 A  
HETATM   18 BR   UNL     1      -6.979  18.489  67.748  1.00  0.00    -0.224 Br 
HETATM   19  C   UNL     1      -9.356  15.322  69.014  1.00  0.00    -0.231 A  
HETATM   20  C   UNL     1      -8.464  17.393  68.161  1.00  0.00    -0.241 A  
ENDBRANCH   7  14
ENDBRANCH   6   7
ENDBRANCH   5   6
ENDBRANCH   4   5
ENDBRANCH   2   4
TORSDOF 6
ENDMDL
MODEL       42
REMARK 921   NORMALIZED FREE ENERGY PREDICTED BY IDOCK:   -4.96 KCAL/MOL
REMARK 922        TOTAL FREE ENERGY PREDICTED BY IDOCK:   -7.62 KCAL/MOL
REMARK 923 INTER-LIGAND FREE ENERGY PREDICTED BY IDOCK:   -6.70 KCAL/MOL
REMARK 924 INTRA-LIGAND FREE ENERGY PREDICTED BY IDOCK:   -0.92 KCAL/MOL
REMARK 927      BINDING AFFINITY PREDICTED BY RF-SCORE:    0.00 PKD
ROOT
HETATM    1  C   UNL     1     -10.370  15.942  66.325  1.00  0.00    -0.314 C  
HETATM    2  N   UNL     1     -10.258  16.165  67.768  1.00  0.00    -0.261 NA 
HETATM    3  C   UNL     1      -9.434  17.351  68.018  1.00  0.00    -0.281 C  
ENDROOT
BRANCH   2   4
HETATM    4  C   UNL     1     -11.602  16.283  68.372  1.00  0.00    -0.154 C  
BRANCH   4   5
HETATM    5  C   UNL     1     -11.805  15.372  69.594  1.00  0.00    -0.347 C  
BRANCH   5   6
HETATM    6  O   UNL     1     -12.385  14.122  69.205  1.00  0.00    -0.301 OA 
BRANCH   6   7
HETATM    7  C   UNL     1     -11.415  13.054  69.222  1.00  0.00    -0.289 C  
BRANCH   7   8
HETATM    8  C   UNL     1     -11.879  11.894  70.097  1.00  0.00    -0.390 A  
HETATM    9  C   UNL     1     -11.341  10.610  69.910  1.00  0.00    -0.386 A  
HETATM   10  C   UNL     1     -12.825  12.084  71.116  1.00  0.00    -0.331 A  
HETATM   11  C   UNL     1     -11.752   9.545  70.715  1.00  0.00    -0.370 A  
HETATM   12  C   UNL     1     -13.238  11.017  71.914  1.00  0.00    -0.503 A  
HETATM   13  C   UNL     1     -12.703   9.747  71.713  1.00  0.00    -0.519 A  
ENDBRANCH   7   8
BRANCH   7  14
HETATM   14  C   UNL     1     -11.110  12.598  67.799  1.00  0.00    -0.287 A  
HETATM   15  C   UNL     1     -11.819  12.362  65.479  1.00  0.00    -0.469 A  
HETATM   16  C   UNL     1      -9.573  11.737  66.116  1.00  0.00    -0.250 A  
HETATM   17  C   UNL     1     -12.091  12.730  66.800  1.00  0.00    -0.290 A  
HETATM   18 BR   UNL     1     -10.190  11.379  63.357  1.00  0.00    -0.475 Br 
HETATM   19  C   UNL     1      -9.847  12.100  67.437  1.00  0.00    -0.193 A  
HETATM   20  C   UNL     1     -10.561  11.869  65.145  1.00  0.00    -0.287 A  
ENDBRANCH   7  14
ENDBRANCH   6   7
ENDBRANCH   5   6
ENDBRANCH   4   5
ENDBRANCH   2   4
TORSDOF 6
ENDMDL
MODEL       43
REMARK 921   NORMALIZED FREE ENERGY PREDICTED BY IDOCK:   -4.93 KCAL/MOL
REMARK 922        TOTAL FREE ENERGY PREDICTED BY IDOCK:   -7.58 KCAL/MOL
REMARK 923 INTER-LIGAND FREE ENERGY PREDICTED BY IDOCK:   -6.89 KCAL/MOL
REMARK 924 INTRA-LIGAND FREE ENERGY PREDICTED BY IDOCK:   -0.69 KCAL/MOL
REMARK 927      BINDING AFFINITY PREDICTED BY RF-SCORE:    0.00 PKD
ROOT
HETATM    1  C   UNL     1     -11.068   7.310  72.804  1.00  0.00    -0.319 C  
HETATM    2  N   UNL     1     -11.782   7.681  71.580  1.00  0.00    -0.271 NA 
HETATM    3  C   UNL     1     -11.530   6.675  70.543  1.00  0.00    -0.376 C  
ENDROOT
BRANCH   2   4
HETATM    4  C   UNL     1     -13.225   7.843  71.859  1.00  0.00    -0.285 C  
BRANCH   4   5
HETATM    5  C   UNL     1     -13.660   9.312  71.987  1.00  0.00    -0.452 C  
BRANCH   5   6
HETATM    6  O   UNL     1     -12.538  10.189  71.831  1.00  0.00    -0.396 OA 
BRANCH   6   7
HETATM    7  C   UNL     1     -12.712  11.086  70.715  1.00  0.00    -0.323 C  
BRANCH   7   8
HETATM    8  C   UNL     1     -12.702  12.544  71.165  1.00  0.00    -0.340 A  
HETATM    9  C   UNL     1     -11.964  13.499  70.447  1.00  0.00    -0.367 A  
HETATM   10  C   UNL     1     -13.443  12.966  72.280  1.00  0.00    -0.631 A  
HETATM   11  C   UNL     1     -11.959  14.838  70.846  1.00  0.00    -0.384 A  
HETATM   12  C   UNL     1     -13.430  14.303  72.679  1.00  0.00    -0.623 A  
HETATM   13  C   UNL     1     -12.687  15.239  71.964  1.00  0.00    -0.431 A  
ENDBRANCH   7   8
BRANCH   7  14
HETATM   14  C   UNL     1     -11.649  10.818  69.655  1.00  0.00    -0.388 A  
HETATM   15  C   UNL     1      -9.434   9.984  69.075  1.00  0.00    -0.190 A  
HETATM   16  C   UNL     1     -10.928  10.734  67.329  1.00  0.00    -0.359 A  
HETATM   17  C   UNL     1     -10.406  10.282  70.034  1.00  0.00    -0.255 A  
HETATM   18 BR   UNL     1      -8.390   9.801  66.429  1.00  0.00    -0.124 Br 
HETATM   19  C   UNL     1     -11.897  11.036  68.288  1.00  0.00    -0.221 A  
HETATM   20  C   UNL     1      -9.702  10.211  67.727  1.00  0.00    -0.153 A  
ENDBRANCH   7  14
ENDBRANCH   6   7
ENDBRANCH   5   6
ENDBRANCH   4   5
ENDBRANCH   2   4
TORSDOF 6
ENDMDL
MODEL       44
REMARK 921   NORMALIZED FREE ENERGY PREDICTED BY IDOCK:   -4.92 KCAL/MOL
REMARK 922        TOTAL FREE ENERGY PREDICTED BY IDOCK:   -7.56 KCAL/MOL
REMARK 923 INTER-LIGAND FREE ENERGY PREDICTED BY IDOCK:   -7.18 KCAL/MOL
REMARK 924 INTRA-LIGAND FREE ENERGY PREDICTED BY IDOCK:   -0.39 KCAL/MOL
REMARK 927      BINDING AFFINITY PREDICTED BY RF-SCORE:    0.00 PKD
ROOT
HETATM    1  C   UNL     1     -11.976  12.321  63.803  1.00  0.00    -0.519 C  
HETATM    2  N   UNL     1     -11.451  13.105  64.923  1.00  0.00    -0.300 NA 
HETATM    3  C   UNL     1     -12.565  13.683  65.681  1.00  0.00    -0.484 C  
ENDROOT
BRANCH   2   4
HETATM    4  C   UNL     1     -10.579  12.263  65.771  1.00  0.00    -0.254 C  
BRANCH   4   5
HETATM    5  C   UNL     1     -11.342  11.511  66.873  1.00  0.00    -0.253 C  
BRANCH   5   6
HETATM    6  O   UNL     1     -10.742  11.740  68.153  1.00  0.00    -0.197 OA 
BRANCH   6   7
HETATM    7  C   UNL     1     -11.542  11.196  69.223  1.00  0.00    -0.318 C  
BRANCH   7   8
HETATM    8  C   UNL     1     -10.769  10.149  70.020  1.00  0.00    -0.356 A  
HETATM    9  C   UNL     1      -9.391   9.980  69.811  1.00  0.00    -0.233 A  
HETATM   10  C   UNL     1     -11.404   9.357  70.989  1.00  0.00    -0.407 A  
HETATM   11  C   UNL     1      -8.673   9.031  70.543  1.00  0.00    -0.238 A  
HETATM   12  C   UNL     1     -10.686   8.406  71.714  1.00  0.00    -0.355 A  
HETATM   13  C   UNL     1      -9.321   8.241  71.491  1.00  0.00    -0.236 A  
ENDBRANCH   7   8
BRANCH   7  14
HETATM   14  C   UNL     1     -12.056  12.318  70.119  1.00  0.00    -0.364 A  
HETATM   15  C   UNL     1     -12.357  14.702  70.523  1.00  0.00    -0.400 A  
HETATM   16  C   UNL     1     -13.288  13.097  72.071  1.00  0.00    -0.587 A  
HETATM   17  C   UNL     1     -11.855  13.658  69.742  1.00  0.00    -0.392 A  
HETATM   18 BR   UNL     1     -13.758  15.828  72.736  1.00  0.00    -0.550 Br 
HETATM   19  C   UNL     1     -12.782  12.053  71.293  1.00  0.00    -0.382 A  
HETATM   20  C   UNL     1     -13.071  14.415  71.683  1.00  0.00    -0.350 A  
ENDBRANCH   7  14
ENDBRANCH   6   7
ENDBRANCH   5   6
ENDBRANCH   4   5
ENDBRANCH   2   4
TORSDOF 6
ENDMDL
MODEL       45
REMARK 921   NORMALIZED FREE ENERGY PREDICTED BY IDOCK:   -4.83 KCAL/MOL
REMARK 922        TOTAL FREE ENERGY PREDICTED BY IDOCK:   -7.44 KCAL/MOL
REMARK 923 INTER-LIGAND FREE ENERGY PREDICTED BY IDOCK:   -6.74 KCAL/MOL
REMARK 924 INTRA-LIGAND FREE ENERGY PREDICTED BY IDOCK:   -0.70 KCAL/MOL
REMARK 927      BINDING AFFINITY PREDICTED BY RF-SCORE:    0.00 PKD
ROOT
HETATM    1  C   UNL     1     -10.461  12.925  64.470  1.00  0.00    -0.377 C  
HETATM    2  N   UNL     1     -11.799  13.288  63.998  1.00  0.00    -0.433 NA 
HETATM    3  C   UNL     1     -12.532  12.075  63.624  1.00  0.00    -0.525 C  
ENDROOT
BRANCH   2   4
HETATM    4  C   UNL     1     -12.510  14.072  65.031  1.00  0.00    -0.425 C  
BRANCH   4   5
HETATM    5  C   UNL     1     -11.609  14.498  66.201  1.00  0.00    -0.365 C  
BRANCH   5   6
HETATM    6  O   UNL     1     -12.162  14.069  67.451  1.00  0.00    -0.384 OA 
BRANCH   6   7
HETATM    7  C   UNL     1     -11.146  13.925  68.464  1.00  0.00    -0.265 C  
BRANCH   7   8
HETATM    8  C   UNL     1     -11.690  14.254  69.851  1.00  0.00    -0.373 A  
HETATM    9  C   UNL     1     -11.610  15.566  70.346  1.00  0.00    -0.359 A  
HETATM   10  C   UNL     1     -12.301  13.271  70.645  1.00  0.00    -0.416 A  
HETATM   11  C   UNL     1     -12.116  15.878  71.610  1.00  0.00    -0.554 A  
HETATM   12  C   UNL     1     -12.800  13.586  71.910  1.00  0.00    -0.368 A  
HETATM   13  C   UNL     1     -12.706  14.888  72.393  1.00  0.00    -0.428 A  
ENDBRANCH   7   8
BRANCH   7  14
HETATM   14  C   UNL     1     -10.548  12.523  68.413  1.00  0.00    -0.256 A  
HETATM   15  C   UNL     1     -10.847  10.131  68.056  1.00  0.00    -0.320 A  
HETATM   16  C   UNL     1      -8.634  11.015  68.458  1.00  0.00    -0.158 A  
HETATM   17  C   UNL     1     -11.379  11.419  68.153  1.00  0.00    -0.374 A  
HETATM   18 BR   UNL     1      -8.755   8.195  68.068  1.00  0.00    -0.128 Br 
HETATM   19  C   UNL     1      -9.167  12.302  68.561  1.00  0.00    -0.089 A  
HETATM   20  C   UNL     1      -9.477   9.937  68.208  1.00  0.00    -0.139 A  
ENDBRANCH   7  14
ENDBRANCH   6   7
ENDBRANCH   5   6
ENDBRANCH   4   5
ENDBRANCH   2   4
TORSDOF 6
ENDMDL
MODEL       46
REMARK 921   NORMALIZED FREE ENERGY PREDICTED BY IDOCK:   -4.82 KCAL/MOL
REMARK 922        TOTAL FREE ENERGY PREDICTED BY IDOCK:   -7.43 KCAL/MOL
REMARK 923 INTER-LIGAND FREE ENERGY PREDICTED BY IDOCK:   -6.50 KCAL/MOL
REMARK 924 INTRA-LIGAND FREE ENERGY PREDICTED BY IDOCK:   -0.93 KCAL/MOL
REMARK 927      BINDING AFFINITY PREDICTED BY RF-SCORE:    0.00 PKD
ROOT
HETATM    1  C   UNL     1     -12.776  12.163  63.562  1.00  0.00    -0.431 C  
HETATM    2  N   UNL     1     -11.690  13.143  63.636  1.00  0.00    -0.466 NA 
HETATM    3  C   UNL     1     -12.087  14.249  64.512  1.00  0.00    -0.480 C  
ENDROOT
BRANCH   2   4
HETATM    4  C   UNL     1     -10.444  12.491  64.094  1.00  0.00    -0.403 C  
BRANCH   4   5
HETATM    5  C   UNL     1     -10.684  11.358  65.104  1.00  0.00    -0.269 C  
BRANCH   5   6
HETATM    6  O   UNL     1     -10.625  11.854  66.447  1.00  0.00    -0.233 OA 
BRANCH   6   7
HETATM    7  C   UNL     1     -11.121  10.888  67.396  1.00  0.00    -0.307 C  
BRANCH   7   8
HETATM    8  C   UNL     1     -10.076   9.819  67.703  1.00  0.00    -0.236 A  
HETATM    9  C   UNL     1     -10.348   8.468  67.434  1.00  0.00    -0.356 A  
HETATM   10  C   UNL     1      -8.821  10.160  68.231  1.00  0.00    -0.124 A  
HETATM   11  C   UNL     1      -9.392   7.485  67.701  1.00  0.00    -0.151 A  
HETATM   12  C   UNL     1      -7.871   9.175  68.502  1.00  0.00    -0.101 A  
HETATM   13  C   UNL     1      -8.156   7.838  68.239  1.00  0.00    -0.124 A  
ENDBRANCH   7   8
BRANCH   7  14
HETATM   14  C   UNL     1     -11.595  11.591  68.663  1.00  0.00    -0.375 A  
HETATM   15  C   UNL     1     -12.047  13.664  69.863  1.00  0.00    -0.406 A  
HETATM   16  C   UNL     1     -12.590  11.543  70.887  1.00  0.00    -0.438 A  
HETATM   17  C   UNL     1     -11.574  12.995  68.730  1.00  0.00    -0.350 A  
HETATM   18 BR   UNL     1     -13.200  13.837  72.464  1.00  0.00    -0.571 Br 
HETATM   19  C   UNL     1     -12.113  10.875  69.757  1.00  0.00    -0.409 A  
HETATM   20  C   UNL     1     -12.553  12.933  70.935  1.00  0.00    -0.270 A  
ENDBRANCH   7  14
ENDBRANCH   6   7
ENDBRANCH   5   6
ENDBRANCH   4   5
ENDBRANCH   2   4
TORSDOF 6
ENDMDL
MODEL       47
REMARK 921   NORMALIZED FREE ENERGY PREDICTED BY IDOCK:   -4.81 KCAL/MOL
REMARK 922        TOTAL FREE ENERGY PREDICTED BY IDOCK:   -7.42 KCAL/MOL
REMARK 923 INTER-LIGAND FREE ENERGY PREDICTED BY IDOCK:   -6.80 KCAL/MOL
REMARK 924 INTRA-LIGAND FREE ENERGY PREDICTED BY IDOCK:   -0.62 KCAL/MOL
REMARK 927      BINDING AFFINITY PREDICTED BY RF-SCORE:    0.00 PKD
ROOT
HETATM    1  C   UNL     1      -6.725  17.477  68.623  1.00  0.00    -0.211 C  
HETATM    2  N   UNL     1      -6.407  16.619  67.480  1.00  0.00    -0.147 NA 
HETATM    3  C   UNL     1      -6.066  15.276  67.956  1.00  0.00    -0.145 C  
ENDROOT
BRANCH   2   4
HETATM    4  C   UNL     1      -7.536  16.601  66.525  1.00  0.00    -0.292 C  
BRANCH   4   5
HETATM    5  C   UNL     1      -8.894  16.329  67.192  1.00  0.00    -0.193 C  
BRANCH   5   6
HETATM    6  O   UNL     1      -9.375  15.023  66.850  1.00  0.00    -0.218 OA 
BRANCH   6   7
HETATM    7  C   UNL     1     -10.814  14.995  66.742  1.00  0.00    -0.318 C  
BRANCH   7   8
HETATM    8  C   UNL     1     -11.270  14.059  65.627  1.00  0.00    -0.310 A  
HETATM    9  C   UNL     1     -10.332  13.515  64.735  1.00  0.00    -0.405 A  
HETATM   10  C   UNL     1     -12.620  13.702  65.484  1.00  0.00    -0.541 A  
HETATM   11  C   UNL     1     -10.741  12.649  63.718  1.00  0.00    -0.454 A  
HETATM   12  C   UNL     1     -13.025  12.842  64.463  1.00  0.00    -0.210 A  
HETATM   13  C   UNL     1     -12.087  12.316  63.579  1.00  0.00    -0.649 A  
ENDBRANCH   7   8
BRANCH   7  14
HETATM   14  C   UNL     1     -11.434  14.617  68.083  1.00  0.00    -0.346 A  
HETATM   15  C   UNL     1     -12.002  12.902  69.718  1.00  0.00    -0.365 A  
HETATM   16  C   UNL     1     -12.430  15.227  70.221  1.00  0.00    -0.405 A  
HETATM   17  C   UNL     1     -11.480  13.268  68.474  1.00  0.00    -0.347 A  
HETATM   18 BR   UNL     1     -13.171  13.391  72.271  1.00  0.00    -0.550 Br 
HETATM   19  C   UNL     1     -11.913  15.591  68.976  1.00  0.00    -0.323 A  
HETATM   20  C   UNL     1     -12.473  13.884  70.585  1.00  0.00    -0.366 A  
ENDBRANCH   7  14
ENDBRANCH   6   7
ENDBRANCH   5   6
ENDBRANCH   4   5
ENDBRANCH   2   4
TORSDOF 6
ENDMDL
MODEL       48
REMARK 921   NORMALIZED FREE ENERGY PREDICTED BY IDOCK:   -4.80 KCAL/MOL
REMARK 922        TOTAL FREE ENERGY PREDICTED BY IDOCK:   -7.39 KCAL/MOL
REMARK 923 INTER-LIGAND FREE ENERGY PREDICTED BY IDOCK:   -6.61 KCAL/MOL
REMARK 924 INTRA-LIGAND FREE ENERGY PREDICTED BY IDOCK:   -0.78 KCAL/MOL
REMARK 927      BINDING AFFINITY PREDICTED BY RF-SCORE:    0.00 PKD
ROOT
HETATM    1  C   UNL     1     -13.167   9.634  71.963  1.00  0.00    -0.453 C  
HETATM    2  N   UNL     1     -11.790   9.271  71.622  1.00  0.00    -0.360 NA 
HETATM    3  C   UNL     1     -11.688   7.816  71.477  1.00  0.00    -0.280 C  
ENDROOT
BRANCH   2   4
HETATM    4  C   UNL     1     -11.362   9.983  70.398  1.00  0.00    -0.320 C  
BRANCH   4   5
HETATM    5  C   UNL     1     -12.216  11.222  70.084  1.00  0.00    -0.330 C  
BRANCH   5   6
HETATM    6  O   UNL     1     -12.182  11.520  68.683  1.00  0.00    -0.492 OA 
BRANCH   6   7
HETATM    7  C   UNL     1     -10.858  11.891  68.248  1.00  0.00    -0.224 C  
BRANCH   7   8
HETATM    8  C   UNL     1     -10.583  11.409  66.827  1.00  0.00    -0.298 A  
HETATM    9  C   UNL     1      -9.820  10.249  66.611  1.00  0.00    -0.256 A  
HETATM   10  C   UNL     1     -11.101  12.089  65.714  1.00  0.00    -0.371 A  
HETATM   11  C   UNL     1      -9.573   9.794  65.313  1.00  0.00    -0.368 A  
HETATM   12  C   UNL     1     -10.847  11.635  64.419  1.00  0.00    -0.399 A  
HETATM   13  C   UNL     1     -10.082  10.489  64.218  1.00  0.00    -0.380 A  
ENDBRANCH   7   8
BRANCH   7  14
HETATM   14  C   UNL     1     -10.664  13.398  68.378  1.00  0.00    -0.271 A  
HETATM   15  C   UNL     1      -9.179  15.330  68.334  1.00  0.00    -0.194 A  
HETATM   16  C   UNL     1     -11.558  15.652  68.614  1.00  0.00    -0.391 A  
HETATM   17  C   UNL     1      -9.375  13.948  68.265  1.00  0.00    -0.209 A  
HETATM   18 BR   UNL     1     -10.009  18.044  68.593  1.00  0.00    -0.400 Br 
HETATM   19  C   UNL     1     -11.753  14.271  68.550  1.00  0.00    -0.376 A  
HETATM   20  C   UNL     1     -10.272  16.174  68.508  1.00  0.00    -0.241 A  
ENDBRANCH   7  14
ENDBRANCH   6   7
ENDBRANCH   5   6
ENDBRANCH   4   5
ENDBRANCH   2   4
TORSDOF 6
ENDMDL
MODEL       49
REMARK 921   NORMALIZED FREE ENERGY PREDICTED BY IDOCK:   -4.75 KCAL/MOL
REMARK 922        TOTAL FREE ENERGY PREDICTED BY IDOCK:   -7.33 KCAL/MOL
REMARK 923 INTER-LIGAND FREE ENERGY PREDICTED BY IDOCK:   -6.65 KCAL/MOL
REMARK 924 INTRA-LIGAND FREE ENERGY PREDICTED BY IDOCK:   -0.68 KCAL/MOL
REMARK 927      BINDING AFFINITY PREDICTED BY RF-SCORE:    0.00 PKD
ROOT
HETATM    1  C   UNL     1      -9.013   7.429  66.103  1.00  0.00    -0.149 C  
HETATM    2  N   UNL     1     -10.196   7.603  66.949  1.00  0.00    -0.282 NA 
HETATM    3  C   UNL     1     -10.986   6.368  66.946  1.00  0.00    -0.341 C  
ENDROOT
BRANCH   2   4
HETATM    4  C   UNL     1      -9.792   8.002  68.315  1.00  0.00    -0.170 C  
BRANCH   4   5
HETATM    5  C   UNL     1      -9.654   9.523  68.490  1.00  0.00    -0.142 C  
BRANCH   5   6
HETATM    6  O   UNL     1     -10.748  10.208  67.868  1.00  0.00    -0.230 OA 
BRANCH   6   7
HETATM    7  C   UNL     1     -10.398  11.560  67.507  1.00  0.00    -0.194 C  
BRANCH   7   8
HETATM    8  C   UNL     1     -10.917  11.919  66.118  1.00  0.00    -0.352 A  
HETATM    9  C   UNL     1     -12.125  12.622  65.977  1.00  0.00    -0.429 A  
HETATM   10  C   UNL     1     -10.196  11.582  64.962  1.00  0.00    -0.328 A  
HETATM   11  C   UNL     1     -12.602  12.964  64.710  1.00  0.00    -0.493 A  
HETATM   12  C   UNL     1     -10.679  11.920  63.697  1.00  0.00    -0.502 A  
HETATM   13  C   UNL     1     -11.882  12.610  63.570  1.00  0.00    -0.619 A  
ENDBRANCH   7   8
BRANCH   7  14
HETATM   14  C   UNL     1     -10.903  12.534  68.566  1.00  0.00    -0.271 A  
HETATM   15  C   UNL     1     -10.940  14.790  69.488  1.00  0.00    -0.287 A  
HETATM   16  C   UNL     1     -12.343  13.076  70.455  1.00  0.00    -0.365 A  
HETATM   17  C   UNL     1     -10.456  13.867  68.556  1.00  0.00    -0.253 A  
HETATM   18 BR   UNL     1     -12.542  15.638  71.687  1.00  0.00    -0.544 Br 
HETATM   19  C   UNL     1     -11.855  12.153  69.527  1.00  0.00    -0.386 A  
HETATM   20  C   UNL     1     -11.881  14.388  70.432  1.00  0.00    -0.312 A  
ENDBRANCH   7  14
ENDBRANCH   6   7
ENDBRANCH   5   6
ENDBRANCH   4   5
ENDBRANCH   2   4
TORSDOF 6
ENDMDL
MODEL       50
REMARK 921   NORMALIZED FREE ENERGY PREDICTED BY IDOCK:   -4.73 KCAL/MOL
REMARK 922        TOTAL FREE ENERGY PREDICTED BY IDOCK:   -7.30 KCAL/MOL
REMARK 923 INTER-LIGAND FREE ENERGY PREDICTED BY IDOCK:   -6.61 KCAL/MOL
REMARK 924 INTRA-LIGAND FREE ENERGY PREDICTED BY IDOCK:   -0.69 KCAL/MOL
REMARK 927      BINDING AFFINITY PREDICTED BY RF-SCORE:    0.00 PKD
ROOT
HETATM    1  C   UNL     1     -12.632  14.052  65.548  1.00  0.00    -0.516 C  
HETATM    2  N   UNL     1     -12.411  12.606  65.466  1.00  0.00    -0.648 NA 
HETATM    3  C   UNL     1     -12.523  12.172  64.071  1.00  0.00    -0.440 C  
ENDROOT
BRANCH   2   4
HETATM    4  C   UNL     1     -11.101  12.256  66.055  1.00  0.00    -0.309 C  
BRANCH   4   5
HETATM    5  C   UNL     1     -11.015  10.796  66.528  1.00  0.00    -0.075 C  
BRANCH   5   6
HETATM    6  O   UNL     1     -11.750  10.612  67.744  1.00  0.00    -0.503 OA 
BRANCH   6   7
HETATM    7  C   UNL     1     -10.963  10.958  68.902  1.00  0.00    -0.229 C  
BRANCH   7   8
HETATM    8  C   UNL     1     -11.815  11.631  69.974  1.00  0.00    -0.435 A  
HETATM    9  C   UNL     1     -12.575  10.852  70.862  1.00  0.00    -0.494 A  
HETATM   10  C   UNL     1     -11.839  13.027  70.115  1.00  0.00    -0.324 A  
HETATM   11  C   UNL     1     -13.349  11.459  71.854  1.00  0.00    -0.409 A  
HETATM   12  C   UNL     1     -12.618  13.630  71.103  1.00  0.00    -0.452 A  
HETATM   13  C   UNL     1     -13.374  12.848  71.971  1.00  0.00    -0.579 A  
ENDBRANCH   7   8
BRANCH   7  14
HETATM   14  C   UNL     1     -10.251   9.722  69.442  1.00  0.00    -0.223 A  
HETATM   15  C   UNL     1     -10.230   7.314  69.815  1.00  0.00    -0.214 A  
HETATM   16  C   UNL     1      -8.294   8.636  70.403  1.00  0.00    -0.133 A  
HETATM   17  C   UNL     1     -10.881   8.468  69.369  1.00  0.00    -0.103 A  
HETATM   18 BR   UNL     1      -8.055   5.844  70.924  1.00  0.00    -0.122 Br 
HETATM   19  C   UNL     1      -8.947   9.789  69.962  1.00  0.00    -0.255 A  
HETATM   20  C   UNL     1      -8.939   7.405  70.329  1.00  0.00    -0.147 A  
ENDBRANCH   7  14
ENDBRANCH   6   7
ENDBRANCH   5   6
ENDBRANCH   4   5
ENDBRANCH   2   4
TORSDOF 6
ENDMDL
MODEL       51
REMARK 921   NORMALIZED FREE ENERGY PREDICTED BY IDOCK:   -4.72 KCAL/MOL
REMARK 922        TOTAL FREE ENERGY PREDICTED BY IDOCK:   -7.30 KCAL/MOL
REMARK 923 INTER-LIGAND FREE ENERGY PREDICTED BY IDOCK:   -6.39 KCAL/MOL
REMARK 924 INTRA-LIGAND FREE ENERGY PREDICTED BY IDOCK:   -0.91 KCAL/MOL
REMARK 927      BINDING AFFINITY PREDICTED BY RF-SCORE:    0.00 PKD
ROOT
HETATM    1  C   UNL     1      -5.871  16.720  68.149  1.00  0.00    -0.119 C  
HETATM    2  N   UNL     1      -6.214  15.595  67.275  1.00  0.00    -0.320 NA 
HETATM    3  C   UNL     1      -5.661  14.357  67.831  1.00  0.00    -0.108 C  
ENDROOT
BRANCH   2   4
HETATM    4  C   UNL     1      -7.680  15.519  67.095  1.00  0.00    -0.222 C  
BRANCH   4   5
HETATM    5  C   UNL     1      -8.345  14.437  67.961  1.00  0.00    -0.157 C  
BRANCH   5   6
HETATM    6  O   UNL     1      -8.936  13.422  67.142  1.00  0.00    -0.210 OA 
BRANCH   6   7
HETATM    7  C   UNL     1     -10.376  13.509  67.137  1.00  0.00    -0.250 C  
BRANCH   7   8
HETATM    8  C   UNL     1     -10.958  13.041  65.806  1.00  0.00    -0.299 A  
HETATM    9  C   UNL     1     -12.337  13.148  65.564  1.00  0.00    -0.529 A  
HETATM   10  C   UNL     1     -10.135  12.524  64.794  1.00  0.00    -0.251 A  
HETATM   11  C   UNL     1     -12.877  12.732  64.344  1.00  0.00    -0.288 A  
HETATM   12  C   UNL     1     -10.679  12.104  63.579  1.00  0.00    -0.509 A  
HETATM   13  C   UNL     1     -12.049  12.206  63.354  1.00  0.00    -0.608 A  
ENDBRANCH   7   8
BRANCH   7  14
HETATM   14  C   UNL     1     -10.954  12.726  68.310  1.00  0.00    -0.278 A  
HETATM   15  C   UNL     1     -12.251  12.699  70.374  1.00  0.00    -0.368 A  
HETATM   16  C   UNL     1     -11.424  10.624  69.450  1.00  0.00    -0.356 A  
HETATM   17  C   UNL     1     -11.673  13.401  69.313  1.00  0.00    -0.383 A  
HETATM   18 BR   UNL     1     -12.913  10.363  71.866  1.00  0.00    -0.499 Br 
HETATM   19  C   UNL     1     -10.842  11.327  68.393  1.00  0.00    -0.248 A  
HETATM   20  C   UNL     1     -12.124  11.314  70.435  1.00  0.00    -0.384 A  
ENDBRANCH   7  14
ENDBRANCH   6   7
ENDBRANCH   5   6
ENDBRANCH   4   5
ENDBRANCH   2   4
TORSDOF 6
ENDMDL
MODEL       52
REMARK 921   NORMALIZED FREE ENERGY PREDICTED BY IDOCK:   -4.71 KCAL/MOL
REMARK 922        TOTAL FREE ENERGY PREDICTED BY IDOCK:   -7.28 KCAL/MOL
REMARK 923 INTER-LIGAND FREE ENERGY PREDICTED BY IDOCK:   -6.60 KCAL/MOL
REMARK 924 INTRA-LIGAND FREE ENERGY PREDICTED BY IDOCK:   -0.68 KCAL/MOL
REMARK 927      BINDING AFFINITY PREDICTED BY RF-SCORE:    0.00 PKD
ROOT
HETATM    1  C   UNL     1     -13.129  15.648  72.481  1.00  0.00    -0.472 C  
HETATM    2  N   UNL     1     -12.693  14.317  72.051  1.00  0.00    -0.333 NA 
HETATM    3  C   UNL     1     -13.751  13.342  72.327  1.00  0.00    -0.589 C  
ENDROOT
BRANCH   2   4
HETATM    4  C   UNL     1     -12.315  14.340  70.621  1.00  0.00    -0.361 C  
BRANCH   4   5
HETATM    5  C   UNL     1     -11.916  12.961  70.074  1.00  0.00    -0.309 C  
BRANCH   5   6
HETATM    6  O   UNL     1     -10.977  13.093  69.000  1.00  0.00    -0.243 OA 
BRANCH   6   7
HETATM    7  C   UNL     1     -11.541  12.670  67.741  1.00  0.00    -0.348 C  
BRANCH   7   8
HETATM    8  C   UNL     1     -11.468  13.780  66.697  1.00  0.00    -0.362 A  
HETATM    9  C   UNL     1     -10.628  14.887  66.903  1.00  0.00    -0.300 A  
HETATM   10  C   UNL     1     -12.209  13.710  65.507  1.00  0.00    -0.476 A  
HETATM   11  C   UNL     1     -10.547  15.902  65.947  1.00  0.00    -0.348 A  
HETATM   12  C   UNL     1     -12.130  14.730  64.558  1.00  0.00    -0.460 A  
HETATM   13  C   UNL     1     -11.301  15.826  64.777  1.00  0.00    -0.319 A  
ENDBRANCH   7   8
BRANCH   7  14
HETATM   14  C   UNL     1     -10.855  11.397  67.258  1.00  0.00    -0.311 A  
HETATM   15  C   UNL     1      -9.153  10.331  65.878  1.00  0.00    -0.194 A  
HETATM   16  C   UNL     1     -10.501   8.989  67.368  1.00  0.00    -0.338 A  
HETATM   17  C   UNL     1      -9.828  11.479  66.302  1.00  0.00    -0.245 A  
HETATM   18 BR   UNL     1      -8.575   7.540  65.848  1.00  0.00    -0.157 Br 
HETATM   19  C   UNL     1     -11.179  10.136  67.788  1.00  0.00    -0.205 A  
HETATM   20  C   UNL     1      -9.493   9.092  66.415  1.00  0.00    -0.227 A  
ENDBRANCH   7  14
ENDBRANCH   6   7
ENDBRANCH   5   6
ENDBRANCH   4   5
ENDBRANCH   2   4
TORSDOF 6
ENDMDL
MODEL       53
REMARK 921   NORMALIZED FREE ENERGY PREDICTED BY IDOCK:   -4.71 KCAL/MOL
REMARK 922        TOTAL FREE ENERGY PREDICTED BY IDOCK:   -7.27 KCAL/MOL
REMARK 923 INTER-LIGAND FREE ENERGY PREDICTED BY IDOCK:   -6.69 KCAL/MOL
REMARK 924 INTRA-LIGAND FREE ENERGY PREDICTED BY IDOCK:   -0.59 KCAL/MOL
REMARK 927      BINDING AFFINITY PREDICTED BY RF-SCORE:    0.00 PKD
ROOT
HETATM    1  C   UNL     1      -7.147  18.735  68.918  1.00  0.00    -0.305 C  
HETATM    2  N   UNL     1      -7.351  17.363  68.448  1.00  0.00    -0.217 NA 
HETATM    3  C   UNL     1      -6.385  16.473  69.098  1.00  0.00    -0.185 C  
ENDROOT
BRANCH   2   4
HETATM    4  C   UNL     1      -8.748  16.942  68.693  1.00  0.00    -0.267 C  
BRANCH   4   5
HETATM    5  C   UNL     1      -8.860  15.565  69.367  1.00  0.00    -0.257 C  
BRANCH   5   6
HETATM    6  O   UNL     1      -9.341  14.584  68.441  1.00  0.00    -0.196 OA 
BRANCH   6   7
HETATM    7  C   UNL     1     -10.780  14.602  68.342  1.00  0.00    -0.241 C  
BRANCH   7   8
HETATM    8  C   UNL     1     -11.239  14.587  66.887  1.00  0.00    -0.340 A  
HETATM    9  C   UNL     1     -12.348  13.815  66.505  1.00  0.00    -0.432 A  
HETATM   10  C   UNL     1     -10.588  15.357  65.910  1.00  0.00    -0.349 A  
HETATM   11  C   UNL     1     -12.781  13.804  65.177  1.00  0.00    -0.439 A  
HETATM   12  C   UNL     1     -11.019  15.339  64.584  1.00  0.00    -0.322 A  
HETATM   13  C   UNL     1     -12.115  14.562  64.216  1.00  0.00    -0.448 A  
ENDBRANCH   7   8
BRANCH   7  14
HETATM   14  C   UNL     1     -11.377  13.442  69.132  1.00  0.00    -0.333 A  
HETATM   15  C   UNL     1     -11.543  11.043  69.524  1.00  0.00    -0.384 A  
HETATM   16  C   UNL     1     -12.703  12.580  70.984  1.00  0.00    -0.316 A  
HETATM   17  C   UNL     1     -11.045  12.120  68.786  1.00  0.00    -0.297 A  
HETATM   18 BR   UNL     1     -13.035   9.823  71.624  1.00  0.00    -0.556 Br 
HETATM   19  C   UNL     1     -12.210  13.656  70.243  1.00  0.00    -0.423 A  
HETATM   20  C   UNL     1     -12.368  11.280  70.620  1.00  0.00    -0.383 A  
ENDBRANCH   7  14
ENDBRANCH   6   7
ENDBRANCH   5   6
ENDBRANCH   4   5
ENDBRANCH   2   4
TORSDOF 6
ENDMDL
MODEL       54
REMARK 921   NORMALIZED FREE ENERGY PREDICTED BY IDOCK:   -4.68 KCAL/MOL
REMARK 922        TOTAL FREE ENERGY PREDICTED BY IDOCK:   -7.23 KCAL/MOL
REMARK 923 INTER-LIGAND FREE ENERGY PREDICTED BY IDOCK:   -6.28 KCAL/MOL
REMARK 924 INTRA-LIGAND FREE ENERGY PREDICTED BY IDOCK:   -0.95 KCAL/MOL
REMARK 927      BINDING AFFINITY PREDICTED BY RF-SCORE:    0.00 PKD
ROOT
HETATM    1  C   UNL     1     -11.013  11.541  63.951  1.00  0.00    -0.401 C  
HETATM    2  N   UNL     1      -9.918  10.601  63.698  1.00  0.00    -0.328 NA 
HETATM    3  C   UNL     1      -9.102  11.088  62.582  1.00  0.00    -0.343 C  
ENDROOT
BRANCH   2   4
HETATM    4  C   UNL     1      -9.120  10.404  64.927  1.00  0.00    -0.208 C  
BRANCH   4   5
HETATM    5  C   UNL     1      -9.908   9.735  66.065  1.00  0.00    -0.274 C  
BRANCH   5   6
HETATM    6  O   UNL     1      -9.680  10.412  67.306  1.00  0.00    -0.160 OA 
BRANCH   6   7
HETATM    7  C   UNL     1     -10.895  10.985  67.833  1.00  0.00    -0.237 C  
BRANCH   7   8
HETATM    8  C   UNL     1     -11.204  10.451  69.229  1.00  0.00    -0.304 A  
HETATM    9  C   UNL     1     -12.297  10.956  69.951  1.00  0.00    -0.354 A  
HETATM   10  C   UNL     1     -10.426   9.436  69.807  1.00  0.00    -0.243 A  
HETATM   11  C   UNL     1     -12.593  10.465  71.225  1.00  0.00    -0.525 A  
HETATM   12  C   UNL     1     -10.721   8.952  71.083  1.00  0.00    -0.333 A  
HETATM   13  C   UNL     1     -11.803   9.467  71.792  1.00  0.00    -0.452 A  
ENDBRANCH   7   8
BRANCH   7  14
HETATM   14  C   UNL     1     -10.808  12.507  67.820  1.00  0.00    -0.254 A  
HETATM   15  C   UNL     1      -9.497  14.532  68.170  1.00  0.00    -0.208 A  
HETATM   16  C   UNL     1     -11.750  14.695  67.308  1.00  0.00    -0.406 A  
HETATM   17  C   UNL     1      -9.617  13.140  68.218  1.00  0.00    -0.218 A  
HETATM   18 BR   UNL     1     -10.400  17.183  67.642  1.00  0.00    -0.353 Br 
HETATM   19  C   UNL     1     -11.871  13.305  67.361  1.00  0.00    -0.413 A  
HETATM   20  C   UNL     1     -10.565  15.301  67.714  1.00  0.00    -0.266 A  
ENDBRANCH   7  14
ENDBRANCH   6   7
ENDBRANCH   5   6
ENDBRANCH   4   5
ENDBRANCH   2   4
TORSDOF 6
ENDMDL
MODEL       55
REMARK 921   NORMALIZED FREE ENERGY PREDICTED BY IDOCK:   -4.67 KCAL/MOL
REMARK 922        TOTAL FREE ENERGY PREDICTED BY IDOCK:   -7.22 KCAL/MOL
REMARK 923 INTER-LIGAND FREE ENERGY PREDICTED BY IDOCK:   -6.33 KCAL/MOL
REMARK 924 INTRA-LIGAND FREE ENERGY PREDICTED BY IDOCK:   -0.89 KCAL/MOL
REMARK 927      BINDING AFFINITY PREDICTED BY RF-SCORE:    0.00 PKD
ROOT
HETATM    1  C   UNL     1      -9.485   9.306  67.099  1.00  0.00    -0.149 C  
HETATM    2  N   UNL     1     -10.554   9.370  68.099  1.00  0.00    -0.225 NA 
HETATM    3  C   UNL     1     -10.588   8.118  68.860  1.00  0.00    -0.140 C  
ENDROOT
BRANCH   2   4
HETATM    4  C   UNL     1     -10.367  10.549  68.972  1.00  0.00    -0.213 C  
BRANCH   4   5
HETATM    5  C   UNL     1      -9.572  11.683  68.304  1.00  0.00    -0.198 C  
BRANCH   5   6
HETATM    6  O   UNL     1     -10.422  12.801  68.023  1.00  0.00    -0.214 OA 
BRANCH   6   7
HETATM    7  C   UNL     1     -10.021  13.488  66.819  1.00  0.00    -0.269 C  
BRANCH   7   8
HETATM    8  C   UNL     1     -10.825  13.013  65.613  1.00  0.00    -0.293 A  
HETATM    9  C   UNL     1     -12.226  13.121  65.611  1.00  0.00    -0.521 A  
HETATM   10  C   UNL     1     -10.191  12.486  64.477  1.00  0.00    -0.332 A  
HETATM   11  C   UNL     1     -12.968  12.698  64.507  1.00  0.00    -0.236 A  
HETATM   12  C   UNL     1     -10.936  12.059  63.378  1.00  0.00    -0.475 A  
HETATM   13  C   UNL     1     -12.325  12.164  63.392  1.00  0.00    -0.648 A  
ENDBRANCH   7   8
BRANCH   7  14
HETATM   14  C   UNL     1     -10.134  14.996  67.012  1.00  0.00    -0.244 A  
HETATM   15  C   UNL     1     -10.207  17.231  66.043  1.00  0.00    -0.314 A  
HETATM   16  C   UNL     1     -10.523  16.945  68.422  1.00  0.00    -0.355 A  
HETATM   17  C   UNL     1     -10.060  15.849  65.896  1.00  0.00    -0.376 A  
HETATM   18 BR   UNL     1     -10.645  19.640  67.502  1.00  0.00    -0.538 Br 
HETATM   19  C   UNL     1     -10.371  15.564  68.276  1.00  0.00    -0.235 A  
HETATM   20  C   UNL     1     -10.438  17.771  67.305  1.00  0.00    -0.353 A  
ENDBRANCH   7  14
ENDBRANCH   6   7
ENDBRANCH   5   6
ENDBRANCH   4   5
ENDBRANCH   2   4
TORSDOF 6
ENDMDL
MODEL       56
REMARK 921   NORMALIZED FREE ENERGY PREDICTED BY IDOCK:   -4.66 KCAL/MOL
REMARK 922        TOTAL FREE ENERGY PREDICTED BY IDOCK:   -7.21 KCAL/MOL
REMARK 923 INTER-LIGAND FREE ENERGY PREDICTED BY IDOCK:   -6.32 KCAL/MOL
REMARK 924 INTRA-LIGAND FREE ENERGY PREDICTED BY IDOCK:   -0.89 KCAL/MOL
REMARK 927      BINDING AFFINITY PREDICTED BY RF-SCORE:    0.00 PKD
ROOT
HETATM    1  C   UNL     1     -11.396  11.879  63.837  1.00  0.00    -0.428 C  
HETATM    2  N   UNL     1     -10.316  10.892  63.898  1.00  0.00    -0.356 NA 
HETATM    3  C   UNL     1      -9.333  11.176  62.849  1.00  0.00    -0.364 C  
ENDROOT
BRANCH   2   4
HETATM    4  C   UNL     1      -9.706  10.885  65.246  1.00  0.00    -0.246 C  
BRANCH   4   5
HETATM    5  C   UNL     1     -10.732  10.716  66.378  1.00  0.00    -0.129 C  
BRANCH   5   6
HETATM    6  O   UNL     1     -10.345  11.473  67.531  1.00  0.00    -0.188 OA 
BRANCH   6   7
HETATM    7  C   UNL     1     -11.171  12.642  67.705  1.00  0.00    -0.283 C  
BRANCH   7   8
HETATM    8  C   UNL     1     -11.779  12.693  69.103  1.00  0.00    -0.375 A  
HETATM    9  C   UNL     1     -12.150  13.924  69.667  1.00  0.00    -0.404 A  
HETATM   10  C   UNL     1     -12.004  11.520  69.842  1.00  0.00    -0.426 A  
HETATM   11  C   UNL     1     -12.717  13.978  70.942  1.00  0.00    -0.420 A  
HETATM   12  C   UNL     1     -12.565  11.579  71.118  1.00  0.00    -0.463 A  
HETATM   13  C   UNL     1     -12.920  12.807  71.669  1.00  0.00    -0.402 A  
ENDBRANCH   7   8
BRANCH   7  14
HETATM   14  C   UNL     1     -10.371  13.902  67.393  1.00  0.00    -0.252 A  
HETATM   15  C   UNL     1      -8.367  15.246  67.732  1.00  0.00    -0.161 A  
HETATM   16  C   UNL     1     -10.027  15.953  66.124  1.00  0.00    -0.337 A  
HETATM   17  C   UNL     1      -9.139  14.122  68.035  1.00  0.00    -0.191 A  
HETATM   18 BR   UNL     1      -7.766  17.672  66.360  1.00  0.00    -0.331 Br 
HETATM   19  C   UNL     1     -10.802  14.832  66.431  1.00  0.00    -0.322 A  
HETATM   20  C   UNL     1      -8.815  16.155  66.776  1.00  0.00    -0.244 A  
ENDBRANCH   7  14
ENDBRANCH   6   7
ENDBRANCH   5   6
ENDBRANCH   4   5
ENDBRANCH   2   4
TORSDOF 6
ENDMDL
MODEL       57
REMARK 921   NORMALIZED FREE ENERGY PREDICTED BY IDOCK:   -4.63 KCAL/MOL
REMARK 922        TOTAL FREE ENERGY PREDICTED BY IDOCK:   -7.17 KCAL/MOL
REMARK 923 INTER-LIGAND FREE ENERGY PREDICTED BY IDOCK:   -6.41 KCAL/MOL
REMARK 924 INTRA-LIGAND FREE ENERGY PREDICTED BY IDOCK:   -0.76 KCAL/MOL
REMARK 927      BINDING AFFINITY PREDICTED BY RF-SCORE:    0.00 PKD
ROOT
HETATM    1  C   UNL     1      -9.471   4.427  68.017  1.00  0.00    -0.156 C  
HETATM    2  N   UNL     1      -9.877   5.367  66.969  1.00  0.00    -0.147 NA 
HETATM    3  C   UNL     1     -10.435   4.625  65.835  1.00  0.00    -0.268 C  
ENDROOT
BRANCH   2   4
HETATM    4  C   UNL     1     -10.833   6.355  67.513  1.00  0.00    -0.354 C  
BRANCH   4   5
HETATM    5  C   UNL     1     -11.081   6.197  69.022  1.00  0.00    -0.367 C  
BRANCH   5   6
HETATM    6  O   UNL     1     -10.806   7.422  69.713  1.00  0.00    -0.246 OA 
BRANCH   6   7
HETATM    7  C   UNL     1     -11.679   7.604  70.847  1.00  0.00    -0.271 C  
BRANCH   7   8
HETATM    8  C   UNL     1     -11.074   7.014  72.117  1.00  0.00    -0.279 A  
HETATM    9  C   UNL     1     -11.441   5.726  72.541  1.00  0.00    -0.349 A  
HETATM   10  C   UNL     1     -10.126   7.724  72.869  1.00  0.00    -0.363 A  
HETATM   11  C   UNL     1     -10.884   5.174  73.696  1.00  0.00    -0.363 A  
HETATM   12  C   UNL     1      -9.575   7.172  74.026  1.00  0.00    -0.311 A  
HETATM   13  C   UNL     1      -9.954   5.898  74.441  1.00  0.00    -0.279 A  
ENDBRANCH   7   8
BRANCH   7  14
HETATM   14  C   UNL     1     -12.017   9.081  71.018  1.00  0.00    -0.323 A  
HETATM   15  C   UNL     1     -11.676  11.398  70.345  1.00  0.00    -0.362 A  
HETATM   16  C   UNL     1     -13.354  10.865  72.001  1.00  0.00    -0.394 A  
HETATM   17  C   UNL     1     -11.351  10.043  70.238  1.00  0.00    -0.376 A  
HETATM   18 BR   UNL     1     -13.123  13.633  71.364  1.00  0.00    -0.369 Br 
HETATM   19  C   UNL     1     -13.025   9.511  71.898  1.00  0.00    -0.514 A  
HETATM   20  C   UNL     1     -12.677  11.801  71.225  1.00  0.00    -0.316 A  
ENDBRANCH   7  14
ENDBRANCH   6   7
ENDBRANCH   5   6
ENDBRANCH   4   5
ENDBRANCH   2   4
TORSDOF 6
ENDMDL
MODEL       58
REMARK 921   NORMALIZED FREE ENERGY PREDICTED BY IDOCK:   -4.63 KCAL/MOL
REMARK 922        TOTAL FREE ENERGY PREDICTED BY IDOCK:   -7.17 KCAL/MOL
REMARK 923 INTER-LIGAND FREE ENERGY PREDICTED BY IDOCK:   -6.25 KCAL/MOL
REMARK 924 INTRA-LIGAND FREE ENERGY PREDICTED BY IDOCK:   -0.92 KCAL/MOL
REMARK 927      BINDING AFFINITY PREDICTED BY RF-SCORE:    0.00 PKD
ROOT
HETATM    1  C   UNL     1     -10.119   6.301  66.643  1.00  0.00    -0.155 C  
HETATM    2  N   UNL     1     -10.399   5.243  67.616  1.00  0.00    -0.172 NA 
HETATM    3  C   UNL     1      -9.526   4.094  67.355  1.00  0.00    -0.187 C  
ENDROOT
BRANCH   2   4
HETATM    4  C   UNL     1     -10.241   5.760  68.993  1.00  0.00    -0.217 C  
BRANCH   4   5
HETATM    5  C   UNL     1     -11.502   6.455  69.531  1.00  0.00    -0.343 C  
BRANCH   5   6
HETATM    6  O   UNL     1     -11.270   7.857  69.712  1.00  0.00    -0.143 OA 
BRANCH   6   7
HETATM    7  C   UNL     1     -11.719   8.310  71.006  1.00  0.00    -0.270 C  
BRANCH   7   8
HETATM    8  C   UNL     1     -10.688   8.011  72.090  1.00  0.00    -0.339 A  
HETATM    9  C   UNL     1     -11.033   7.208  73.189  1.00  0.00    -0.344 A  
HETATM   10  C   UNL     1      -9.376   8.504  72.002  1.00  0.00    -0.353 A  
HETATM   11  C   UNL     1     -10.091   6.920  74.180  1.00  0.00    -0.351 A  
HETATM   12  C   UNL     1      -8.441   8.219  72.997  1.00  0.00    -0.262 A  
HETATM   13  C   UNL     1      -8.797   7.429  74.087  1.00  0.00    -0.273 A  
ENDBRANCH   7   8
BRANCH   7  14
HETATM   14  C   UNL     1     -12.065   9.795  70.953  1.00  0.00    -0.407 A  
HETATM   15  C   UNL     1     -13.227  11.709  71.913  1.00  0.00    -0.475 A  
HETATM   16  C   UNL     1     -11.784  12.019  70.000  1.00  0.00    -0.346 A  
HETATM   17  C   UNL     1     -12.932  10.343  71.914  1.00  0.00    -0.555 A  
HETATM   18 BR   UNL     1     -13.043  14.389  70.959  1.00  0.00    -0.395 Br 
HETATM   19  C   UNL     1     -11.493  10.653  69.998  1.00  0.00    -0.404 A  
HETATM   20  C   UNL     1     -12.650  12.539  70.956  1.00  0.00    -0.256 A  
ENDBRANCH   7  14
ENDBRANCH   6   7
ENDBRANCH   5   6
ENDBRANCH   4   5
ENDBRANCH   2   4
TORSDOF 6
ENDMDL
MODEL       59
REMARK 921   NORMALIZED FREE ENERGY PREDICTED BY IDOCK:   -4.60 KCAL/MOL
REMARK 922        TOTAL FREE ENERGY PREDICTED BY IDOCK:   -7.13 KCAL/MOL
REMARK 923 INTER-LIGAND FREE ENERGY PREDICTED BY IDOCK:   -6.23 KCAL/MOL
REMARK 924 INTRA-LIGAND FREE ENERGY PREDICTED BY IDOCK:   -0.90 KCAL/MOL
REMARK 927      BINDING AFFINITY PREDICTED BY RF-SCORE:    0.00 PKD
ROOT
HETATM    1  C   UNL     1     -13.326  15.720  72.804  1.00  0.00    -0.547 C  
HETATM    2  N   UNL     1     -12.930  14.487  72.120  1.00  0.00    -0.328 NA 
HETATM    3  C   UNL     1     -13.879  13.419  72.446  1.00  0.00    -0.564 C  
ENDROOT
BRANCH   2   4
HETATM    4  C   UNL     1     -12.833  14.720  70.663  1.00  0.00    -0.343 C  
BRANCH   4   5
HETATM    5  C   UNL     1     -12.383  13.479  69.875  1.00  0.00    -0.224 C  
BRANCH   5   6
HETATM    6  O   UNL     1     -11.900  13.848  68.578  1.00  0.00    -0.332 OA 
BRANCH   6   7
HETATM    7  C   UNL     1     -10.545  14.340  68.632  1.00  0.00    -0.250 C  
BRANCH   7   8
HETATM    8  C   UNL     1      -9.574  13.371  67.964  1.00  0.00    -0.219 A  
HETATM    9  C   UNL     1     -10.060  12.320  67.170  1.00  0.00    -0.218 A  
HETATM   10  C   UNL     1      -8.185  13.521  68.104  1.00  0.00    -0.162 A  
HETATM   11  C   UNL     1      -9.178  11.435  66.546  1.00  0.00    -0.200 A  
HETATM   12  C   UNL     1      -7.307  12.632  67.484  1.00  0.00    -0.151 A  
HETATM   13  C   UNL     1      -7.802  11.588  66.707  1.00  0.00    -0.146 A  
ENDBRANCH   7   8
BRANCH   7  14
HETATM   14  C   UNL     1     -10.466  15.731  68.013  1.00  0.00    -0.270 A  
HETATM   15  C   UNL     1     -10.172  18.134  68.296  1.00  0.00    -0.402 A  
HETATM   16  C   UNL     1     -10.377  17.204  66.074  1.00  0.00    -0.317 A  
HETATM   17  C   UNL     1     -10.293  16.853  68.843  1.00  0.00    -0.333 A  
HETATM   18 BR   UNL     1     -10.041  20.032  66.174  1.00  0.00    -0.538 Br 
HETATM   19  C   UNL     1     -10.503  15.925  66.622  1.00  0.00    -0.306 A  
HETATM   20  C   UNL     1     -10.214  18.301  66.914  1.00  0.00    -0.375 A  
ENDBRANCH   7  14
ENDBRANCH   6   7
ENDBRANCH   5   6
ENDBRANCH   4   5
ENDBRANCH   2   4
TORSDOF 6
ENDMDL
MODEL       60
REMARK 921   NORMALIZED FREE ENERGY PREDICTED BY IDOCK:   -4.52 KCAL/MOL
REMARK 922        TOTAL FREE ENERGY PREDICTED BY IDOCK:   -7.02 KCAL/MOL
REMARK 923 INTER-LIGAND FREE ENERGY PREDICTED BY IDOCK:   -6.34 KCAL/MOL
REMARK 924 INTRA-LIGAND FREE ENERGY PREDICTED BY IDOCK:   -0.68 KCAL/MOL
REMARK 927      BINDING AFFINITY PREDICTED BY RF-SCORE:    0.00 PKD
ROOT
HETATM    1  C   UNL     1     -13.844  13.222  72.451  1.00  0.00    -0.529 C  
HETATM    2  N   UNL     1     -13.622  14.670  72.436  1.00  0.00    -0.414 NA 
HETATM    3  C   UNL     1     -12.578  15.014  73.406  1.00  0.00    -0.518 C  
ENDROOT
BRANCH   2   4
HETATM    4  C   UNL     1     -13.284  15.121  71.069  1.00  0.00    -0.450 C  
BRANCH   4   5
HETATM    5  C   UNL     1     -11.876  15.730  70.959  1.00  0.00    -0.420 C  
BRANCH   5   6
HETATM    6  O   UNL     1     -10.945  14.768  70.449  1.00  0.00    -0.176 OA 
BRANCH   6   7
HETATM    7  C   UNL     1     -11.218  14.439  69.071  1.00  0.00    -0.264 C  
BRANCH   7   8
HETATM    8  C   UNL     1     -10.410  15.316  68.119  1.00  0.00    -0.242 A  
HETATM    9  C   UNL     1      -9.296  16.029  68.591  1.00  0.00    -0.214 A  
HETATM   10  C   UNL     1     -10.741  15.408  66.758  1.00  0.00    -0.310 A  
HETATM   11  C   UNL     1      -8.545  16.825  67.723  1.00  0.00    -0.199 A  
HETATM   12  C   UNL     1      -9.991  16.209  65.896  1.00  0.00    -0.384 A  
HETATM   13  C   UNL     1      -8.895  16.919  66.378  1.00  0.00    -0.322 A  
ENDBRANCH   7   8
BRANCH   7  14
HETATM   14  C   UNL     1     -10.963  12.956  68.824  1.00  0.00    -0.292 A  
HETATM   15  C   UNL     1     -11.642  10.636  69.131  1.00  0.00    -0.342 A  
HETATM   16  C   UNL     1      -9.729  11.153  67.747  1.00  0.00    -0.183 A  
HETATM   17  C   UNL     1     -11.829  11.998  69.381  1.00  0.00    -0.384 A  
HETATM   18 BR   UNL     1     -10.345   8.379  67.968  1.00  0.00    -0.253 Br 
HETATM   19  C   UNL     1      -9.912  12.514  68.001  1.00  0.00    -0.219 A  
HETATM   20  C   UNL     1     -10.593  10.221  68.314  1.00  0.00    -0.221 A  
ENDBRANCH   7  14
ENDBRANCH   6   7
ENDBRANCH   5   6
ENDBRANCH   4   5
ENDBRANCH   2   4
TORSDOF 6
ENDMDL
MODEL       61
REMARK 921   NORMALIZED FREE ENERGY PREDICTED BY IDOCK:   -4.50 KCAL/MOL
REMARK 922        TOTAL FREE ENERGY PREDICTED BY IDOCK:   -7.00 KCAL/MOL
REMARK 923 INTER-LIGAND FREE ENERGY PREDICTED BY IDOCK:   -6.14 KCAL/MOL
REMARK 924 INTRA-LIGAND FREE ENERGY PREDICTED BY IDOCK:   -0.86 KCAL/MOL
REMARK 927      BINDING AFFINITY PREDICTED BY RF-SCORE:    0.00 PKD
ROOT
HETATM    1  C   UNL     1     -12.788  15.351  70.751  1.00  0.00    -0.466 C  
HETATM    2  N   UNL     1     -12.807  14.129  71.558  1.00  0.00    -0.336 NA 
HETATM    3  C   UNL     1     -14.120  13.981  72.192  1.00  0.00    -0.547 C  
ENDROOT
BRANCH   2   4
HETATM    4  C   UNL     1     -12.457  12.960  70.723  1.00  0.00    -0.286 C  
BRANCH   4   5
HETATM    5  C   UNL     1     -12.886  11.619  71.339  1.00  0.00    -0.356 C  
BRANCH   5   6
HETATM    6  O   UNL     1     -12.565  10.531  70.464  1.00  0.00    -0.331 OA 
BRANCH   6   7
HETATM    7  C   UNL     1     -11.210  10.075  70.655  1.00  0.00    -0.350 C  
BRANCH   7   8
HETATM    8  C   UNL     1     -11.173   8.661  71.228  1.00  0.00    -0.338 A  
HETATM    9  C   UNL     1     -11.390   7.555  70.390  1.00  0.00    -0.253 A  
HETATM   10  C   UNL     1     -10.900   8.433  72.586  1.00  0.00    -0.308 A  
HETATM   11  C   UNL     1     -11.348   6.257  70.905  1.00  0.00    -0.389 A  
HETATM   12  C   UNL     1     -10.865   7.136  73.097  1.00  0.00    -0.373 A  
HETATM   13  C   UNL     1     -11.090   6.048  72.258  1.00  0.00    -0.324 A  
ENDBRANCH   7   8
BRANCH   7  14
HETATM   14  C   UNL     1     -10.433  10.171  69.346  1.00  0.00    -0.254 A  
HETATM   15  C   UNL     1      -8.303  10.093  68.165  1.00  0.00    -0.117 A  
HETATM   16  C   UNL     1     -10.358  10.351  66.917  1.00  0.00    -0.297 A  
HETATM   17  C   UNL     1      -9.032  10.054  69.356  1.00  0.00    -0.205 A  
HETATM   18 BR   UNL     1      -7.986  10.285  65.338  1.00  0.00    -0.147 Br 
HETATM   19  C   UNL     1     -11.085  10.317  68.109  1.00  0.00    -0.324 A  
HETATM   20  C   UNL     1      -8.971  10.240  66.952  1.00  0.00    -0.136 A  
ENDBRANCH   7  14
ENDBRANCH   6   7
ENDBRANCH   5   6
ENDBRANCH   4   5
ENDBRANCH   2   4
TORSDOF 6
ENDMDL
MODEL       62
REMARK 921   NORMALIZED FREE ENERGY PREDICTED BY IDOCK:   -4.45 KCAL/MOL
REMARK 922        TOTAL FREE ENERGY PREDICTED BY IDOCK:   -6.93 KCAL/MOL
REMARK 923 INTER-LIGAND FREE ENERGY PREDICTED BY IDOCK:   -6.06 KCAL/MOL
REMARK 924 INTRA-LIGAND FREE ENERGY PREDICTED BY IDOCK:   -0.87 KCAL/MOL
REMARK 927      BINDING AFFINITY PREDICTED BY RF-SCORE:    0.00 PKD
ROOT
HETATM    1  C   UNL     1      -9.838   9.761  65.514  1.00  0.00    -0.308 C  
HETATM    2  N   UNL     1      -9.838   8.695  66.519  1.00  0.00    -0.259 NA 
HETATM    3  C   UNL     1      -8.545   8.005  66.500  1.00  0.00    -0.140 C  
ENDROOT
BRANCH   2   4
HETATM    4  C   UNL     1     -10.152   9.251  67.852  1.00  0.00    -0.200 C  
BRANCH   4   5
HETATM    5  C   UNL     1      -9.013  10.097  68.445  1.00  0.00    -0.123 C  
BRANCH   5   6
HETATM    6  O   UNL     1      -9.523  11.308  69.014  1.00  0.00    -0.135 OA 
BRANCH   6   7
HETATM    7  C   UNL     1     -10.893  11.546  68.628  1.00  0.00    -0.212 C  
BRANCH   7   8
HETATM    8  C   UNL     1     -11.767  11.857  69.840  1.00  0.00    -0.383 A  
HETATM    9  C   UNL     1     -12.057  13.189  70.175  1.00  0.00    -0.392 A  
HETATM   10  C   UNL     1     -12.317  10.831  70.623  1.00  0.00    -0.465 A  
HETATM   11  C   UNL     1     -12.865  13.483  71.276  1.00  0.00    -0.420 A  
HETATM   12  C   UNL     1     -13.119  11.128  71.726  1.00  0.00    -0.536 A  
HETATM   13  C   UNL     1     -13.392  12.453  72.054  1.00  0.00    -0.511 A  
ENDBRANCH   7   8
BRANCH   7  14
HETATM   14  C   UNL     1     -10.960  12.655  67.585  1.00  0.00    -0.275 A  
HETATM   15  C   UNL     1     -12.192  13.794  65.817  1.00  0.00    -0.495 A  
HETATM   16  C   UNL     1     -10.056  14.663  66.542  1.00  0.00    -0.286 A  
HETATM   17  C   UNL     1     -12.086  12.758  66.749  1.00  0.00    -0.290 A  
HETATM   18 BR   UNL     1     -11.322  16.148  64.465  1.00  0.00    -0.066 Br 
HETATM   19  C   UNL     1      -9.949  13.625  67.470  1.00  0.00    -0.230 A  
HETATM   20  C   UNL     1     -11.176  14.741  65.720  1.00  0.00    -0.337 A  
ENDBRANCH   7  14
ENDBRANCH   6   7
ENDBRANCH   5   6
ENDBRANCH   4   5
ENDBRANCH   2   4
TORSDOF 6
ENDMDL
MODEL       63
REMARK 921   NORMALIZED FREE ENERGY PREDICTED BY IDOCK:   -4.45 KCAL/MOL
REMARK 922        TOTAL FREE ENERGY PREDICTED BY IDOCK:   -6.93 KCAL/MOL
REMARK 923 INTER-LIGAND FREE ENERGY PREDICTED BY IDOCK:   -6.76 KCAL/MOL
REMARK 924 INTRA-LIGAND FREE ENERGY PREDICTED BY IDOCK:   -0.17 KCAL/MOL
REMARK 927      BINDING AFFINITY PREDICTED BY RF-SCORE:    0.00 PKD
ROOT
HETATM    1  C   UNL     1     -10.568   5.589  70.167  1.00  0.00    -0.297 C  
HETATM    2  N   UNL     1     -11.045   6.672  71.030  1.00  0.00    -0.267 NA 
HETATM    3  C   UNL     1     -10.222   6.730  72.242  1.00  0.00    -0.189 C  
ENDROOT
BRANCH   2   4
HETATM    4  C   UNL     1     -11.039   7.954  70.292  1.00  0.00    -0.229 C  
BRANCH   4   5
HETATM    5  C   UNL     1     -10.316   9.085  71.041  1.00  0.00    -0.278 C  
BRANCH   5   6
HETATM    6  O   UNL     1     -10.119  10.216  70.184  1.00  0.00    -0.246 OA 
BRANCH   6   7
HETATM    7  C   UNL     1     -11.356  10.656  69.586  1.00  0.00    -0.294 C  
BRANCH   7   8
HETATM    8  C   UNL     1     -11.955  11.834  70.349  1.00  0.00    -0.422 A  
HETATM    9  C   UNL     1     -11.627  13.150  69.986  1.00  0.00    -0.202 A  
HETATM   10  C   UNL     1     -12.860  11.633  71.403  1.00  0.00    -0.461 A  
HETATM   11  C   UNL     1     -12.179  14.234  70.672  1.00  0.00    -0.427 A  
HETATM   12  C   UNL     1     -13.405  12.718  72.090  1.00  0.00    -0.593 A  
HETATM   13  C   UNL     1     -13.064  14.018  71.726  1.00  0.00    -0.449 A  
ENDBRANCH   7   8
BRANCH   7  14
HETATM   14  C   UNL     1     -11.139  10.991  68.114  1.00  0.00    -0.329 A  
HETATM   15  C   UNL     1     -10.017  10.518  66.003  1.00  0.00    -0.295 A  
HETATM   16  C   UNL     1     -11.719  12.232  66.099  1.00  0.00    -0.440 A  
HETATM   17  C   UNL     1     -10.200  10.260  67.365  1.00  0.00    -0.265 A  
HETATM   18 BR   UNL     1     -10.537  11.845  63.535  1.00  0.00    -0.523 Br 
HETATM   19  C   UNL     1     -11.898  11.978  67.461  1.00  0.00    -0.275 A  
HETATM   20  C   UNL     1     -10.779  11.502  65.379  1.00  0.00    -0.278 A  
ENDBRANCH   7  14
ENDBRANCH   6   7
ENDBRANCH   5   6
ENDBRANCH   4   5
ENDBRANCH   2   4
TORSDOF 6
ENDMDL
MODEL       64
REMARK 921   NORMALIZED FREE ENERGY PREDICTED BY IDOCK:   -4.45 KCAL/MOL
REMARK 922        TOTAL FREE ENERGY PREDICTED BY IDOCK:   -6.92 KCAL/MOL
REMARK 923 INTER-LIGAND FREE ENERGY PREDICTED BY IDOCK:   -6.07 KCAL/MOL
REMARK 924 INTRA-LIGAND FREE ENERGY PREDICTED BY IDOCK:   -0.86 KCAL/MOL
REMARK 927      BINDING AFFINITY PREDICTED BY RF-SCORE:    0.00 PKD
ROOT
HETATM    1  C   UNL     1      -7.441  17.940  65.886  1.00  0.00    -0.177 C  
HETATM    2  N   UNL     1      -7.434  18.670  67.155  1.00  0.00    -0.220 NA 
HETATM    3  C   UNL     1      -7.536  20.109  66.893  1.00  0.00    -0.292 C  
ENDROOT
BRANCH   2   4
HETATM    4  C   UNL     1      -8.524  18.185  68.030  1.00  0.00    -0.262 C  
BRANCH   4   5
HETATM    5  C   UNL     1      -9.657  17.487  67.261  1.00  0.00    -0.273 C  
BRANCH   5   6
HETATM    6  O   UNL     1      -9.768  16.114  67.657  1.00  0.00    -0.229 OA 
BRANCH   6   7
HETATM    7  C   UNL     1     -11.145  15.694  67.747  1.00  0.00    -0.311 C  
BRANCH   7   8
HETATM    8  C   UNL     1     -11.385  14.402  66.970  1.00  0.00    -0.357 A  
HETATM    9  C   UNL     1     -12.130  14.423  65.780  1.00  0.00    -0.362 A  
HETATM   10  C   UNL     1     -10.852  13.180  67.408  1.00  0.00    -0.269 A  
HETATM   11  C   UNL     1     -12.345  13.247  65.057  1.00  0.00    -0.499 A  
HETATM   12  C   UNL     1     -11.074  12.007  66.687  1.00  0.00    -0.358 A  
HETATM   13  C   UNL     1     -11.821  12.039  65.513  1.00  0.00    -0.250 A  
ENDBRANCH   7   8
BRANCH   7  14
HETATM   14  C   UNL     1     -11.559  15.557  69.208  1.00  0.00    -0.369 A  
HETATM   15  C   UNL     1     -10.946  15.560  71.566  1.00  0.00    -0.151 A  
HETATM   16  C   UNL     1     -13.267  15.340  70.931  1.00  0.00    -0.506 A  
HETATM   17  C   UNL     1     -10.585  15.637  70.218  1.00  0.00    -0.329 A  
HETATM   18 BR   UNL     1     -12.775  15.318  73.738  1.00  0.00    -0.657 Br 
HETATM   19  C   UNL     1     -12.906  15.411  69.584  1.00  0.00     0.184 A  
HETATM   20  C   UNL     1     -12.286  15.413  71.915  1.00  0.00    -0.379 A  
ENDBRANCH   7  14
ENDBRANCH   6   7
ENDBRANCH   5   6
ENDBRANCH   4   5
ENDBRANCH   2   4
TORSDOF 6
ENDMDL
MODEL       65
REMARK 921   NORMALIZED FREE ENERGY PREDICTED BY IDOCK:   -4.42 KCAL/MOL
REMARK 922        TOTAL FREE ENERGY PREDICTED BY IDOCK:   -6.89 KCAL/MOL
REMARK 923 INTER-LIGAND FREE ENERGY PREDICTED BY IDOCK:   -5.98 KCAL/MOL
REMARK 924 INTRA-LIGAND FREE ENERGY PREDICTED BY IDOCK:   -0.92 KCAL/MOL
REMARK 927      BINDING AFFINITY PREDICTED BY RF-SCORE:    0.00 PKD
ROOT
HETATM    1  C   UNL     1     -14.372   8.194  71.727  1.00  0.00    -0.484 C  
HETATM    2  N   UNL     1     -13.205   8.907  72.252  1.00  0.00    -0.421 NA 
HETATM    3  C   UNL     1     -12.012   8.068  72.101  1.00  0.00    -0.348 C  
ENDROOT
BRANCH   2   4
HETATM    4  C   UNL     1     -13.057  10.213  71.575  1.00  0.00    -0.429 C  
BRANCH   4   5
HETATM    5  C   UNL     1     -11.668  10.421  70.950  1.00  0.00    -0.360 C  
BRANCH   5   6
HETATM    6  O   UNL     1     -11.781  10.760  69.562  1.00  0.00    -0.272 OA 
BRANCH   6   7
HETATM    7  C   UNL     1     -10.491  11.018  68.969  1.00  0.00    -0.216 C  
BRANCH   7   8
HETATM    8  C   UNL     1      -9.891   9.750  68.368  1.00  0.00    -0.168 A  
HETATM    9  C   UNL     1     -10.565   9.070  67.340  1.00  0.00    -0.309 A  
HETATM   10  C   UNL     1      -8.653   9.253  68.804  1.00  0.00    -0.131 A  
HETATM   11  C   UNL     1     -10.017   7.915  66.777  1.00  0.00    -0.333 A  
HETATM   12  C   UNL     1      -8.112   8.096  68.244  1.00  0.00    -0.128 A  
HETATM   13  C   UNL     1      -8.794   7.425  67.232  1.00  0.00    -0.124 A  
ENDBRANCH   7   8
BRANCH   7  14
HETATM   14  C   UNL     1     -10.602  12.133  67.934  1.00  0.00    -0.230 A  
HETATM   15  C   UNL     1     -11.987  13.716  66.703  1.00  0.00    -0.458 A  
HETATM   16  C   UNL     1      -9.586  13.750  66.422  1.00  0.00    -0.285 A  
HETATM   17  C   UNL     1     -11.864  12.663  67.614  1.00  0.00    -0.390 A  
HETATM   18 BR   UNL     1     -11.010  15.685  64.888  1.00  0.00    -0.381 Br 
HETATM   19  C   UNL     1      -9.465  12.694  67.328  1.00  0.00    -0.199 A  
HETATM   20  C   UNL     1     -10.846  14.254  66.113  1.00  0.00    -0.310 A  
ENDBRANCH   7  14
ENDBRANCH   6   7
ENDBRANCH   5   6
ENDBRANCH   4   5
ENDBRANCH   2   4
TORSDOF 6
ENDMDL
MODEL       66
REMARK 921   NORMALIZED FREE ENERGY PREDICTED BY IDOCK:   -4.41 KCAL/MOL
REMARK 922        TOTAL FREE ENERGY PREDICTED BY IDOCK:   -6.88 KCAL/MOL
REMARK 923 INTER-LIGAND FREE ENERGY PREDICTED BY IDOCK:   -6.32 KCAL/MOL
REMARK 924 INTRA-LIGAND FREE ENERGY PREDICTED BY IDOCK:   -0.56 KCAL/MOL
REMARK 927      BINDING AFFINITY PREDICTED BY RF-SCORE:    0.00 PKD
ROOT
HETATM    1  C   UNL     1      -9.768  17.572  68.652  1.00  0.00    -0.319 C  
HETATM    2  N   UNL     1     -11.022  16.818  68.595  1.00  0.00    -0.328 NA 
HETATM    3  C   UNL     1     -11.044  15.996  67.381  1.00  0.00    -0.167 C  
ENDROOT
BRANCH   2   4
HETATM    4  C   UNL     1     -11.186  16.007  69.820  1.00  0.00    -0.344 C  
BRANCH   4   5
HETATM    5  C   UNL     1     -12.194  14.857  69.660  1.00  0.00    -0.261 C  
BRANCH   5   6
HETATM    6  O   UNL     1     -11.676  13.645  70.220  1.00  0.00    -0.270 OA 
BRANCH   6   7
HETATM    7  C   UNL     1     -11.979  12.502  69.393  1.00  0.00    -0.256 C  
BRANCH   7   8
HETATM    8  C   UNL     1     -11.139  12.498  68.119  1.00  0.00    -0.282 A  
HETATM    9  C   UNL     1      -9.760  12.752  68.182  1.00  0.00    -0.223 A  
HETATM   10  C   UNL     1     -11.715  12.219  66.869  1.00  0.00    -0.404 A  
HETATM   11  C   UNL     1      -8.982  12.739  67.022  1.00  0.00    -0.221 A  
HETATM   12  C   UNL     1     -10.936  12.213  65.712  1.00  0.00    -0.338 A  
HETATM   13  C   UNL     1      -9.571  12.475  65.787  1.00  0.00    -0.137 A  
ENDBRANCH   7   8
BRANCH   7  14
HETATM   14  C   UNL     1     -11.798  11.214  70.190  1.00  0.00    -0.449 A  
HETATM   15  C   UNL     1     -10.449   9.258  70.729  1.00  0.00    -0.343 A  
HETATM   16  C   UNL     1     -12.503   9.667  71.934  1.00  0.00    -0.459 A  
HETATM   17  C   UNL     1     -10.658  10.418  69.979  1.00  0.00    -0.282 A  
HETATM   18 BR   UNL     1     -11.085   7.325  72.725  1.00  0.00    -0.369 Br 
HETATM   19  C   UNL     1     -12.715  10.824  71.180  1.00  0.00    -0.532 A  
HETATM   20  C   UNL     1     -11.372   8.890  71.704  1.00  0.00    -0.337 A  
ENDBRANCH   7  14
ENDBRANCH   6   7
ENDBRANCH   5   6
ENDBRANCH   4   5
ENDBRANCH   2   4
TORSDOF 6
ENDMDL
MODEL       67
REMARK 921   NORMALIZED FREE ENERGY PREDICTED BY IDOCK:   -4.41 KCAL/MOL
REMARK 922        TOTAL FREE ENERGY PREDICTED BY IDOCK:   -6.87 KCAL/MOL
REMARK 923 INTER-LIGAND FREE ENERGY PREDICTED BY IDOCK:   -5.89 KCAL/MOL
REMARK 924 INTRA-LIGAND FREE ENERGY PREDICTED BY IDOCK:   -0.97 KCAL/MOL
REMARK 927      BINDING AFFINITY PREDICTED BY RF-SCORE:    0.00 PKD
ROOT
HETATM    1  C   UNL     1     -13.969   8.906  72.218  1.00  0.00    -0.466 C  
HETATM    2  N   UNL     1     -13.017   9.740  71.481  1.00  0.00    -0.377 NA 
HETATM    3  C   UNL     1     -13.154  11.135  71.909  1.00  0.00    -0.408 C  
ENDROOT
BRANCH   2   4
HETATM    4  C   UNL     1     -11.641   9.233  71.669  1.00  0.00    -0.393 C  
BRANCH   4   5
HETATM    5  C   UNL     1     -10.874   9.047  70.349  1.00  0.00    -0.246 C  
BRANCH   5   6
HETATM    6  O   UNL     1     -10.562  10.315  69.761  1.00  0.00    -0.242 OA 
BRANCH   6   7
HETATM    7  C   UNL     1     -10.938  10.366  68.369  1.00  0.00    -0.264 C  
BRANCH   7   8
HETATM    8  C   UNL     1     -11.321  11.781  67.946  1.00  0.00    -0.362 A  
HETATM    9  C   UNL     1     -11.456  12.792  68.910  1.00  0.00    -0.352 A  
HETATM   10  C   UNL     1     -11.519  12.108  66.595  1.00  0.00    -0.426 A  
HETATM   11  C   UNL     1     -11.796  14.093  68.530  1.00  0.00    -0.390 A  
HETATM   12  C   UNL     1     -11.864  13.407  66.220  1.00  0.00    -0.438 A  
HETATM   13  C   UNL     1     -12.004  14.399  67.187  1.00  0.00    -0.419 A  
ENDBRANCH   7   8
BRANCH   7  14
HETATM   14  C   UNL     1      -9.817   9.802  67.501  1.00  0.00    -0.209 A  
HETATM   15  C   UNL     1      -7.467   9.803  66.856  1.00  0.00    -0.091 A  
HETATM   16  C   UNL     1      -8.977   8.185  65.884  1.00  0.00    -0.195 A  
HETATM   17  C   UNL     1      -8.520  10.333  67.607  1.00  0.00    -0.118 A  
HETATM   18 BR   UNL     1      -6.277   8.008  64.989  1.00  0.00    -0.045 Br 
HETATM   19  C   UNL     1     -10.030   8.719  66.631  1.00  0.00    -0.355 A  
HETATM   20  C   UNL     1      -7.703   8.731  65.999  1.00  0.00    -0.097 A  
ENDBRANCH   7  14
ENDBRANCH   6   7
ENDBRANCH   5   6
ENDBRANCH   4   5
ENDBRANCH   2   4
TORSDOF 6
ENDMDL
MODEL       68
REMARK 921   NORMALIZED FREE ENERGY PREDICTED BY IDOCK:   -4.36 KCAL/MOL
REMARK 922        TOTAL FREE ENERGY PREDICTED BY IDOCK:   -6.81 KCAL/MOL
REMARK 923 INTER-LIGAND FREE ENERGY PREDICTED BY IDOCK:   -6.09 KCAL/MOL
REMARK 924 INTRA-LIGAND FREE ENERGY PREDICTED BY IDOCK:   -0.72 KCAL/MOL
REMARK 927      BINDING AFFINITY PREDICTED BY RF-SCORE:    0.00 PKD
ROOT
HETATM    1  C   UNL     1     -13.406  11.789  71.940  1.00  0.00    -0.296 C  
HETATM    2  N   UNL     1     -12.738  10.527  71.615  1.00  0.00    -0.436 NA 
HETATM    3  C   UNL     1     -13.530   9.407  72.131  1.00  0.00    -0.471 C  
ENDROOT
BRANCH   2   4
HETATM    4  C   UNL     1     -12.518  10.427  70.156  1.00  0.00    -0.176 C  
BRANCH   4   5
HETATM    5  C   UNL     1     -11.324  11.260  69.661  1.00  0.00    -0.287 C  
BRANCH   5   6
HETATM    6  O   UNL     1     -11.663  11.971  68.465  1.00  0.00    -0.295 OA 
BRANCH   6   7
HETATM    7  C   UNL     1     -10.562  12.003  67.532  1.00  0.00    -0.221 C  
BRANCH   7   8
HETATM    8  C   UNL     1     -11.045  12.269  66.110  1.00  0.00    -0.349 A  
HETATM    9  C   UNL     1     -12.042  13.229  65.871  1.00  0.00    -0.493 A  
HETATM   10  C   UNL     1     -10.491  11.588  65.014  1.00  0.00    -0.344 A  
HETATM   11  C   UNL     1     -12.481  13.487  64.571  1.00  0.00    -0.344 A  
HETATM   12  C   UNL     1     -10.937  11.844  63.717  1.00  0.00    -0.494 A  
HETATM   13  C   UNL     1     -11.933  12.792  63.495  1.00  0.00    -0.633 A  
ENDBRANCH   7   8
BRANCH   7  14
HETATM   14  C   UNL     1      -9.526  13.030  67.977  1.00  0.00    -0.217 A  
HETATM   15  C   UNL     1      -7.196  13.731  68.107  1.00  0.00    -0.121 A  
HETATM   16  C   UNL     1      -8.938  15.202  68.912  1.00  0.00    -0.206 A  
HETATM   17  C   UNL     1      -8.160  12.785  67.750  1.00  0.00    -0.168 A  
HETATM   18 BR   UNL     1      -6.287  16.219  69.161  1.00  0.00    -0.180 Br 
HETATM   19  C   UNL     1      -9.901  14.253  68.560  1.00  0.00    -0.231 A  
HETATM   20  C   UNL     1      -7.591  14.935  68.685  1.00  0.00    -0.124 A  
ENDBRANCH   7  14
ENDBRANCH   6   7
ENDBRANCH   5   6
ENDBRANCH   4   5
ENDBRANCH   2   4
TORSDOF 6
ENDMDL
MODEL       69
REMARK 921   NORMALIZED FREE ENERGY PREDICTED BY IDOCK:   -4.36 KCAL/MOL
REMARK 922        TOTAL FREE ENERGY PREDICTED BY IDOCK:   -6.80 KCAL/MOL
REMARK 923 INTER-LIGAND FREE ENERGY PREDICTED BY IDOCK:   -5.91 KCAL/MOL
REMARK 924 INTRA-LIGAND FREE ENERGY PREDICTED BY IDOCK:   -0.89 KCAL/MOL
REMARK 927      BINDING AFFINITY PREDICTED BY RF-SCORE:    0.00 PKD
ROOT
HETATM    1  C   UNL     1      -9.970   5.253  68.097  1.00  0.00    -0.155 C  
HETATM    2  N   UNL     1      -8.614   5.790  68.225  1.00  0.00    -0.112 NA 
HETATM    3  C   UNL     1      -7.885   5.582  66.970  1.00  0.00    -0.101 C  
ENDROOT
BRANCH   2   4
HETATM    4  C   UNL     1      -8.663   7.216  68.610  1.00  0.00    -0.127 C  
BRANCH   4   5
HETATM    5  C   UNL     1     -10.045   7.856  68.404  1.00  0.00    -0.194 C  
BRANCH   5   6
HETATM    6  O   UNL     1     -10.230   8.963  69.295  1.00  0.00    -0.198 OA 
BRANCH   6   7
HETATM    7  C   UNL     1     -11.390   8.785  70.135  1.00  0.00    -0.090 C  
BRANCH   7   8
HETATM    8  C   UNL     1     -11.071   7.918  71.349  1.00  0.00    -0.275 A  
HETATM    9  C   UNL     1     -11.788   6.733  71.577  1.00  0.00    -0.378 A  
HETATM   10  C   UNL     1     -10.046   8.266  72.242  1.00  0.00    -0.370 A  
HETATM   11  C   UNL     1     -11.495   5.927  72.679  1.00  0.00    -0.319 A  
HETATM   12  C   UNL     1      -9.760   7.462  73.346  1.00  0.00    -0.319 A  
HETATM   13  C   UNL     1     -10.485   6.294  73.567  1.00  0.00    -0.288 A  
ENDBRANCH   7   8
BRANCH   7  14
HETATM   14  C   UNL     1     -11.955  10.141  70.545  1.00  0.00    -0.400 A  
HETATM   15  C   UNL     1     -13.343  11.462  72.050  1.00  0.00    -0.388 A  
HETATM   16  C   UNL     1     -12.051  12.566  70.332  1.00  0.00    -0.380 A  
HETATM   17  C   UNL     1     -12.848  10.225  71.627  1.00  0.00    -0.568 A  
HETATM   18 BR   UNL     1     -13.604  14.299  71.978  1.00  0.00    -0.572 Br 
HETATM   19  C   UNL     1     -11.561  11.330  69.906  1.00  0.00    -0.413 A  
HETATM   20  C   UNL     1     -12.941  12.625  71.400  1.00  0.00    -0.258 A  
ENDBRANCH   7  14
ENDBRANCH   6   7
ENDBRANCH   5   6
ENDBRANCH   4   5
ENDBRANCH   2   4
TORSDOF 6
ENDMDL
MODEL       70
REMARK 921   NORMALIZED FREE ENERGY PREDICTED BY IDOCK:   -4.35 KCAL/MOL
REMARK 922        TOTAL FREE ENERGY PREDICTED BY IDOCK:   -6.79 KCAL/MOL
REMARK 923 INTER-LIGAND FREE ENERGY PREDICTED BY IDOCK:   -6.00 KCAL/MOL
REMARK 924 INTRA-LIGAND FREE ENERGY PREDICTED BY IDOCK:   -0.79 KCAL/MOL
REMARK 927      BINDING AFFINITY PREDICTED BY RF-SCORE:    0.00 PKD
ROOT
HETATM    1  C   UNL     1      -8.608   8.134  73.454  1.00  0.00    -0.247 C  
HETATM    2  N   UNL     1      -7.745   8.657  72.392  1.00  0.00    -0.342 NA 
HETATM    3  C   UNL     1      -6.344   8.576  72.816  1.00  0.00    -0.087 C  
ENDROOT
BRANCH   2   4
HETATM    4  C   UNL     1      -7.988   7.926  71.130  1.00  0.00    -0.091 C  
BRANCH   4   5
HETATM    5  C   UNL     1      -7.882   8.815  69.880  1.00  0.00    -0.093 C  
BRANCH   5   6
HETATM    6  O   UNL     1      -8.672  10.000  70.031  1.00  0.00    -0.191 OA 
BRANCH   6   7
HETATM    7  C   UNL     1      -9.923   9.902  69.320  1.00  0.00    -0.207 C  
BRANCH   7   8
HETATM    8  C   UNL     1     -11.112   9.966  70.275  1.00  0.00    -0.368 A  
HETATM    9  C   UNL     1     -11.495   8.827  71.001  1.00  0.00    -0.337 A  
HETATM   10  C   UNL     1     -11.828  11.158  70.467  1.00  0.00    -0.448 A  
HETATM   11  C   UNL     1     -12.575   8.879  71.885  1.00  0.00    -0.439 A  
HETATM   12  C   UNL     1     -12.910  11.205  71.346  1.00  0.00    -0.544 A  
HETATM   13  C   UNL     1     -13.285  10.067  72.054  1.00  0.00    -0.545 A  
ENDBRANCH   7   8
BRANCH   7  14
HETATM   14  C   UNL     1     -10.005  10.983  68.247  1.00  0.00    -0.190 A  
HETATM   15  C   UNL     1     -11.169  11.956  66.341  1.00  0.00    -0.387 A  
HETATM   16  C   UNL     1      -9.219  13.060  67.245  1.00  0.00    -0.213 A  
HETATM   17  C   UNL     1     -11.048  10.952  67.305  1.00  0.00    -0.350 A  
HETATM   18 BR   UNL     1     -10.423  14.368  65.018  1.00  0.00    -0.444 Br 
HETATM   19  C   UNL     1      -9.094  12.053  68.205  1.00  0.00    -0.190 A  
HETATM   20  C   UNL     1     -10.254  13.005  66.317  1.00  0.00    -0.288 A  
ENDBRANCH   7  14
ENDBRANCH   6   7
ENDBRANCH   5   6
ENDBRANCH   4   5
ENDBRANCH   2   4
TORSDOF 6
ENDMDL
MODEL       71
REMARK 921   NORMALIZED FREE ENERGY PREDICTED BY IDOCK:   -4.35 KCAL/MOL
REMARK 922        TOTAL FREE ENERGY PREDICTED BY IDOCK:   -6.79 KCAL/MOL
REMARK 923 INTER-LIGAND FREE ENERGY PREDICTED BY IDOCK:   -6.06 KCAL/MOL
REMARK 924 INTRA-LIGAND FREE ENERGY PREDICTED BY IDOCK:   -0.73 KCAL/MOL
REMARK 927      BINDING AFFINITY PREDICTED BY RF-SCORE:    0.00 PKD
ROOT
HETATM    1  C   UNL     1      -8.546   8.361  72.051  1.00  0.00    -0.191 C  
HETATM    2  N   UNL     1      -8.468   9.342  70.967  1.00  0.00    -0.298 NA 
HETATM    3  C   UNL     1      -7.074   9.487  70.537  1.00  0.00    -0.127 C  
ENDROOT
BRANCH   2   4
HETATM    4  C   UNL     1      -9.356   8.945  69.854  1.00  0.00    -0.166 C  
BRANCH   4   5
HETATM    5  C   UNL     1      -9.265   9.881  68.638  1.00  0.00    -0.139 C  
BRANCH   5   6
HETATM    6  O   UNL     1      -9.643  11.216  68.995  1.00  0.00    -0.175 OA 
BRANCH   6   7
HETATM    7  C   UNL     1     -11.010  11.501  68.631  1.00  0.00    -0.223 C  
BRANCH   7   8
HETATM    8  C   UNL     1     -11.855  11.835  69.856  1.00  0.00    -0.423 A  
HETATM    9  C   UNL     1     -12.367  10.804  70.661  1.00  0.00    -0.465 A  
HETATM   10  C   UNL     1     -12.116  13.165  70.219  1.00  0.00    -0.399 A  
HETATM   11  C   UNL     1     -13.133  11.102  71.791  1.00  0.00    -0.536 A  
HETATM   12  C   UNL     1     -12.886  13.458  71.345  1.00  0.00    -0.420 A  
HETATM   13  C   UNL     1     -13.396  12.428  72.130  1.00  0.00    -0.508 A  
ENDBRANCH   7   8
BRANCH   7  14
HETATM   14  C   UNL     1     -11.056  12.618  67.594  1.00  0.00    -0.303 A  
HETATM   15  C   UNL     1     -12.181  13.684  65.713  1.00  0.00    -0.503 A  
HETATM   16  C   UNL     1     -10.210  14.707  66.667  1.00  0.00    -0.275 A  
HETATM   17  C   UNL     1     -12.092  12.645  66.644  1.00  0.00    -0.267 A  
HETATM   18 BR   UNL     1     -11.364  16.119  64.478  1.00  0.00    -0.066 Br 
HETATM   19  C   UNL     1     -10.118  13.666  67.594  1.00  0.00    -0.242 A  
HETATM   20  C   UNL     1     -11.239  14.709  65.731  1.00  0.00    -0.336 A  
ENDBRANCH   7  14
ENDBRANCH   6   7
ENDBRANCH   5   6
ENDBRANCH   4   5
ENDBRANCH   2   4
TORSDOF 6
ENDMDL
MODEL       72
REMARK 921   NORMALIZED FREE ENERGY PREDICTED BY IDOCK:   -4.32 KCAL/MOL
REMARK 922        TOTAL FREE ENERGY PREDICTED BY IDOCK:   -6.75 KCAL/MOL
REMARK 923 INTER-LIGAND FREE ENERGY PREDICTED BY IDOCK:   -5.83 KCAL/MOL
REMARK 924 INTRA-LIGAND FREE ENERGY PREDICTED BY IDOCK:   -0.92 KCAL/MOL
REMARK 927      BINDING AFFINITY PREDICTED BY RF-SCORE:    0.00 PKD
ROOT
HETATM    1  C   UNL     1     -10.176  15.988  67.841  1.00  0.00    -0.258 C  
HETATM    2  N   UNL     1     -11.046  15.179  66.986  1.00  0.00    -0.334 NA 
HETATM    3  C   UNL     1     -10.231  14.254  66.193  1.00  0.00    -0.307 C  
ENDROOT
BRANCH   2   4
HETATM    4  C   UNL     1     -12.053  14.471  67.806  1.00  0.00    -0.234 C  
BRANCH   4   5
HETATM    5  C   UNL     1     -11.462  13.816  69.065  1.00  0.00    -0.305 C  
BRANCH   5   6
HETATM    6  O   UNL     1     -11.985  12.494  69.243  1.00  0.00    -0.296 OA 
BRANCH   6   7
HETATM    7  C   UNL     1     -10.972  11.576  69.702  1.00  0.00    -0.064 C  
BRANCH   7   8
HETATM    8  C   UNL     1     -11.559  10.515  70.628  1.00  0.00    -0.445 A  
HETATM    9  C   UNL     1     -12.865  10.657  71.124  1.00  0.00    -0.518 A  
HETATM   10  C   UNL     1     -10.826   9.371  70.982  1.00  0.00    -0.406 A  
HETATM   11  C   UNL     1     -13.415   9.685  71.963  1.00  0.00    -0.514 A  
HETATM   12  C   UNL     1     -11.376   8.405  71.825  1.00  0.00    -0.366 A  
HETATM   13  C   UNL     1     -12.669   8.562  72.318  1.00  0.00    -0.420 A  
ENDBRANCH   7   8
BRANCH   7  14
HETATM   14  C   UNL     1     -10.253  10.949  68.513  1.00  0.00    -0.197 A  
HETATM   15  C   UNL     1      -8.176  10.216  67.471  1.00  0.00    -0.114 A  
HETATM   16  C   UNL     1     -10.283   9.812  66.358  1.00  0.00    -0.288 A  
HETATM   17  C   UNL     1      -8.852  10.828  68.529  1.00  0.00    -0.149 A  
HETATM   18 BR   UNL     1      -7.981   8.874  64.964  1.00  0.00    -0.133 Br 
HETATM   19  C   UNL     1     -10.958  10.429  67.413  1.00  0.00    -0.335 A  
HETATM   20  C   UNL     1      -8.895   9.710  66.392  1.00  0.00    -0.150 A  
ENDBRANCH   7  14
ENDBRANCH   6   7
ENDBRANCH   5   6
ENDBRANCH   4   5
ENDBRANCH   2   4
TORSDOF 6
ENDMDL
MODEL       73
REMARK 921   NORMALIZED FREE ENERGY PREDICTED BY IDOCK:   -4.32 KCAL/MOL
REMARK 922        TOTAL FREE ENERGY PREDICTED BY IDOCK:   -6.75 KCAL/MOL
REMARK 923 INTER-LIGAND FREE ENERGY PREDICTED BY IDOCK:   -6.32 KCAL/MOL
REMARK 924 INTRA-LIGAND FREE ENERGY PREDICTED BY IDOCK:   -0.42 KCAL/MOL
REMARK 927      BINDING AFFINITY PREDICTED BY RF-SCORE:    0.00 PKD
ROOT
HETATM    1  C   UNL     1      -5.865  13.092  69.028  1.00  0.00    -0.079 C  
HETATM    2  N   UNL     1      -5.901  14.490  69.463  1.00  0.00    -0.094 NA 
HETATM    3  C   UNL     1      -5.220  15.329  68.473  1.00  0.00    -0.099 C  
ENDROOT
BRANCH   2   4
HETATM    4  C   UNL     1      -7.298  14.919  69.689  1.00  0.00    -0.153 C  
BRANCH   4   5
HETATM    5  C   UNL     1      -7.741  16.066  68.766  1.00  0.00    -0.187 C  
BRANCH   5   6
HETATM    6  O   UNL     1      -8.400  15.555  67.601  1.00  0.00    -0.144 OA 
BRANCH   6   7
HETATM    7  C   UNL     1      -9.818  15.821  67.629  1.00  0.00    -0.232 C  
BRANCH   7   8
HETATM    8  C   UNL     1     -10.112  17.300  67.396  1.00  0.00    -0.307 A  
HETATM    9  C   UNL     1     -10.120  18.196  68.478  1.00  0.00    -0.413 A  
HETATM   10  C   UNL     1     -10.353  17.799  66.107  1.00  0.00    -0.340 A  
HETATM   11  C   UNL     1     -10.378  19.553  68.272  1.00  0.00    -0.524 A  
HETATM   12  C   UNL     1     -10.616  19.155  65.906  1.00  0.00    -0.495 A  
HETATM   13  C   UNL     1     -10.630  20.032  66.987  1.00  0.00    -0.452 A  
ENDBRANCH   7   8
BRANCH   7  14
HETATM   14  C   UNL     1     -10.539  14.937  66.617  1.00  0.00    -0.305 A  
HETATM   15  C   UNL     1     -10.459  13.565  64.605  1.00  0.00    -0.439 A  
HETATM   16  C   UNL     1     -12.515  13.725  65.866  1.00  0.00    -0.512 A  
HETATM   17  C   UNL     1      -9.831  14.414  65.521  1.00  0.00    -0.299 A  
HETATM   18 BR   UNL     1     -12.645  12.069  63.551  1.00  0.00    -0.485 Br 
HETATM   19  C   UNL     1     -11.888  14.578  66.778  1.00  0.00    -0.390 A  
HETATM   20  C   UNL     1     -11.797  13.225  64.784  1.00  0.00    -0.371 A  
ENDBRANCH   7  14
ENDBRANCH   6   7
ENDBRANCH   5   6
ENDBRANCH   4   5
ENDBRANCH   2   4
TORSDOF 6
ENDMDL
MODEL       74
REMARK 921   NORMALIZED FREE ENERGY PREDICTED BY IDOCK:   -4.31 KCAL/MOL
REMARK 922        TOTAL FREE ENERGY PREDICTED BY IDOCK:   -6.74 KCAL/MOL
REMARK 923 INTER-LIGAND FREE ENERGY PREDICTED BY IDOCK:   -5.81 KCAL/MOL
REMARK 924 INTRA-LIGAND FREE ENERGY PREDICTED BY IDOCK:   -0.92 KCAL/MOL
REMARK 927      BINDING AFFINITY PREDICTED BY RF-SCORE:    0.00 PKD
ROOT
HETATM    1  C   UNL     1      -8.782   6.913  69.462  1.00  0.00    -0.133 C  
HETATM    2  N   UNL     1      -9.143   7.244  68.082  1.00  0.00    -0.134 NA 
HETATM    3  C   UNL     1     -10.545   6.888  67.845  1.00  0.00    -0.231 C  
ENDROOT
BRANCH   2   4
HETATM    4  C   UNL     1      -8.879   8.674  67.813  1.00  0.00    -0.136 C  
BRANCH   4   5
HETATM    5  C   UNL     1      -8.265   9.416  69.010  1.00  0.00    -0.108 C  
BRANCH   5   6
HETATM    6  O   UNL     1      -8.916  10.675  69.217  1.00  0.00    -0.159 OA 
BRANCH   6   7
HETATM    7  C   UNL     1     -10.271  10.663  68.722  1.00  0.00    -0.190 C  
BRANCH   7   8
HETATM    8  C   UNL     1     -11.282  10.636  69.865  1.00  0.00    -0.378 A  
HETATM    9  C   UNL     1     -11.533   9.440  70.557  1.00  0.00    -0.317 A  
HETATM   10  C   UNL     1     -11.958  11.799  70.266  1.00  0.00    -0.429 A  
HETATM   11  C   UNL     1     -12.448   9.409  71.611  1.00  0.00    -0.460 A  
HETATM   12  C   UNL     1     -12.876  11.763  71.316  1.00  0.00    -0.409 A  
HETATM   13  C   UNL     1     -13.123  10.569  71.988  1.00  0.00    -0.511 A  
ENDBRANCH   7   8
BRANCH   7  14
HETATM   14  C   UNL     1     -10.503  11.850  67.794  1.00  0.00    -0.224 A  
HETATM   15  C   UNL     1      -9.749  13.990  66.905  1.00  0.00    -0.272 A  
HETATM   16  C   UNL     1     -11.751  12.963  66.022  1.00  0.00    -0.456 A  
HETATM   17  C   UNL     1      -9.583  12.913  67.779  1.00  0.00    -0.212 A  
HETATM   18 BR   UNL     1     -11.054  15.461  64.840  1.00  0.00    -0.401 Br 
HETATM   19  C   UNL     1     -11.588  11.890  66.900  1.00  0.00    -0.358 A  
HETATM   20  C   UNL     1     -10.833  14.008  66.030  1.00  0.00    -0.295 A  
ENDBRANCH   7  14
ENDBRANCH   6   7
ENDBRANCH   5   6
ENDBRANCH   4   5
ENDBRANCH   2   4
TORSDOF 6
ENDMDL
MODEL       75
REMARK 921   NORMALIZED FREE ENERGY PREDICTED BY IDOCK:   -4.30 KCAL/MOL
REMARK 922        TOTAL FREE ENERGY PREDICTED BY IDOCK:   -6.73 KCAL/MOL
REMARK 923 INTER-LIGAND FREE ENERGY PREDICTED BY IDOCK:   -5.86 KCAL/MOL
REMARK 924 INTRA-LIGAND FREE ENERGY PREDICTED BY IDOCK:   -0.86 KCAL/MOL
REMARK 927      BINDING AFFINITY PREDICTED BY RF-SCORE:    0.00 PKD
ROOT
HETATM    1  C   UNL     1      -5.932  13.494  70.239  1.00  0.00    -0.146 C  
HETATM    2  N   UNL     1      -5.770  12.294  69.417  1.00  0.00    -0.077 NA 
HETATM    3  C   UNL     1      -6.134  11.110  70.201  1.00  0.00    -0.146 C  
ENDROOT
BRANCH   2   4
HETATM    4  C   UNL     1      -6.572  12.409  68.180  1.00  0.00    -0.073 C  
BRANCH   4   5
HETATM    5  C   UNL     1      -7.963  13.023  68.410  1.00  0.00    -0.135 C  
BRANCH   5   6
HETATM    6  O   UNL     1      -8.993  12.100  68.038  1.00  0.00    -0.175 OA 
BRANCH   6   7
HETATM    7  C   UNL     1     -10.308  12.675  68.194  1.00  0.00    -0.234 C  
BRANCH   7   8
HETATM    8  C   UNL     1     -11.009  12.836  66.849  1.00  0.00    -0.291 A  
HETATM    9  C   UNL     1     -10.779  11.910  65.818  1.00  0.00    -0.327 A  
HETATM   10  C   UNL     1     -11.912  13.886  66.621  1.00  0.00    -0.474 A  
HETATM   11  C   UNL     1     -11.426  12.045  64.587  1.00  0.00    -0.371 A  
HETATM   12  C   UNL     1     -12.551  14.021  65.388  1.00  0.00    -0.529 A  
HETATM   13  C   UNL     1     -12.308  13.102  64.370  1.00  0.00    -0.426 A  
ENDBRANCH   7   8
BRANCH   7  14
HETATM   14  C   UNL     1     -11.135  11.838  69.164  1.00  0.00    -0.294 A  
HETATM   15  C   UNL     1     -11.651   9.666  70.141  1.00  0.00    -0.193 A  
HETATM   16  C   UNL     1     -12.767  11.646  70.963  1.00  0.00    -0.395 A  
HETATM   17  C   UNL     1     -10.937  10.447  69.228  1.00  0.00    -0.287 A  
HETATM   18 BR   UNL     1     -13.520   9.214  72.245  1.00  0.00    -0.565 Br 
HETATM   19  C   UNL     1     -12.057  12.426  70.047  1.00  0.00    -0.335 A  
HETATM   20  C   UNL     1     -12.561  10.270  71.004  1.00  0.00    -0.390 A  
ENDBRANCH   7  14
ENDBRANCH   6   7
ENDBRANCH   5   6
ENDBRANCH   4   5
ENDBRANCH   2   4
TORSDOF 6
ENDMDL
MODEL       76
REMARK 921   NORMALIZED FREE ENERGY PREDICTED BY IDOCK:   -4.24 KCAL/MOL
REMARK 922        TOTAL FREE ENERGY PREDICTED BY IDOCK:   -6.65 KCAL/MOL
REMARK 923 INTER-LIGAND FREE ENERGY PREDICTED BY IDOCK:   -5.79 KCAL/MOL
REMARK 924 INTRA-LIGAND FREE ENERGY PREDICTED BY IDOCK:   -0.86 KCAL/MOL
REMARK 927      BINDING AFFINITY PREDICTED BY RF-SCORE:    0.00 PKD
ROOT
HETATM    1  C   UNL     1     -13.716   8.465  71.846  1.00  0.00    -0.394 C  
HETATM    2  N   UNL     1     -12.693   9.410  71.391  1.00  0.00    -0.331 NA 
HETATM    3  C   UNL     1     -13.078  10.770  71.777  1.00  0.00    -0.468 C  
ENDROOT
BRANCH   2   4
HETATM    4  C   UNL     1     -11.370   9.031  71.933  1.00  0.00    -0.368 C  
BRANCH   4   5
HETATM    5  C   UNL     1     -10.424   8.441  70.875  1.00  0.00    -0.196 C  
BRANCH   5   6
HETATM    6  O   UNL     1     -11.031   8.470  69.578  1.00  0.00    -0.173 OA 
BRANCH   6   7
HETATM    7  C   UNL     1     -10.102   8.902  68.562  1.00  0.00    -0.188 C  
BRANCH   7   8
HETATM    8  C   UNL     1      -9.737   7.760  67.619  1.00  0.00    -0.193 A  
HETATM    9  C   UNL     1      -8.431   7.653  67.113  1.00  0.00    -0.121 A  
HETATM   10  C   UNL     1     -10.679   6.784  67.259  1.00  0.00    -0.423 A  
HETATM   11  C   UNL     1      -8.085   6.605  66.258  1.00  0.00    -0.115 A  
HETATM   12  C   UNL     1     -10.332   5.741  66.399  1.00  0.00    -0.207 A  
HETATM   13  C   UNL     1      -9.037   5.652  65.897  1.00  0.00    -0.158 A  
ENDBRANCH   7   8
BRANCH   7  14
HETATM   14  C   UNL     1     -10.669  10.098  67.805  1.00  0.00    -0.328 A  
HETATM   15  C   UNL     1     -11.825  12.243  67.843  1.00  0.00    -0.358 A  
HETATM   16  C   UNL     1     -10.975  11.375  65.753  1.00  0.00    -0.256 A  
HETATM   17  C   UNL     1     -11.337  11.116  68.509  1.00  0.00    -0.348 A  
HETATM   18 BR   UNL     1     -12.292  13.896  65.568  1.00  0.00    -0.540 Br 
HETATM   19  C   UNL     1     -10.493  10.246  66.418  1.00  0.00    -0.233 A  
HETATM   20  C   UNL     1     -11.640  12.367  66.468  1.00  0.00    -0.387 A  
ENDBRANCH   7  14
ENDBRANCH   6   7
ENDBRANCH   5   6
ENDBRANCH   4   5
ENDBRANCH   2   4
TORSDOF 6
ENDMDL
MODEL       77
REMARK 921   NORMALIZED FREE ENERGY PREDICTED BY IDOCK:   -4.24 KCAL/MOL
REMARK 922        TOTAL FREE ENERGY PREDICTED BY IDOCK:   -6.64 KCAL/MOL
REMARK 923 INTER-LIGAND FREE ENERGY PREDICTED BY IDOCK:   -6.59 KCAL/MOL
REMARK 924 INTRA-LIGAND FREE ENERGY PREDICTED BY IDOCK:   -0.05 KCAL/MOL
REMARK 927      BINDING AFFINITY PREDICTED BY RF-SCORE:    0.00 PKD
ROOT
HETATM    1  C   UNL     1     -11.170   8.466  72.235  1.00  0.00    -0.376 C  
HETATM    2  N   UNL     1     -11.854   9.231  71.189  1.00  0.00    -0.306 NA 
HETATM    3  C   UNL     1     -12.739  10.223  71.807  1.00  0.00    -0.433 C  
ENDROOT
BRANCH   2   4
HETATM    4  C   UNL     1     -10.865   9.854  70.283  1.00  0.00    -0.310 C  
BRANCH   4   5
HETATM    5  C   UNL     1     -11.323  11.210  69.721  1.00  0.00    -0.278 C  
BRANCH   5   6
HETATM    6  O   UNL     1     -12.099  11.030  68.530  1.00  0.00    -0.573 OA 
BRANCH   6   7
HETATM    7  C   UNL     1     -11.987  12.162  67.643  1.00  0.00    -0.120 C  
BRANCH   7   8
HETATM    8  C   UNL     1     -11.283  13.334  68.321  1.00  0.00    -0.309 A  
HETATM    9  C   UNL     1      -9.900  13.513  68.161  1.00  0.00    -0.237 A  
HETATM   10  C   UNL     1     -11.997  14.265  69.091  1.00  0.00    -0.372 A  
HETATM   11  C   UNL     1      -9.249  14.589  68.769  1.00  0.00    -0.162 A  
HETATM   12  C   UNL     1     -11.343  15.335  69.702  1.00  0.00    -0.304 A  
HETATM   13  C   UNL     1      -9.969  15.497  69.543  1.00  0.00    -0.280 A  
ENDBRANCH   7   8
BRANCH   7  14
HETATM   14  C   UNL     1     -11.284  11.752  66.354  1.00  0.00    -0.382 A  
HETATM   15  C   UNL     1      -9.849  10.187  65.159  1.00  0.00    -0.394 A  
HETATM   16  C   UNL     1     -10.861  12.032  63.971  1.00  0.00    -0.433 A  
HETATM   17  C   UNL     1     -10.467  10.608  66.339  1.00  0.00    -0.276 A  
HETATM   18 BR   UNL     1      -9.221  10.327  62.382  1.00  0.00    -0.309 Br 
HETATM   19  C   UNL     1     -11.475  12.456  65.152  1.00  0.00    -0.379 A  
HETATM   20  C   UNL     1     -10.051  10.901  63.981  1.00  0.00    -0.358 A  
ENDBRANCH   7  14
ENDBRANCH   6   7
ENDBRANCH   5   6
ENDBRANCH   4   5
ENDBRANCH   2   4
TORSDOF 6
ENDMDL
MODEL       78
REMARK 921   NORMALIZED FREE ENERGY PREDICTED BY IDOCK:   -4.16 KCAL/MOL
REMARK 922        TOTAL FREE ENERGY PREDICTED BY IDOCK:   -6.54 KCAL/MOL
REMARK 923 INTER-LIGAND FREE ENERGY PREDICTED BY IDOCK:   -5.67 KCAL/MOL
REMARK 924 INTRA-LIGAND FREE ENERGY PREDICTED BY IDOCK:   -0.87 KCAL/MOL
REMARK 927      BINDING AFFINITY PREDICTED BY RF-SCORE:    0.00 PKD
ROOT
HETATM    1  C   UNL     1     -14.327   7.740  71.803  1.00  0.00    -0.470 C  
HETATM    2  N   UNL     1     -13.401   8.704  72.402  1.00  0.00    -0.364 NA 
HETATM    3  C   UNL     1     -12.086   8.080  72.572  1.00  0.00    -0.284 C  
ENDROOT
BRANCH   2   4
HETATM    4  C   UNL     1     -13.334   9.929  71.576  1.00  0.00    -0.375 C  
BRANCH   4   5
HETATM    5  C   UNL     1     -11.915  10.255  71.084  1.00  0.00    -0.376 C  
BRANCH   5   6
HETATM    6  O   UNL     1     -11.864  10.267  69.652  1.00  0.00    -0.202 OA 
BRANCH   6   7
HETATM    7  C   UNL     1     -10.560   9.891  69.161  1.00  0.00    -0.220 C  
BRANCH   7   8
HETATM    8  C   UNL     1     -10.249   8.430  69.469  1.00  0.00    -0.207 A  
HETATM    9  C   UNL     1     -11.149   7.422  69.088  1.00  0.00     0.032 A  
HETATM   10  C   UNL     1      -9.056   8.060  70.109  1.00  0.00    -0.151 A  
HETATM   11  C   UNL     1     -10.866   6.080  69.356  1.00  0.00    -0.433 A  
HETATM   12  C   UNL     1      -8.779   6.719  70.380  1.00  0.00    -0.151 A  
HETATM   13  C   UNL     1      -9.684   5.729  70.006  1.00  0.00    -0.218 A  
ENDBRANCH   7   8
BRANCH   7  14
HETATM   14  C   UNL     1     -10.456  10.187  67.669  1.00  0.00    -0.293 A  
HETATM   15  C   UNL     1     -11.003  11.620  65.775  1.00  0.00    -0.329 A  
HETATM   16  C   UNL     1      -9.536   9.725  65.460  1.00  0.00    -0.348 A  
HETATM   17  C   UNL     1     -11.122  11.303  67.131  1.00  0.00    -0.364 A  
HETATM   18 BR   UNL     1     -10.043  11.263  63.115  1.00  0.00    -0.364 Br 
HETATM   19  C   UNL     1      -9.659   9.405  66.814  1.00  0.00    -0.234 A  
HETATM   20  C   UNL     1     -10.210  10.829  64.948  1.00  0.00    -0.320 A  
ENDBRANCH   7  14
ENDBRANCH   6   7
ENDBRANCH   5   6
ENDBRANCH   4   5
ENDBRANCH   2   4
TORSDOF 6
ENDMDL
MODEL       79
REMARK 921   NORMALIZED FREE ENERGY PREDICTED BY IDOCK:   -4.16 KCAL/MOL
REMARK 922        TOTAL FREE ENERGY PREDICTED BY IDOCK:   -6.53 KCAL/MOL
REMARK 923 INTER-LIGAND FREE ENERGY PREDICTED BY IDOCK:   -5.73 KCAL/MOL
REMARK 924 INTRA-LIGAND FREE ENERGY PREDICTED BY IDOCK:   -0.80 KCAL/MOL
REMARK 927      BINDING AFFINITY PREDICTED BY RF-SCORE:    0.00 PKD
ROOT
HETATM    1  C   UNL     1      -7.852   7.279  64.293  1.00  0.00    -0.125 C  
HETATM    2  N   UNL     1      -7.952   8.473  65.134  1.00  0.00    -0.122 NA 
HETATM    3  C   UNL     1      -6.884   8.456  66.138  1.00  0.00    -0.065 C  
ENDROOT
BRANCH   2   4
HETATM    4  C   UNL     1      -7.910   9.692  64.298  1.00  0.00    -0.130 C  
BRANCH   4   5
HETATM    5  C   UNL     1      -9.303  10.243  63.952  1.00  0.00    -0.291 C  
BRANCH   5   6
HETATM    6  O   UNL     1     -10.196  10.102  65.064  1.00  0.00    -0.309 OA 
BRANCH   6   7
HETATM    7  C   UNL     1     -10.089  11.211  65.979  1.00  0.00    -0.244 C  
BRANCH   7   8
HETATM    8  C   UNL     1     -10.785  12.454  65.433  1.00  0.00    -0.317 A  
HETATM    9  C   UNL     1     -10.218  13.723  65.628  1.00  0.00    -0.326 A  
HETATM   10  C   UNL     1     -11.983  12.357  64.708  1.00  0.00    -0.462 A  
HETATM   11  C   UNL     1     -10.843  14.865  65.122  1.00  0.00    -0.428 A  
HETATM   12  C   UNL     1     -12.608  13.500  64.208  1.00  0.00    -0.206 A  
HETATM   13  C   UNL     1     -12.040  14.754  64.416  1.00  0.00    -0.457 A  
ENDBRANCH   7   8
BRANCH   7  14
HETATM   14  C   UNL     1     -10.633  10.817  67.348  1.00  0.00    -0.287 A  
HETATM   15  C   UNL     1     -10.692   9.236  69.202  1.00  0.00    -0.202 A  
HETATM   16  C   UNL     1     -11.919  11.312  69.357  1.00  0.00    -0.410 A  
HETATM   17  C   UNL     1     -10.243   9.597  67.929  1.00  0.00    -0.242 A  
HETATM   18 BR   UNL     1     -12.128   9.612  71.635  1.00  0.00    -0.467 Br 
HETATM   19  C   UNL     1     -11.475  11.671  68.083  1.00  0.00    -0.382 A  
HETATM   20  C   UNL     1     -11.527  10.097  69.909  1.00  0.00    -0.254 A  
ENDBRANCH   7  14
ENDBRANCH   6   7
ENDBRANCH   5   6
ENDBRANCH   4   5
ENDBRANCH   2   4
TORSDOF 6
ENDMDL
MODEL       80
REMARK 921   NORMALIZED FREE ENERGY PREDICTED BY IDOCK:   -4.12 KCAL/MOL
REMARK 922        TOTAL FREE ENERGY PREDICTED BY IDOCK:   -6.48 KCAL/MOL
REMARK 923 INTER-LIGAND FREE ENERGY PREDICTED BY IDOCK:   -5.49 KCAL/MOL
REMARK 924 INTRA-LIGAND FREE ENERGY PREDICTED BY IDOCK:   -1.00 KCAL/MOL
REMARK 927      BINDING AFFINITY PREDICTED BY RF-SCORE:    0.00 PKD
ROOT
HETATM    1  C   UNL     1     -10.842   4.115  73.592  1.00  0.00    -0.264 C  
HETATM    2  N   UNL     1      -9.850   5.119  73.984  1.00  0.00    -0.157 NA 
HETATM    3  C   UNL     1      -8.607   4.895  73.241  1.00  0.00    -0.102 C  
ENDROOT
BRANCH   2   4
HETATM    4  C   UNL     1     -10.389   6.480  73.771  1.00  0.00    -0.326 C  
BRANCH   4   5
HETATM    5  C   UNL     1      -9.304   7.568  73.745  1.00  0.00    -0.279 C  
BRANCH   5   6
HETATM    6  O   UNL     1      -9.302   8.253  72.487  1.00  0.00    -0.229 OA 
BRANCH   6   7
HETATM    7  C   UNL     1     -10.480   7.950  71.711  1.00  0.00    -0.221 C  
BRANCH   7   8
HETATM    8  C   UNL     1     -11.282   9.211  71.400  1.00  0.00    -0.419 A  
HETATM    9  C   UNL     1     -12.420   9.528  72.160  1.00  0.00    -0.376 A  
HETATM   10  C   UNL     1     -10.891  10.087  70.376  1.00  0.00    -0.380 A  
HETATM   11  C   UNL     1     -13.153  10.685  71.889  1.00  0.00    -0.563 A  
HETATM   12  C   UNL     1     -11.629  11.240  70.105  1.00  0.00    -0.393 A  
HETATM   13  C   UNL     1     -12.761  11.538  70.859  1.00  0.00    -0.372 A  
ENDBRANCH   7   8
BRANCH   7  14
HETATM   14  C   UNL     1     -10.094   7.201  70.441  1.00  0.00    -0.199 A  
HETATM   15  C   UNL     1      -8.360   6.406  68.924  1.00  0.00    -0.121 A  
HETATM   16  C   UNL     1     -10.667   5.803  68.529  1.00  0.00    -0.288 A  
HETATM   17  C   UNL     1      -8.743   7.125  70.059  1.00  0.00    -0.141 A  
HETATM   18 BR   UNL     1      -8.807   4.767  66.635  1.00  0.00    -0.111 Br 
HETATM   19  C   UNL     1     -11.050   6.526  69.661  1.00  0.00    -0.435 A  
HETATM   20  C   UNL     1      -9.326   5.747  68.166  1.00  0.00    -0.109 A  
ENDBRANCH   7  14
ENDBRANCH   6   7
ENDBRANCH   5   6
ENDBRANCH   4   5
ENDBRANCH   2   4
TORSDOF 6
ENDMDL
MODEL       81
REMARK 921   NORMALIZED FREE ENERGY PREDICTED BY IDOCK:   -4.11 KCAL/MOL
REMARK 922        TOTAL FREE ENERGY PREDICTED BY IDOCK:   -6.47 KCAL/MOL
REMARK 923 INTER-LIGAND FREE ENERGY PREDICTED BY IDOCK:   -5.51 KCAL/MOL
REMARK 924 INTRA-LIGAND FREE ENERGY PREDICTED BY IDOCK:   -0.96 KCAL/MOL
REMARK 927      BINDING AFFINITY PREDICTED BY RF-SCORE:    0.00 PKD
ROOT
HETATM    1  C   UNL     1     -11.194  12.862  64.268  1.00  0.00    -0.367 C  
HETATM    2  N   UNL     1     -11.093  14.187  64.882  1.00  0.00    -0.365 NA 
HETATM    3  C   UNL     1     -12.093  15.080  64.288  1.00  0.00    -0.306 C  
ENDROOT
BRANCH   2   4
HETATM    4  C   UNL     1     -11.242  14.083  66.350  1.00  0.00    -0.319 C  
BRANCH   4   5
HETATM    5  C   UNL     1     -12.065  12.863  66.794  1.00  0.00    -0.265 C  
BRANCH   5   6
HETATM    6  O   UNL     1     -11.444  12.209  67.907  1.00  0.00    -0.283 OA 
BRANCH   6   7
HETATM    7  C   UNL     1     -11.147  10.828  67.617  1.00  0.00    -0.319 C  
BRANCH   7   8
HETATM    8  C   UNL     1      -9.814  10.686  66.886  1.00  0.00    -0.228 A  
HETATM    9  C   UNL     1      -8.690  11.405  67.325  1.00  0.00    -0.148 A  
HETATM   10  C   UNL     1      -9.675   9.824  65.788  1.00  0.00    -0.340 A  
HETATM   11  C   UNL     1      -7.464  11.273  66.669  1.00  0.00    -0.133 A  
HETATM   12  C   UNL     1      -8.450   9.699  65.131  1.00  0.00    -0.159 A  
HETATM   13  C   UNL     1      -7.345  10.424  65.570  1.00  0.00    -0.139 A  
ENDBRANCH   7   8
BRANCH   7  14
HETATM   14  C   UNL     1     -11.176  10.003  68.899  1.00  0.00    -0.179 A  
HETATM   15  C   UNL     1     -10.595   7.955  70.084  1.00  0.00    -0.237 A  
HETATM   16  C   UNL     1     -11.662   9.767  71.275  1.00  0.00    -0.472 A  
HETATM   17  C   UNL     1     -10.621   8.711  68.909  1.00  0.00    -0.166 A  
HETATM   18 BR   UNL     1     -11.073   7.468  72.852  1.00  0.00    -0.413 Br 
HETATM   19  C   UNL     1     -11.693  10.521  70.099  1.00  0.00    -0.410 A  
HETATM   20  C   UNL     1     -11.115   8.488  71.260  1.00  0.00    -0.262 A  
ENDBRANCH   7  14
ENDBRANCH   6   7
ENDBRANCH   5   6
ENDBRANCH   4   5
ENDBRANCH   2   4
TORSDOF 6
ENDMDL
MODEL       82
REMARK 921   NORMALIZED FREE ENERGY PREDICTED BY IDOCK:   -4.09 KCAL/MOL
REMARK 922        TOTAL FREE ENERGY PREDICTED BY IDOCK:   -6.44 KCAL/MOL
REMARK 923 INTER-LIGAND FREE ENERGY PREDICTED BY IDOCK:   -6.46 KCAL/MOL
REMARK 924 INTRA-LIGAND FREE ENERGY PREDICTED BY IDOCK:    0.02 KCAL/MOL
REMARK 927      BINDING AFFINITY PREDICTED BY RF-SCORE:    0.00 PKD
ROOT
HETATM    1  C   UNL     1     -13.078  15.565  73.198  1.00  0.00    -0.545 C  
HETATM    2  N   UNL     1     -12.806  14.601  72.129  1.00  0.00    -0.319 NA 
HETATM    3  C   UNL     1     -13.638  13.410  72.321  1.00  0.00    -0.605 C  
ENDROOT
BRANCH   2   4
HETATM    4  C   UNL     1     -13.027  15.228  70.808  1.00  0.00    -0.436 C  
BRANCH   4   5
HETATM    5  C   UNL     1     -11.754  15.305  69.949  1.00  0.00    -0.323 C  
BRANCH   5   6
HETATM    6  O   UNL     1     -11.866  16.342  68.967  1.00  0.00    -0.197 OA 
BRANCH   6   7
HETATM    7  C   UNL     1     -11.155  16.011  67.757  1.00  0.00    -0.273 C  
BRANCH   7   8
HETATM    8  C   UNL     1      -9.872  16.826  67.623  1.00  0.00    -0.261 A  
HETATM    9  C   UNL     1      -9.078  16.708  66.471  1.00  0.00    -0.303 A  
HETATM   10  C   UNL     1      -9.473  17.724  68.626  1.00  0.00    -0.283 A  
HETATM   11  C   UNL     1      -7.908  17.459  66.336  1.00  0.00    -0.337 A  
HETATM   12  C   UNL     1      -8.300  18.468  68.490  1.00  0.00    -0.359 A  
HETATM   13  C   UNL     1      -7.517  18.335  67.347  1.00  0.00    -0.219 A  
ENDBRANCH   7   8
BRANCH   7  14
HETATM   14  C   UNL     1     -10.877  14.513  67.703  1.00  0.00    -0.275 A  
HETATM   15  C   UNL     1     -11.485  12.299  66.884  1.00  0.00    -0.418 A  
HETATM   16  C   UNL     1      -9.477  12.582  68.200  1.00  0.00    -0.214 A  
HETATM   17  C   UNL     1     -11.743  13.669  66.986  1.00  0.00    -0.419 A  
HETATM   18 BR   UNL     1      -9.996   9.912  67.347  1.00  0.00    -0.251 Br 
HETATM   19  C   UNL     1      -9.739  13.950  68.306  1.00  0.00    -0.223 A  
HETATM   20  C   UNL     1     -10.352  11.764  67.491  1.00  0.00    -0.196 A  
ENDBRANCH   7  14
ENDBRANCH   6   7
ENDBRANCH   5   6
ENDBRANCH   4   5
ENDBRANCH   2   4
TORSDOF 6
ENDMDL
MODEL       83
REMARK 921   NORMALIZED FREE ENERGY PREDICTED BY IDOCK:   -4.09 KCAL/MOL
REMARK 922        TOTAL FREE ENERGY PREDICTED BY IDOCK:   -6.44 KCAL/MOL
REMARK 923 INTER-LIGAND FREE ENERGY PREDICTED BY IDOCK:   -6.35 KCAL/MOL
REMARK 924 INTRA-LIGAND FREE ENERGY PREDICTED BY IDOCK:   -0.09 KCAL/MOL
REMARK 927      BINDING AFFINITY PREDICTED BY RF-SCORE:    0.00 PKD
ROOT
HETATM    1  C   UNL     1      -8.950   9.953  64.729  1.00  0.00    -0.217 C  
HETATM    2  N   UNL     1      -9.437  11.030  63.863  1.00  0.00    -0.239 NA 
HETATM    3  C   UNL     1      -9.085  10.736  62.471  1.00  0.00    -0.312 C  
ENDROOT
BRANCH   2   4
HETATM    4  C   UNL     1     -10.894  11.210  64.043  1.00  0.00    -0.281 C  
BRANCH   4   5
HETATM    5  C   UNL     1     -11.271  12.581  64.626  1.00  0.00    -0.312 C  
BRANCH   5   6
HETATM    6  O   UNL     1     -12.360  12.458  65.550  1.00  0.00    -0.621 OA 
BRANCH   6   7
HETATM    7  C   UNL     1     -12.067  13.098  66.809  1.00  0.00    -0.327 C  
BRANCH   7   8
HETATM    8  C   UNL     1     -11.708  12.076  67.884  1.00  0.00    -0.393 A  
HETATM    9  C   UNL     1     -11.888  12.388  69.241  1.00  0.00    -0.361 A  
HETATM   10  C   UNL     1     -11.221  10.804  67.545  1.00  0.00    -0.346 A  
HETATM   11  C   UNL     1     -11.572  11.454  70.231  1.00  0.00    -0.334 A  
HETATM   12  C   UNL     1     -10.901   9.876  68.536  1.00  0.00    -0.257 A  
HETATM   13  C   UNL     1     -11.075  10.201  69.879  1.00  0.00    -0.346 A  
ENDBRANCH   7   8
BRANCH   7  14
HETATM   14  C   UNL     1     -10.964  14.135  66.628  1.00  0.00    -0.303 A  
HETATM   15  C   UNL     1     -10.299  16.401  66.026  1.00  0.00    -0.365 A  
HETATM   16  C   UNL     1      -8.644  14.845  66.851  1.00  0.00    -0.269 A  
HETATM   17  C   UNL     1     -11.286  15.420  66.156  1.00  0.00    -0.161 A  
HETATM   18 BR   UNL     1      -7.650  17.437  66.207  1.00  0.00    -0.332 Br 
HETATM   19  C   UNL     1      -9.629  13.863  66.977  1.00  0.00    -0.254 A  
HETATM   20  C   UNL     1      -8.983  16.107  66.375  1.00  0.00    -0.318 A  
ENDBRANCH   7  14
ENDBRANCH   6   7
ENDBRANCH   5   6
ENDBRANCH   4   5
ENDBRANCH   2   4
TORSDOF 6
ENDMDL
MODEL       84
REMARK 921   NORMALIZED FREE ENERGY PREDICTED BY IDOCK:   -4.08 KCAL/MOL
REMARK 922        TOTAL FREE ENERGY PREDICTED BY IDOCK:   -6.42 KCAL/MOL
REMARK 923 INTER-LIGAND FREE ENERGY PREDICTED BY IDOCK:   -5.38 KCAL/MOL
REMARK 924 INTRA-LIGAND FREE ENERGY PREDICTED BY IDOCK:   -1.04 KCAL/MOL
REMARK 927      BINDING AFFINITY PREDICTED BY RF-SCORE:    0.00 PKD
ROOT
HETATM    1  C   UNL     1     -11.384   9.790  71.193  1.00  0.00    -0.389 C  
HETATM    2  N   UNL     1     -10.921  10.369  69.929  1.00  0.00    -0.286 NA 
HETATM    3  C   UNL     1     -10.342   9.314  69.091  1.00  0.00    -0.211 C  
ENDROOT
BRANCH   2   4
HETATM    4  C   UNL     1     -12.033  11.071  69.252  1.00  0.00    -0.339 C  
BRANCH   4   5
HETATM    5  C   UNL     1     -11.910  12.602  69.306  1.00  0.00    -0.302 C  
BRANCH   5   6
HETATM    6  O   UNL     1     -11.281  13.104  68.121  1.00  0.00    -0.244 OA 
BRANCH   6   7
HETATM    7  C   UNL     1     -10.107  13.883  68.427  1.00  0.00    -0.237 C  
BRANCH   7   8
HETATM    8  C   UNL     1      -8.835  13.179  67.965  1.00  0.00    -0.191 A  
HETATM    9  C   UNL     1      -7.579  13.631  68.403  1.00  0.00    -0.132 A  
HETATM   10  C   UNL     1      -8.889  12.058  67.121  1.00  0.00    -0.188 A  
HETATM   11  C   UNL     1      -6.410  12.985  67.993  1.00  0.00    -0.115 A  
HETATM   12  C   UNL     1      -7.719  11.419  66.709  1.00  0.00    -0.150 A  
HETATM   13  C   UNL     1      -6.480  11.883  67.143  1.00  0.00    -0.146 A  
ENDBRANCH   7   8
BRANCH   7  14
HETATM   14  C   UNL     1     -10.229  15.278  67.823  1.00  0.00    -0.237 A  
HETATM   15  C   UNL     1     -10.332  17.692  68.136  1.00  0.00    -0.386 A  
HETATM   16  C   UNL     1     -10.305  16.773  65.901  1.00  0.00    -0.341 A  
HETATM   17  C   UNL     1     -10.267  16.402  68.668  1.00  0.00    -0.258 A  
HETATM   18 BR   UNL     1     -10.430  19.617  66.036  1.00  0.00    -0.574 Br 
HETATM   19  C   UNL     1     -10.245  15.483  66.433  1.00  0.00    -0.300 A  
HETATM   20  C   UNL     1     -10.350  17.870  66.755  1.00  0.00    -0.355 A  
ENDBRANCH   7  14
ENDBRANCH   6   7
ENDBRANCH   5   6
ENDBRANCH   4   5
ENDBRANCH   2   4
TORSDOF 6
ENDMDL
MODEL       85
REMARK 921   NORMALIZED FREE ENERGY PREDICTED BY IDOCK:   -4.05 KCAL/MOL
REMARK 922        TOTAL FREE ENERGY PREDICTED BY IDOCK:   -6.38 KCAL/MOL
REMARK 923 INTER-LIGAND FREE ENERGY PREDICTED BY IDOCK:   -5.65 KCAL/MOL
REMARK 924 INTRA-LIGAND FREE ENERGY PREDICTED BY IDOCK:   -0.73 KCAL/MOL
REMARK 927      BINDING AFFINITY PREDICTED BY RF-SCORE:    0.00 PKD
ROOT
HETATM    1  C   UNL     1      -6.497   9.571  65.909  1.00  0.00    -0.077 C  
HETATM    2  N   UNL     1      -6.881   8.645  64.841  1.00  0.00    -0.072 NA 
HETATM    3  C   UNL     1      -6.245   7.344  65.069  1.00  0.00    -0.038 C  
ENDROOT
BRANCH   2   4
HETATM    4  C   UNL     1      -8.354   8.538  64.764  1.00  0.00    -0.153 C  
BRANCH   4   5
HETATM    5  C   UNL     1      -9.029   9.802  64.208  1.00  0.00    -0.237 C  
BRANCH   5   6
HETATM    6  O   UNL     1     -10.214  10.114  64.950  1.00  0.00    -0.300 OA 
BRANCH   6   7
HETATM    7  C   UNL     1     -10.006  11.226  65.846  1.00  0.00    -0.234 C  
BRANCH   7   8
HETATM    8  C   UNL     1     -10.659  12.498  65.316  1.00  0.00    -0.319 A  
HETATM    9  C   UNL     1     -11.785  12.418  64.480  1.00  0.00    -0.427 A  
HETATM   10  C   UNL     1     -10.172  13.767  65.667  1.00  0.00    -0.326 A  
HETATM   11  C   UNL     1     -12.396  13.578  63.999  1.00  0.00    -0.391 A  
HETATM   12  C   UNL     1     -10.781  14.924  65.180  1.00  0.00    -0.429 A  
HETATM   13  C   UNL     1     -11.892  14.830  64.345  1.00  0.00    -0.393 A  
ENDBRANCH   7   8
BRANCH   7  14
HETATM   14  C   UNL     1     -10.508  10.876  67.243  1.00  0.00    -0.275 A  
HETATM   15  C   UNL     1     -11.938  11.399  69.146  1.00  0.00    -0.395 A  
HETATM   16  C   UNL     1     -10.632   9.365  69.151  1.00  0.00    -0.234 A  
HETATM   17  C   UNL     1     -11.429  11.722  67.885  1.00  0.00    -0.387 A  
HETATM   18 BR   UNL     1     -12.231   9.779  71.473  1.00  0.00    -0.509 Br 
HETATM   19  C   UNL     1     -10.119   9.691  67.893  1.00  0.00    -0.222 A  
HETATM   20  C   UNL     1     -11.537  10.221  69.771  1.00  0.00    -0.227 A  
ENDBRANCH   7  14
ENDBRANCH   6   7
ENDBRANCH   5   6
ENDBRANCH   4   5
ENDBRANCH   2   4
TORSDOF 6
ENDMDL
MODEL       86
REMARK 921   NORMALIZED FREE ENERGY PREDICTED BY IDOCK:   -4.04 KCAL/MOL
REMARK 922        TOTAL FREE ENERGY PREDICTED BY IDOCK:   -6.38 KCAL/MOL
REMARK 923 INTER-LIGAND FREE ENERGY PREDICTED BY IDOCK:   -5.69 KCAL/MOL
REMARK 924 INTRA-LIGAND FREE ENERGY PREDICTED BY IDOCK:   -0.69 KCAL/MOL
REMARK 927      BINDING AFFINITY PREDICTED BY RF-SCORE:    0.00 PKD
ROOT
HETATM    1  C   UNL     1     -11.962  14.093  68.548  1.00  0.00    -0.332 C  
HETATM    2  N   UNL     1     -12.064  14.025  67.089  1.00  0.00    -0.429 NA 
HETATM    3  C   UNL     1     -10.995  14.826  66.486  1.00  0.00    -0.325 C  
ENDROOT
BRANCH   2   4
HETATM    4  C   UNL     1     -12.025  12.617  66.639  1.00  0.00    -0.312 C  
BRANCH   4   5
HETATM    5  C   UNL     1     -10.902  11.798  67.295  1.00  0.00    -0.253 C  
BRANCH   5   6
HETATM    6  O   UNL     1     -11.401  10.542  67.772  1.00  0.00    -0.367 OA 
BRANCH   6   7
HETATM    7  C   UNL     1     -10.676  10.084  68.931  1.00  0.00    -0.219 C  
BRANCH   7   8
HETATM    8  C   UNL     1     -11.607   9.857  70.118  1.00  0.00    -0.281 A  
HETATM    9  C   UNL     1     -12.297  10.939  70.689  1.00  0.00    -0.470 A  
HETATM   10  C   UNL     1     -11.816   8.573  70.645  1.00  0.00    -0.111 A  
HETATM   11  C   UNL     1     -13.161  10.739  71.769  1.00  0.00    -0.573 A  
HETATM   12  C   UNL     1     -12.674   8.378  71.727  1.00  0.00    -0.373 A  
HETATM   13  C   UNL     1     -13.345   9.460  72.291  1.00  0.00    -0.539 A  
ENDBRANCH   7   8
BRANCH   7  14
HETATM   14  C   UNL     1      -9.882   8.827  68.591  1.00  0.00    -0.180 A  
HETATM   15  C   UNL     1      -8.018   7.334  69.075  1.00  0.00    -0.119 A  
HETATM   16  C   UNL     1      -9.583   6.768  67.323  1.00  0.00    -0.165 A  
HETATM   17  C   UNL     1      -8.735   8.504  69.338  1.00  0.00    -0.136 A  
HETATM   18 BR   UNL     1      -7.481   4.885  67.719  1.00  0.00    -0.079 Br 
HETATM   19  C   UNL     1     -10.297   7.941  67.582  1.00  0.00    -0.307 A  
HETATM   20  C   UNL     1      -8.447   6.472  68.069  1.00  0.00    -0.119 A  
ENDBRANCH   7  14
ENDBRANCH   6   7
ENDBRANCH   5   6
ENDBRANCH   4   5
ENDBRANCH   2   4
TORSDOF 6
ENDMDL
MODEL       87
REMARK 921   NORMALIZED FREE ENERGY PREDICTED BY IDOCK:   -4.03 KCAL/MOL
REMARK 922        TOTAL FREE ENERGY PREDICTED BY IDOCK:   -6.35 KCAL/MOL
REMARK 923 INTER-LIGAND FREE ENERGY PREDICTED BY IDOCK:   -5.47 KCAL/MOL
REMARK 924 INTRA-LIGAND FREE ENERGY PREDICTED BY IDOCK:   -0.88 KCAL/MOL
REMARK 927      BINDING AFFINITY PREDICTED BY RF-SCORE:    0.00 PKD
ROOT
HETATM    1  C   UNL     1      -7.240   8.304  66.518  1.00  0.00    -0.076 C  
HETATM    2  N   UNL     1      -8.338   7.758  65.718  1.00  0.00    -0.131 NA 
HETATM    3  C   UNL     1      -8.224   6.298  65.661  1.00  0.00    -0.143 C  
ENDROOT
BRANCH   2   4
HETATM    4  C   UNL     1      -9.638   8.194  66.271  1.00  0.00    -0.178 C  
BRANCH   4   5
HETATM    5  C   UNL     1      -9.941   9.680  66.019  1.00  0.00    -0.274 C  
BRANCH   5   6
HETATM    6  O   UNL     1      -9.710  10.453  67.203  1.00  0.00    -0.165 OA 
BRANCH   6   7
HETATM    7  C   UNL     1     -10.921  11.074  67.681  1.00  0.00    -0.275 C  
BRANCH   7   8
HETATM    8  C   UNL     1     -11.293  10.573  69.073  1.00  0.00    -0.319 A  
HETATM    9  C   UNL     1     -10.453   9.669  69.744  1.00  0.00    -0.263 A  
HETATM   10  C   UNL     1     -12.456  11.017  69.720  1.00  0.00    -0.251 A  
HETATM   11  C   UNL     1     -10.781   9.213  71.023  1.00  0.00    -0.363 A  
HETATM   12  C   UNL     1     -12.783  10.555  70.995  1.00  0.00    -0.504 A  
HETATM   13  C   UNL     1     -11.947   9.652  71.646  1.00  0.00    -0.470 A  
ENDBRANCH   7   8
BRANCH   7  14
HETATM   14  C   UNL     1     -10.781  12.592  67.648  1.00  0.00    -0.239 A  
HETATM   15  C   UNL     1     -11.671  14.763  66.989  1.00  0.00    -0.330 A  
HETATM   16  C   UNL     1      -9.651  14.647  68.312  1.00  0.00    -0.208 A  
HETATM   17  C   UNL     1     -11.753  13.368  66.993  1.00  0.00    -0.426 A  
HETATM   18 BR   UNL     1     -10.513  17.282  67.653  1.00  0.00    -0.352 Br 
HETATM   19  C   UNL     1      -9.731  13.252  68.310  1.00  0.00    -0.225 A  
HETATM   20  C   UNL     1     -10.620  15.394  67.650  1.00  0.00    -0.280 A  
ENDBRANCH   7  14
ENDBRANCH   6   7
ENDBRANCH   5   6
ENDBRANCH   4   5
ENDBRANCH   2   4
TORSDOF 6
ENDMDL
MODEL       88
REMARK 921   NORMALIZED FREE ENERGY PREDICTED BY IDOCK:   -4.02 KCAL/MOL
REMARK 922        TOTAL FREE ENERGY PREDICTED BY IDOCK:   -6.35 KCAL/MOL
REMARK 923 INTER-LIGAND FREE ENERGY PREDICTED BY IDOCK:   -5.64 KCAL/MOL
REMARK 924 INTRA-LIGAND FREE ENERGY PREDICTED BY IDOCK:   -0.71 KCAL/MOL
REMARK 927      BINDING AFFINITY PREDICTED BY RF-SCORE:    0.00 PKD
ROOT
HETATM    1  C   UNL     1      -7.114  16.511  66.765  1.00  0.00    -0.218 C  
HETATM    2  N   UNL     1      -6.879  16.333  68.200  1.00  0.00    -0.125 NA 
HETATM    3  C   UNL     1      -7.285  17.546  68.917  1.00  0.00    -0.249 C  
ENDROOT
BRANCH   2   4
HETATM    4  C   UNL     1      -7.590  15.133  68.689  1.00  0.00    -0.127 C  
BRANCH   4   5
HETATM    5  C   UNL     1      -8.894  14.844  67.928  1.00  0.00    -0.165 C  
BRANCH   5   6
HETATM    6  O   UNL     1      -8.885  13.515  67.391  1.00  0.00    -0.199 OA 
BRANCH   6   7
HETATM    7  C   UNL     1     -10.221  12.991  67.240  1.00  0.00    -0.239 C  
BRANCH   7   8
HETATM    8  C   UNL     1     -10.451  12.452  65.832  1.00  0.00    -0.284 A  
HETATM    9  C   UNL     1      -9.860  11.241  65.434  1.00  0.00    -0.281 A  
HETATM   10  C   UNL     1     -11.272  13.131  64.918  1.00  0.00    -0.333 A  
HETATM   11  C   UNL     1     -10.075  10.735  64.151  1.00  0.00    -0.418 A  
HETATM   12  C   UNL     1     -11.479  12.626  63.634  1.00  0.00    -0.563 A  
HETATM   13  C   UNL     1     -10.880  11.429  63.249  1.00  0.00    -0.292 A  
ENDBRANCH   7   8
BRANCH   7  14
HETATM   14  C   UNL     1     -10.492  11.930  68.301  1.00  0.00    -0.221 A  
HETATM   15  C   UNL     1      -9.653  10.175  69.769  1.00  0.00    -0.213 A  
HETATM   16  C   UNL     1     -11.978  10.826  69.885  1.00  0.00    -0.418 A  
HETATM   17  C   UNL     1      -9.438  11.123  68.765  1.00  0.00    -0.173 A  
HETATM   18 BR   UNL     1     -11.212   8.757  71.689  1.00  0.00    -0.420 Br 
HETATM   19  C   UNL     1     -11.764  11.770  68.878  1.00  0.00    -0.384 A  
HETATM   20  C   UNL     1     -10.923  10.033  70.324  1.00  0.00    -0.316 A  
ENDBRANCH   7  14
ENDBRANCH   6   7
ENDBRANCH   5   6
ENDBRANCH   4   5
ENDBRANCH   2   4
TORSDOF 6
ENDMDL
MODEL       89
REMARK 921   NORMALIZED FREE ENERGY PREDICTED BY IDOCK:   -4.02 KCAL/MOL
REMARK 922        TOTAL FREE ENERGY PREDICTED BY IDOCK:   -6.35 KCAL/MOL
REMARK 923 INTER-LIGAND FREE ENERGY PREDICTED BY IDOCK:   -5.44 KCAL/MOL
REMARK 924 INTRA-LIGAND FREE ENERGY PREDICTED BY IDOCK:   -0.91 KCAL/MOL
REMARK 927      BINDING AFFINITY PREDICTED BY RF-SCORE:    0.00 PKD
ROOT
HETATM    1  C   UNL     1     -11.299  15.375  64.502  1.00  0.00    -0.313 C  
HETATM    2  N   UNL     1     -11.646  13.996  64.853  1.00  0.00    -0.350 NA 
HETATM    3  C   UNL     1     -12.838  13.993  65.707  1.00  0.00    -0.377 C  
ENDROOT
BRANCH   2   4
HETATM    4  C   UNL     1     -11.838  13.190  63.628  1.00  0.00    -0.488 C  
BRANCH   4   5
HETATM    5  C   UNL     1     -10.931  11.951  63.565  1.00  0.00    -0.432 C  
BRANCH   5   6
HETATM    6  O   UNL     1     -10.141  11.839  64.755  1.00  0.00    -0.250 OA 
BRANCH   6   7
HETATM    7  C   UNL     1     -10.037  10.471  65.201  1.00  0.00    -0.314 C  
BRANCH   7   8
HETATM    8  C   UNL     1      -8.651   9.898  64.922  1.00  0.00    -0.183 A  
HETATM    9  C   UNL     1      -8.499   8.820  64.034  1.00  0.00    -0.121 A  
HETATM   10  C   UNL     1      -7.504  10.444  65.518  1.00  0.00    -0.142 A  
HETATM   11  C   UNL     1      -7.232   8.297  63.764  1.00  0.00    -0.092 A  
HETATM   12  C   UNL     1      -6.241   9.915  65.251  1.00  0.00    -0.093 A  
HETATM   13  C   UNL     1      -6.104   8.841  64.376  1.00  0.00    -0.066 A  
ENDBRANCH   7   8
BRANCH   7  14
HETATM   14  C   UNL     1     -10.400  10.370  66.678  1.00  0.00    -0.292 A  
HETATM   15  C   UNL     1     -11.463  11.343  68.644  1.00  0.00    -0.359 A  
HETATM   16  C   UNL     1     -10.517   9.122  68.768  1.00  0.00    -0.236 A  
HETATM   17  C   UNL     1     -11.079  11.431  67.303  1.00  0.00    -0.363 A  
HETATM   18 BR   UNL     1     -11.708  10.064  71.180  1.00  0.00    -0.466 Br 
HETATM   19  C   UNL     1     -10.128   9.213  67.429  1.00  0.00    -0.289 A  
HETATM   20  C   UNL     1     -11.180  10.187  69.368  1.00  0.00    -0.215 A  
ENDBRANCH   7  14
ENDBRANCH   6   7
ENDBRANCH   5   6
ENDBRANCH   4   5
ENDBRANCH   2   4
TORSDOF 6
ENDMDL
MODEL       90
REMARK 921   NORMALIZED FREE ENERGY PREDICTED BY IDOCK:   -3.97 KCAL/MOL
REMARK 922        TOTAL FREE ENERGY PREDICTED BY IDOCK:   -6.28 KCAL/MOL
REMARK 923 INTER-LIGAND FREE ENERGY PREDICTED BY IDOCK:   -5.67 KCAL/MOL
REMARK 924 INTRA-LIGAND FREE ENERGY PREDICTED BY IDOCK:   -0.61 KCAL/MOL
REMARK 927      BINDING AFFINITY PREDICTED BY RF-SCORE:    0.00 PKD
ROOT
HETATM    1  C   UNL     1      -6.631   8.147  73.886  1.00  0.00    -0.119 C  
HETATM    2  N   UNL     1      -7.572   7.054  73.634  1.00  0.00    -0.085 NA 
HETATM    3  C   UNL     1      -6.930   5.774  73.947  1.00  0.00    -0.082 C  
ENDROOT
BRANCH   2   4
HETATM    4  C   UNL     1      -8.813   7.259  74.411  1.00  0.00    -0.196 C  
BRANCH   4   5
HETATM    5  C   UNL     1     -10.084   6.843  73.652  1.00  0.00    -0.318 C  
BRANCH   5   6
HETATM    6  O   UNL     1      -9.799   6.626  72.265  1.00  0.00    -0.155 OA 
BRANCH   6   7
HETATM    7  C   UNL     1     -11.004   6.572  71.474  1.00  0.00    -0.255 C  
BRANCH   7   8
HETATM    8  C   UNL     1     -11.722   7.918  71.459  1.00  0.00    -0.317 A  
HETATM    9  C   UNL     1     -11.016   9.091  71.147  1.00  0.00    -0.371 A  
HETATM   10  C   UNL     1     -13.096   8.012  71.729  1.00  0.00    -0.360 A  
HETATM   11  C   UNL     1     -11.668  10.326  71.121  1.00  0.00    -0.430 A  
HETATM   12  C   UNL     1     -13.743   9.249  71.708  1.00  0.00    -0.443 A  
HETATM   13  C   UNL     1     -13.030  10.405  71.406  1.00  0.00    -0.545 A  
ENDBRANCH   7   8
BRANCH   7  14
HETATM   14  C   UNL     1     -10.686   6.089  70.063  1.00  0.00    -0.380 A  
HETATM   15  C   UNL     1      -9.588   4.479  68.600  1.00  0.00    -0.222 A  
HETATM   16  C   UNL     1     -10.983   6.207  67.648  1.00  0.00    -0.400 A  
HETATM   17  C   UNL     1      -9.857   4.968  69.881  1.00  0.00    -0.296 A  
HETATM   18 BR   UNL     1      -9.797   4.435  65.757  1.00  0.00    -0.252 Br 
HETATM   19  C   UNL     1     -11.248   6.699  68.928  1.00  0.00    -0.273 A  
HETATM   20  C   UNL     1     -10.154   5.102  67.490  1.00  0.00    -0.167 A  
ENDBRANCH   7  14
ENDBRANCH   6   7
ENDBRANCH   5   6
ENDBRANCH   4   5
ENDBRANCH   2   4
TORSDOF 6
ENDMDL
MODEL       91
REMARK 921   NORMALIZED FREE ENERGY PREDICTED BY IDOCK:   -3.95 KCAL/MOL
REMARK 922        TOTAL FREE ENERGY PREDICTED BY IDOCK:   -6.25 KCAL/MOL
REMARK 923 INTER-LIGAND FREE ENERGY PREDICTED BY IDOCK:   -5.57 KCAL/MOL
REMARK 924 INTRA-LIGAND FREE ENERGY PREDICTED BY IDOCK:   -0.68 KCAL/MOL
REMARK 927      BINDING AFFINITY PREDICTED BY RF-SCORE:    0.00 PKD
ROOT
HETATM    1  C   UNL     1     -10.439  11.704  64.415  1.00  0.00    -0.322 C  
HETATM    2  N   UNL     1     -11.369  12.785  64.751  1.00  0.00    -0.298 NA 
HETATM    3  C   UNL     1     -11.946  12.540  66.076  1.00  0.00    -0.392 C  
ENDROOT
BRANCH   2   4
HETATM    4  C   UNL     1     -10.681  14.092  64.677  1.00  0.00    -0.399 C  
BRANCH   4   5
HETATM    5  C   UNL     1      -9.988  14.492  65.989  1.00  0.00    -0.322 C  
BRANCH   5   6
HETATM    6  O   UNL     1     -10.213  15.876  66.281  1.00  0.00    -0.280 OA 
BRANCH   6   7
HETATM    7  C   UNL     1      -8.974  16.599  66.434  1.00  0.00    -0.291 C  
BRANCH   7   8
HETATM    8  C   UNL     1      -9.222  18.072  66.742  1.00  0.00    -0.285 A  
HETATM    9  C   UNL     1      -8.139  18.951  66.908  1.00  0.00    -0.275 A  
HETATM   10  C   UNL     1     -10.525  18.585  66.841  1.00  0.00    -0.434 A  
HETATM   11  C   UNL     1      -8.358  20.303  67.180  1.00  0.00    -0.394 A  
HETATM   12  C   UNL     1     -10.740  19.936  67.118  1.00  0.00    -0.469 A  
HETATM   13  C   UNL     1      -9.657  20.795  67.290  1.00  0.00    -0.494 A  
ENDBRANCH   7   8
BRANCH   7  14
HETATM   14  C   UNL     1      -8.109  15.939  67.502  1.00  0.00    -0.171 A  
HETATM   15  C   UNL     1      -7.805  15.251  69.820  1.00  0.00    -0.057 A  
HETATM   16  C   UNL     1      -6.137  14.673  68.169  1.00  0.00    -0.146 A  
HETATM   17  C   UNL     1      -8.559  15.891  68.833  1.00  0.00    -0.221 A  
HETATM   18 BR   UNL     1      -5.582  13.771  70.815  1.00  0.00    -0.196 Br 
HETATM   19  C   UNL     1      -6.888  15.317  67.184  1.00  0.00     0.025 A  
HETATM   20  C   UNL     1      -6.598  14.645  69.482  1.00  0.00    -0.149 A  
ENDBRANCH   7  14
ENDBRANCH   6   7
ENDBRANCH   5   6
ENDBRANCH   4   5
ENDBRANCH   2   4
TORSDOF 6
ENDMDL
MODEL       92
REMARK 921   NORMALIZED FREE ENERGY PREDICTED BY IDOCK:   -3.94 KCAL/MOL
REMARK 922        TOTAL FREE ENERGY PREDICTED BY IDOCK:   -6.23 KCAL/MOL
REMARK 923 INTER-LIGAND FREE ENERGY PREDICTED BY IDOCK:   -5.47 KCAL/MOL
REMARK 924 INTRA-LIGAND FREE ENERGY PREDICTED BY IDOCK:   -0.76 KCAL/MOL
REMARK 927      BINDING AFFINITY PREDICTED BY RF-SCORE:    0.00 PKD
ROOT
HETATM    1  C   UNL     1      -9.277   4.891  73.189  1.00  0.00    -0.118 C  
HETATM    2  N   UNL     1      -9.511   5.834  72.093  1.00  0.00    -0.149 NA 
HETATM    3  C   UNL     1      -8.454   5.691  71.089  1.00  0.00    -0.127 C  
ENDROOT
BRANCH   2   4
HETATM    4  C   UNL     1     -10.857   5.624  71.518  1.00  0.00    -0.230 C  
BRANCH   4   5
HETATM    5  C   UNL     1     -10.959   6.033  70.040  1.00  0.00    -0.380 C  
BRANCH   5   6
HETATM    6  O   UNL     1     -11.638   7.288  69.905  1.00  0.00    -0.127 OA 
BRANCH   6   7
HETATM    7  C   UNL     1     -10.727   8.402  70.007  1.00  0.00    -0.236 C  
BRANCH   7   8
HETATM    8  C   UNL     1     -10.060   8.701  68.668  1.00  0.00    -0.207 A  
HETATM    9  C   UNL     1      -8.694   9.022  68.617  1.00  0.00    -0.133 A  
HETATM   10  C   UNL     1     -10.782   8.638  67.466  1.00  0.00    -0.209 A  
HETATM   11  C   UNL     1      -8.073   9.287  67.394  1.00  0.00    -0.110 A  
HETATM   12  C   UNL     1     -10.160   8.909  66.247  1.00  0.00    -0.284 A  
HETATM   13  C   UNL     1      -8.806   9.235  66.210  1.00  0.00    -0.172 A  
ENDBRANCH   7   8
BRANCH   7  14
HETATM   14  C   UNL     1     -11.452   9.624  70.561  1.00  0.00    -0.352 A  
HETATM   15  C   UNL     1     -11.926  12.011  70.436  1.00  0.00    -0.379 A  
HETATM   16  C   UNL     1     -13.073  10.645  72.066  1.00  0.00    -0.501 A  
HETATM   17  C   UNL     1     -11.238  10.885  69.976  1.00  0.00    -0.340 A  
HETATM   18 BR   UNL     1     -13.777  13.406  72.095  1.00  0.00    -0.622 Br 
HETATM   19  C   UNL     1     -12.382   9.520  71.610  1.00  0.00    -0.480 A  
HETATM   20  C   UNL     1     -12.841  11.884  71.478  1.00  0.00    -0.316 A  
ENDBRANCH   7  14
ENDBRANCH   6   7
ENDBRANCH   5   6
ENDBRANCH   4   5
ENDBRANCH   2   4
TORSDOF 6
ENDMDL
MODEL       93
REMARK 921   NORMALIZED FREE ENERGY PREDICTED BY IDOCK:   -3.91 KCAL/MOL
REMARK 922        TOTAL FREE ENERGY PREDICTED BY IDOCK:   -6.20 KCAL/MOL
REMARK 923 INTER-LIGAND FREE ENERGY PREDICTED BY IDOCK:   -5.35 KCAL/MOL
REMARK 924 INTRA-LIGAND FREE ENERGY PREDICTED BY IDOCK:   -0.85 KCAL/MOL
REMARK 927      BINDING AFFINITY PREDICTED BY RF-SCORE:    0.00 PKD
ROOT
HETATM    1  C   UNL     1     -11.574  13.995  66.526  1.00  0.00    -0.374 C  
HETATM    2  N   UNL     1     -11.283  14.996  67.554  1.00  0.00    -0.322 NA 
HETATM    3  C   UNL     1     -10.613  14.352  68.688  1.00  0.00    -0.252 C  
ENDROOT
BRANCH   2   4
HETATM    4  C   UNL     1     -10.478  16.096  66.983  1.00  0.00    -0.306 C  
BRANCH   4   5
HETATM    5  C   UNL     1      -9.763  16.945  68.047  1.00  0.00    -0.256 C  
BRANCH   5   6
HETATM    6  O   UNL     1      -8.364  17.051  67.757  1.00  0.00    -0.191 OA 
BRANCH   6   7
HETATM    7  C   UNL     1      -7.898  18.412  67.863  1.00  0.00    -0.256 C  
BRANCH   7   8
HETATM    8  C   UNL     1      -6.950  18.585  69.046  1.00  0.00    -0.286 A  
HETATM    9  C   UNL     1      -6.221  17.488  69.533  1.00  0.00    -0.246 A  
HETATM   10  C   UNL     1      -6.766  19.837  69.654  1.00  0.00    -0.351 A  
HETATM   11  C   UNL     1      -5.344  17.640  70.608  1.00  0.00    -0.261 A  
HETATM   12  C   UNL     1      -5.892  19.985  70.732  1.00  0.00    -0.356 A  
HETATM   13  C   UNL     1      -5.182  18.887  71.211  1.00  0.00    -0.304 A  
ENDBRANCH   7   8
BRANCH   7  14
HETATM   14  C   UNL     1      -7.250  18.850  66.554  1.00  0.00    -0.247 A  
HETATM   15  C   UNL     1      -6.878  20.580  64.879  1.00  0.00    -0.193 A  
HETATM   16  C   UNL     1      -5.735  18.459  64.687  1.00  0.00    -0.073 A  
HETATM   17  C   UNL     1      -7.497  20.140  66.052  1.00  0.00    -0.300 A  
HETATM   18 BR   UNL     1      -5.156  20.334  62.620  1.00  0.00    -0.239 Br 
HETATM   19  C   UNL     1      -6.358  18.017  65.856  1.00  0.00    -0.294 A  
HETATM   20  C   UNL     1      -6.000  19.736  64.203  1.00  0.00    -0.241 A  
ENDBRANCH   7  14
ENDBRANCH   6   7
ENDBRANCH   5   6
ENDBRANCH   4   5
ENDBRANCH   2   4
TORSDOF 6
ENDMDL
MODEL       94
REMARK 921   NORMALIZED FREE ENERGY PREDICTED BY IDOCK:   -3.89 KCAL/MOL
REMARK 922        TOTAL FREE ENERGY PREDICTED BY IDOCK:   -6.17 KCAL/MOL
REMARK 923 INTER-LIGAND FREE ENERGY PREDICTED BY IDOCK:   -5.36 KCAL/MOL
REMARK 924 INTRA-LIGAND FREE ENERGY PREDICTED BY IDOCK:   -0.80 KCAL/MOL
REMARK 927      BINDING AFFINITY PREDICTED BY RF-SCORE:    0.00 PKD
ROOT
HETATM    1  C   UNL     1     -10.736  15.234  64.860  1.00  0.00    -0.400 C  
HETATM    2  N   UNL     1     -11.296  13.930  65.222  1.00  0.00    -0.306 NA 
HETATM    3  C   UNL     1     -12.745  13.941  65.001  1.00  0.00    -0.336 C  
ENDROOT
BRANCH   2   4
HETATM    4  C   UNL     1     -10.625  12.856  64.459  1.00  0.00    -0.382 C  
BRANCH   4   5
HETATM    5  C   UNL     1      -9.694  11.986  65.319  1.00  0.00    -0.164 C  
BRANCH   5   6
HETATM    6  O   UNL     1     -10.345  11.592  66.533  1.00  0.00    -0.213 OA 
BRANCH   6   7
HETATM    7  C   UNL     1      -9.452  11.659  67.664  1.00  0.00    -0.177 C  
BRANCH   7   8
HETATM    8  C   UNL     1      -9.213  13.101  68.101  1.00  0.00    -0.215 A  
HETATM    9  C   UNL     1     -10.301  13.934  68.408  1.00  0.00    -0.249 A  
HETATM   10  C   UNL     1      -7.914  13.616  68.232  1.00  0.00    -0.150 A  
HETATM   11  C   UNL     1     -10.091  15.252  68.820  1.00  0.00    -0.219 A  
HETATM   12  C   UNL     1      -7.708  14.935  68.637  1.00  0.00    -0.127 A  
HETATM   13  C   UNL     1      -8.796  15.754  68.930  1.00  0.00    -0.220 A  
ENDBRANCH   7   8
BRANCH   7  14
HETATM   14  C   UNL     1      -9.988  10.805  68.808  1.00  0.00    -0.201 A  
HETATM   15  C   UNL     1      -9.574   9.206  70.599  1.00  0.00    -0.312 A  
HETATM   16  C   UNL     1     -11.789  10.126  70.302  1.00  0.00    -0.342 A  
HETATM   17  C   UNL     1      -9.115   9.963  69.518  1.00  0.00    -0.237 A  
HETATM   18 BR   UNL     1     -11.529   8.276  72.454  1.00  0.00    -0.454 Br 
HETATM   19  C   UNL     1     -11.331  10.878  69.218  1.00  0.00    -0.345 A  
HETATM   20  C   UNL     1     -10.909   9.293  70.986  1.00  0.00    -0.314 A  
ENDBRANCH   7  14
ENDBRANCH   6   7
ENDBRANCH   5   6
ENDBRANCH   4   5
ENDBRANCH   2   4
TORSDOF 6
ENDMDL
MODEL       95
REMARK 921   NORMALIZED FREE ENERGY PREDICTED BY IDOCK:   -3.85 KCAL/MOL
REMARK 922        TOTAL FREE ENERGY PREDICTED BY IDOCK:   -6.12 KCAL/MOL
REMARK 923 INTER-LIGAND FREE ENERGY PREDICTED BY IDOCK:   -5.29 KCAL/MOL
REMARK 924 INTRA-LIGAND FREE ENERGY PREDICTED BY IDOCK:   -0.84 KCAL/MOL
REMARK 927      BINDING AFFINITY PREDICTED BY RF-SCORE:    0.00 PKD
ROOT
HETATM    1  C   UNL     1      -6.730  18.267  66.457  1.00  0.00    -0.206 C  
HETATM    2  N   UNL     1      -7.191  17.925  67.804  1.00  0.00    -0.206 NA 
HETATM    3  C   UNL     1      -8.310  18.796  68.174  1.00  0.00    -0.306 C  
ENDROOT
BRANCH   2   4
HETATM    4  C   UNL     1      -7.555  16.493  67.871  1.00  0.00    -0.152 C  
BRANCH   4   5
HETATM    5  C   UNL     1      -8.627  16.088  66.846  1.00  0.00    -0.231 C  
BRANCH   5   6
HETATM    6  O   UNL     1      -8.568  14.682  66.579  1.00  0.00    -0.165 OA 
BRANCH   6   7
HETATM    7  C   UNL     1      -9.809  14.023  66.907  1.00  0.00    -0.267 C  
BRANCH   7   8
HETATM    8  C   UNL     1     -10.595  13.657  65.652  1.00  0.00    -0.294 A  
HETATM    9  C   UNL     1     -11.673  14.456  65.238  1.00  0.00    -0.364 A  
HETATM   10  C   UNL     1     -10.247  12.542  64.874  1.00  0.00    -0.301 A  
HETATM   11  C   UNL     1     -12.391  14.135  64.083  1.00  0.00    -0.372 A  
HETATM   12  C   UNL     1     -10.970  12.220  63.725  1.00  0.00    -0.495 A  
HETATM   13  C   UNL     1     -12.043  13.015  63.330  1.00  0.00    -0.591 A  
ENDBRANCH   7   8
BRANCH   7  14
HETATM   14  C   UNL     1      -9.540  12.800  67.778  1.00  0.00    -0.204 A  
HETATM   15  C   UNL     1     -10.399  10.922  69.071  1.00  0.00    -0.230 A  
HETATM   16  C   UNL     1      -8.014  11.188  68.782  1.00  0.00    -0.144 A  
HETATM   17  C   UNL     1     -10.619  12.071  68.308  1.00  0.00    -0.233 A  
HETATM   18 BR   UNL     1      -8.798   8.926  70.328  1.00  0.00    -0.216 Br 
HETATM   19  C   UNL     1      -8.234  12.340  68.024  1.00  0.00    -0.163 A  
HETATM   20  C   UNL     1      -9.096  10.486  69.303  1.00  0.00    -0.145 A  
ENDBRANCH   7  14
ENDBRANCH   6   7
ENDBRANCH   5   6
ENDBRANCH   4   5
ENDBRANCH   2   4
TORSDOF 6
ENDMDL
MODEL       96
REMARK 921   NORMALIZED FREE ENERGY PREDICTED BY IDOCK:   -3.85 KCAL/MOL
REMARK 922        TOTAL FREE ENERGY PREDICTED BY IDOCK:   -6.12 KCAL/MOL
REMARK 923 INTER-LIGAND FREE ENERGY PREDICTED BY IDOCK:   -5.39 KCAL/MOL
REMARK 924 INTRA-LIGAND FREE ENERGY PREDICTED BY IDOCK:   -0.73 KCAL/MOL
REMARK 927      BINDING AFFINITY PREDICTED BY RF-SCORE:    0.00 PKD
ROOT
HETATM    1  C   UNL     1      -8.053   6.448  74.061  1.00  0.00    -0.107 C  
HETATM    2  N   UNL     1      -8.048   7.789  73.471  1.00  0.00    -0.152 NA 
HETATM    3  C   UNL     1      -6.958   8.577  74.054  1.00  0.00    -0.082 C  
ENDROOT
BRANCH   2   4
HETATM    4  C   UNL     1      -7.945   7.698  71.999  1.00  0.00    -0.100 C  
BRANCH   4   5
HETATM    5  C   UNL     1      -8.085   9.056  71.293  1.00  0.00    -0.094 C  
BRANCH   5   6
HETATM    6  O   UNL     1      -9.453   9.480  71.274  1.00  0.00    -0.219 OA 
BRANCH   6   7
HETATM    7  C   UNL     1     -10.274   8.601  70.478  1.00  0.00    -0.197 C  
BRANCH   7   8
HETATM    8  C   UNL     1     -11.692   8.508  71.033  1.00  0.00    -0.310 A  
HETATM    9  C   UNL     1     -12.296   9.634  71.615  1.00  0.00    -0.489 A  
HETATM   10  C   UNL     1     -12.428   7.316  70.954  1.00  0.00    -0.266 A  
HETATM   11  C   UNL     1     -13.598   9.561  72.116  1.00  0.00    -0.500 A  
HETATM   12  C   UNL     1     -13.726   7.245  71.461  1.00  0.00    -0.451 A  
HETATM   13  C   UNL     1     -14.311   8.366  72.043  1.00  0.00    -0.555 A  
ENDBRANCH   7   8
BRANCH   7  14
HETATM   14  C   UNL     1     -10.269   9.051  69.021  1.00  0.00    -0.216 A  
HETATM   15  C   UNL     1     -10.955  10.660  67.325  1.00  0.00    -0.348 A  
HETATM   16  C   UNL     1      -9.485   8.838  66.724  1.00  0.00    -0.249 A  
HETATM   17  C   UNL     1     -10.982  10.202  68.645  1.00  0.00    -0.273 A  
HETATM   18 BR   UNL     1     -10.160  10.600  64.588  1.00  0.00    -0.401 Br 
HETATM   19  C   UNL     1      -9.517   8.378  68.042  1.00  0.00    -0.157 A  
HETATM   20  C   UNL     1     -10.205   9.975  66.372  1.00  0.00    -0.221 A  
ENDBRANCH   7  14
ENDBRANCH   6   7
ENDBRANCH   5   6
ENDBRANCH   4   5
ENDBRANCH   2   4
TORSDOF 6
ENDMDL
MODEL       97
REMARK 921   NORMALIZED FREE ENERGY PREDICTED BY IDOCK:   -3.84 KCAL/MOL
REMARK 922        TOTAL FREE ENERGY PREDICTED BY IDOCK:   -6.10 KCAL/MOL
REMARK 923 INTER-LIGAND FREE ENERGY PREDICTED BY IDOCK:   -5.46 KCAL/MOL
REMARK 924 INTRA-LIGAND FREE ENERGY PREDICTED BY IDOCK:   -0.65 KCAL/MOL
REMARK 927      BINDING AFFINITY PREDICTED BY RF-SCORE:    0.00 PKD
ROOT
HETATM    1  C   UNL     1      -6.054   9.431  71.904  1.00  0.00     0.063 C  
HETATM    2  N   UNL     1      -6.383  10.482  70.938  1.00  0.00    -0.347 NA 
HETATM    3  C   UNL     1      -5.274  11.437  70.856  1.00  0.00    -0.128 C  
ENDROOT
BRANCH   2   4
HETATM    4  C   UNL     1      -6.703   9.886  69.623  1.00  0.00    -0.061 C  
BRANCH   4   5
HETATM    5  C   UNL     1      -7.562  10.798  68.733  1.00  0.00    -0.113 C  
BRANCH   5   6
HETATM    6  O   UNL     1      -8.714  11.265  69.445  1.00  0.00     0.152 OA 
BRANCH   6   7
HETATM    7  C   UNL     1      -9.938  10.762  68.869  1.00  0.00    -0.202 C  
BRANCH   7   8
HETATM    8  C   UNL     1     -10.980  10.470  69.944  1.00  0.00    -0.359 A  
HETATM    9  C   UNL     1     -11.937  11.441  70.280  1.00  0.00    -0.460 A  
HETATM   10  C   UNL     1     -11.023   9.228  70.597  1.00  0.00    -0.336 A  
HETATM   11  C   UNL     1     -12.902  11.178  71.256  1.00  0.00    -0.515 A  
HETATM   12  C   UNL     1     -11.985   8.971  71.575  1.00  0.00    -0.414 A  
HETATM   13  C   UNL     1     -12.923   9.945  71.906  1.00  0.00    -0.545 A  
ENDBRANCH   7   8
BRANCH   7  14
HETATM   14  C   UNL     1     -10.466  11.738  67.823  1.00  0.00    -0.219 A  
HETATM   15  C   UNL     1     -11.619  12.120  65.710  1.00  0.00    -0.414 A  
HETATM   16  C   UNL     1     -10.942  14.004  67.065  1.00  0.00    -0.302 A  
HETATM   17  C   UNL     1     -11.086  11.245  66.661  1.00  0.00    -0.299 A  
HETATM   18 BR   UNL     1     -12.273  14.678  64.637  1.00  0.00    -0.385 Br 
HETATM   19  C   UNL     1     -10.405  13.129  68.013  1.00  0.00    -0.240 A  
HETATM   20  C   UNL     1     -11.544  13.495  65.919  1.00  0.00    -0.335 A  
ENDBRANCH   7  14
ENDBRANCH   6   7
ENDBRANCH   5   6
ENDBRANCH   4   5
ENDBRANCH   2   4
TORSDOF 6
ENDMDL
MODEL       98
REMARK 921   NORMALIZED FREE ENERGY PREDICTED BY IDOCK:   -3.84 KCAL/MOL
REMARK 922        TOTAL FREE ENERGY PREDICTED BY IDOCK:   -6.10 KCAL/MOL
REMARK 923 INTER-LIGAND FREE ENERGY PREDICTED BY IDOCK:   -5.38 KCAL/MOL
REMARK 924 INTRA-LIGAND FREE ENERGY PREDICTED BY IDOCK:   -0.72 KCAL/MOL
REMARK 927      BINDING AFFINITY PREDICTED BY RF-SCORE:    0.00 PKD
ROOT
HETATM    1  C   UNL     1      -7.474   8.341  66.161  1.00  0.00    -0.081 C  
HETATM    2  N   UNL     1      -8.819   7.926  65.758  1.00  0.00    -0.150 NA 
HETATM    3  C   UNL     1      -9.043   6.534  66.161  1.00  0.00    -0.124 C  
ENDROOT
BRANCH   2   4
HETATM    4  C   UNL     1      -9.829   8.840  66.333  1.00  0.00    -0.282 C  
BRANCH   4   5
HETATM    5  C   UNL     1      -9.474  10.326  66.162  1.00  0.00    -0.181 C  
BRANCH   5   6
HETATM    6  O   UNL     1      -9.501  11.003  67.424  1.00  0.00    -0.159 OA 
BRANCH   6   7
HETATM    7  C   UNL     1     -10.450  12.090  67.427  1.00  0.00    -0.216 C  
BRANCH   7   8
HETATM    8  C   UNL     1     -11.228  12.147  68.738  1.00  0.00    -0.314 A  
HETATM    9  C   UNL     1     -11.562  13.387  69.307  1.00  0.00    -0.365 A  
HETATM   10  C   UNL     1     -11.646  10.975  69.387  1.00  0.00    -0.383 A  
HETATM   11  C   UNL     1     -12.284  13.447  70.501  1.00  0.00    -0.425 A  
HETATM   12  C   UNL     1     -12.362  11.039  70.583  1.00  0.00    -0.480 A  
HETATM   13  C   UNL     1     -12.679  12.275  71.142  1.00  0.00    -0.340 A  
ENDBRANCH   7   8
BRANCH   7  14
HETATM   14  C   UNL     1      -9.740  13.408  67.136  1.00  0.00    -0.237 A  
HETATM   15  C   UNL     1      -7.857  14.903  67.530  1.00  0.00    -0.206 A  
HETATM   16  C   UNL     1      -9.519  15.479  65.872  1.00  0.00    -0.377 A  
HETATM   17  C   UNL     1      -8.549  13.723  67.813  1.00  0.00    -0.184 A  
HETATM   18 BR   UNL     1      -7.405  17.368  66.171  1.00  0.00    -0.277 Br 
HETATM   19  C   UNL     1     -10.213  14.302  66.159  1.00  0.00    -0.317 A  
HETATM   20  C   UNL     1      -8.346  15.774  66.560  1.00  0.00    -0.278 A  
ENDBRANCH   7  14
ENDBRANCH   6   7
ENDBRANCH   5   6
ENDBRANCH   4   5
ENDBRANCH   2   4
TORSDOF 6
ENDMDL
MODEL       99
REMARK 921   NORMALIZED FREE ENERGY PREDICTED BY IDOCK:   -3.83 KCAL/MOL
REMARK 922        TOTAL FREE ENERGY PREDICTED BY IDOCK:   -6.09 KCAL/MOL
REMARK 923 INTER-LIGAND FREE ENERGY PREDICTED BY IDOCK:   -5.13 KCAL/MOL
REMARK 924 INTRA-LIGAND FREE ENERGY PREDICTED BY IDOCK:   -0.97 KCAL/MOL
REMARK 927      BINDING AFFINITY PREDICTED BY RF-SCORE:    0.00 PKD
ROOT
HETATM    1  C   UNL     1     -11.776  15.673  69.075  1.00  0.00    -0.395 C  
HETATM    2  N   UNL     1     -10.783  15.358  68.045  1.00  0.00    -0.270 NA 
HETATM    3  C   UNL     1     -10.658  16.490  67.123  1.00  0.00    -0.270 C  
ENDROOT
BRANCH   2   4
HETATM    4  C   UNL     1      -9.491  15.005  68.672  1.00  0.00    -0.212 C  
BRANCH   4   5
HETATM    5  C   UNL     1      -8.623  14.082  67.801  1.00  0.00    -0.183 C  
BRANCH   5   6
HETATM    6  O   UNL     1      -8.596  12.754  68.338  1.00  0.00    -0.177 OA 
BRANCH   6   7
HETATM    7  C   UNL     1      -9.586  11.907  67.717  1.00  0.00    -0.190 C  
BRANCH   7   8
HETATM    8  C   UNL     1      -8.943  10.910  66.758  1.00  0.00    -0.158 A  
HETATM    9  C   UNL     1      -7.547  10.762  66.726  1.00  0.00    -0.129 A  
HETATM   10  C   UNL     1      -9.725  10.107  65.912  1.00  0.00    -0.292 A  
HETATM   11  C   UNL     1      -6.952   9.843  65.858  1.00  0.00    -0.106 A  
HETATM   12  C   UNL     1      -9.126   9.195  65.043  1.00  0.00    -0.215 A  
HETATM   13  C   UNL     1      -7.740   9.063  65.014  1.00  0.00    -0.109 A  
ENDBRANCH   7   8
BRANCH   7  14
HETATM   14  C   UNL     1     -10.420  11.205  68.783  1.00  0.00    -0.227 A  
HETATM   15  C   UNL     1     -10.538   9.683  70.683  1.00  0.00    -0.386 A  
HETATM   16  C   UNL     1     -12.522  10.863  69.966  1.00  0.00    -0.332 A  
HETATM   17  C   UNL     1      -9.804  10.303  69.668  1.00  0.00    -0.230 A  
HETATM   18 BR   UNL     1     -12.886   9.135  72.203  1.00  0.00    -0.492 Br 
HETATM   19  C   UNL     1     -11.789  11.478  68.949  1.00  0.00    -0.406 A  
HETATM   20  C   UNL     1     -11.894   9.968  70.826  1.00  0.00    -0.346 A  
ENDBRANCH   7  14
ENDBRANCH   6   7
ENDBRANCH   5   6
ENDBRANCH   4   5
ENDBRANCH   2   4
TORSDOF 6
ENDMDL
MODEL      100
REMARK 921   NORMALIZED FREE ENERGY PREDICTED BY IDOCK:   -3.83 KCAL/MOL
REMARK 922        TOTAL FREE ENERGY PREDICTED BY IDOCK:   -6.09 KCAL/MOL
REMARK 923 INTER-LIGAND FREE ENERGY PREDICTED BY IDOCK:   -5.38 KCAL/MOL
REMARK 924 INTRA-LIGAND FREE ENERGY PREDICTED BY IDOCK:   -0.71 KCAL/MOL
REMARK 927      BINDING AFFINITY PREDICTED BY RF-SCORE:    0.00 PKD
ROOT
HETATM    1  C   UNL     1     -11.210   6.421  72.174  1.00  0.00    -0.279 C  
HETATM    2  N   UNL     1     -11.118   7.708  72.867  1.00  0.00    -0.381 NA 
HETATM    3  C   UNL     1      -9.726   7.958  73.251  1.00  0.00    -0.285 C  
ENDROOT
BRANCH   2   4
HETATM    4  C   UNL     1     -11.663   8.787  72.015  1.00  0.00    -0.372 C  
BRANCH   4   5
HETATM    5  C   UNL     1     -10.586   9.523  71.201  1.00  0.00    -0.318 C  
BRANCH   5   6
HETATM    6  O   UNL     1     -11.103   9.932  69.929  1.00  0.00    -0.248 OA 
BRANCH   6   7
HETATM    7  C   UNL     1     -10.072   9.975  68.921  1.00  0.00    -0.190 C  
BRANCH   7   8
HETATM    8  C   UNL     1     -10.011   8.672  68.131  1.00  0.00    -0.210 A  
HETATM    9  C   UNL     1     -10.820   7.585  68.500  1.00  0.00    -0.032 A  
HETATM   10  C   UNL     1      -9.173   8.537  67.012  1.00  0.00    -0.187 A  
HETATM   11  C   UNL     1     -10.778   6.391  67.775  1.00  0.00    -0.377 A  
HETATM   12  C   UNL     1      -9.130   7.342  66.294  1.00  0.00    -0.186 A  
HETATM   13  C   UNL     1      -9.930   6.268  66.676  1.00  0.00    -0.207 A  
ENDBRANCH   7   8
BRANCH   7  14
HETATM   14  C   UNL     1     -10.279  11.178  68.007  1.00  0.00    -0.201 A  
HETATM   15  C   UNL     1     -11.744  12.476  66.556  1.00  0.00    -0.454 A  
HETATM   16  C   UNL     1      -9.514  13.276  67.034  1.00  0.00    -0.243 A  
HETATM   17  C   UNL     1     -11.515  11.358  67.361  1.00  0.00    -0.328 A  
HETATM   18 BR   UNL     1     -11.054  14.948  65.315  1.00  0.00    -0.406 Br 
HETATM   19  C   UNL     1      -9.283  12.155  67.835  1.00  0.00    -0.188 A  
HETATM   20  C   UNL     1     -10.741  13.430  66.398  1.00  0.00    -0.286 A  
ENDBRANCH   7  14
ENDBRANCH   6   7
ENDBRANCH   5   6
ENDBRANCH   4   5
ENDBRANCH   2   4
TORSDOF 6
ENDMDL
MODEL      101
REMARK 921   NORMALIZED FREE ENERGY PREDICTED BY IDOCK:   -3.82 KCAL/MOL
REMARK 922        TOTAL FREE ENERGY PREDICTED BY IDOCK:   -6.07 KCAL/MOL
REMARK 923 INTER-LIGAND FREE ENERGY PREDICTED BY IDOCK:   -5.26 KCAL/MOL
REMARK 924 INTRA-LIGAND FREE ENERGY PREDICTED BY IDOCK:   -0.81 KCAL/MOL
REMARK 927      BINDING AFFINITY PREDICTED BY RF-SCORE:    0.00 PKD
ROOT
HETATM    1  C   UNL     1      -6.756  15.337  69.349  1.00  0.00    -0.164 C  
HETATM    2  N   UNL     1      -6.488  14.857  67.991  1.00  0.00    -0.136 NA 
HETATM    3  C   UNL     1      -5.461  13.812  68.036  1.00  0.00    -0.115 C  
ENDROOT
BRANCH   2   4
HETATM    4  C   UNL     1      -7.739  14.381  67.361  1.00  0.00    -0.185 C  
BRANCH   4   5
HETATM    5  C   UNL     1      -8.318  13.124  68.030  1.00  0.00    -0.162 C  
BRANCH   5   6
HETATM    6  O   UNL     1      -8.435  12.054  67.084  1.00  0.00    -0.166 OA 
BRANCH   6   7
HETATM    7  C   UNL     1      -9.725  11.414  67.158  1.00  0.00    -0.182 C  
BRANCH   7   8
HETATM    8  C   UNL     1     -10.547  11.670  65.899  1.00  0.00    -0.318 A  
HETATM    9  C   UNL     1     -11.770  12.356  65.982  1.00  0.00    -0.469 A  
HETATM   10  C   UNL     1     -10.094  11.253  64.637  1.00  0.00    -0.343 A  
HETATM   11  C   UNL     1     -12.523  12.604  64.832  1.00  0.00    -0.564 A  
HETATM   12  C   UNL     1     -10.853  11.498  63.492  1.00  0.00    -0.473 A  
HETATM   13  C   UNL     1     -12.067  12.171  63.588  1.00  0.00    -0.648 A  
ENDBRANCH   7   8
BRANCH   7  14
HETATM   14  C   UNL     1      -9.557   9.922  67.427  1.00  0.00    -0.185 A  
HETATM   15  C   UNL     1     -10.489   7.671  67.391  1.00  0.00    -0.367 A  
HETATM   16  C   UNL     1      -8.184   8.004  68.038  1.00  0.00    -0.129 A  
HETATM   17  C   UNL     1     -10.633   9.047  67.196  1.00  0.00    -0.291 A  
HETATM   18 BR   UNL     1      -9.067   5.295  68.066  1.00  0.00    -0.125 Br 
HETATM   19  C   UNL     1      -8.330   9.381  67.848  1.00  0.00    -0.115 A  
HETATM   20  C   UNL     1      -9.264   7.158  67.810  1.00  0.00    -0.125 A  
ENDBRANCH   7  14
ENDBRANCH   6   7
ENDBRANCH   5   6
ENDBRANCH   4   5
ENDBRANCH   2   4
TORSDOF 6
ENDMDL
MODEL      102
REMARK 921   NORMALIZED FREE ENERGY PREDICTED BY IDOCK:   -3.81 KCAL/MOL
REMARK 922        TOTAL FREE ENERGY PREDICTED BY IDOCK:   -6.06 KCAL/MOL
REMARK 923 INTER-LIGAND FREE ENERGY PREDICTED BY IDOCK:   -6.45 KCAL/MOL
REMARK 924 INTRA-LIGAND FREE ENERGY PREDICTED BY IDOCK:    0.39 KCAL/MOL
REMARK 927      BINDING AFFINITY PREDICTED BY RF-SCORE:    0.00 PKD
ROOT
HETATM    1  C   UNL     1     -11.252   9.936  70.996  1.00  0.00    -0.364 C  
HETATM    2  N   UNL     1     -10.831  10.714  69.829  1.00  0.00    -0.269 NA 
HETATM    3  C   UNL     1     -10.782   9.844  68.651  1.00  0.00    -0.226 C  
ENDROOT
BRANCH   2   4
HETATM    4  C   UNL     1     -11.736  11.868  69.631  1.00  0.00    -0.343 C  
BRANCH   4   5
HETATM    5  C   UNL     1     -11.252  12.843  68.546  1.00  0.00    -0.274 C  
BRANCH   5   6
HETATM    6  O   UNL     1     -12.362  13.391  67.825  1.00  0.00    -0.219 OA 
BRANCH   6   7
HETATM    7  C   UNL     1     -11.935  14.081  66.632  1.00  0.00    -0.445 C  
BRANCH   7   8
HETATM    8  C   UNL     1     -10.976  15.221  66.960  1.00  0.00    -0.324 A  
HETATM    9  C   UNL     1     -11.236  16.070  68.048  1.00  0.00    -0.303 A  
HETATM   10  C   UNL     1      -9.809  15.430  66.208  1.00  0.00    -0.320 A  
HETATM   11  C   UNL     1     -10.357  17.109  68.363  1.00  0.00    -0.362 A  
HETATM   12  C   UNL     1      -8.937  16.473  66.521  1.00  0.00    -0.312 A  
HETATM   13  C   UNL     1      -9.210  17.313  67.597  1.00  0.00    -0.229 A  
ENDBRANCH   7   8
BRANCH   7  14
HETATM   14  C   UNL     1     -11.320  13.095  65.645  1.00  0.00    -0.328 A  
HETATM   15  C   UNL     1     -11.209  12.189  63.385  1.00  0.00    -0.494 A  
HETATM   16  C   UNL     1      -9.667  11.399  65.071  1.00  0.00    -0.286 A  
HETATM   17  C   UNL     1     -11.788  13.052  64.319  1.00  0.00    -0.456 A  
HETATM   18 BR   UNL     1      -9.362  10.206  62.501  1.00  0.00    -0.270 Br 
HETATM   19  C   UNL     1     -10.250  12.258  66.006  1.00  0.00    -0.267 A  
HETATM   20  C   UNL     1     -10.151  11.368  63.767  1.00  0.00    -0.362 A  
ENDBRANCH   7  14
ENDBRANCH   6   7
ENDBRANCH   5   6
ENDBRANCH   4   5
ENDBRANCH   2   4
TORSDOF 6
ENDMDL
MODEL      103
REMARK 921   NORMALIZED FREE ENERGY PREDICTED BY IDOCK:   -3.80 KCAL/MOL
REMARK 922        TOTAL FREE ENERGY PREDICTED BY IDOCK:   -6.05 KCAL/MOL
REMARK 923 INTER-LIGAND FREE ENERGY PREDICTED BY IDOCK:   -5.29 KCAL/MOL
REMARK 924 INTRA-LIGAND FREE ENERGY PREDICTED BY IDOCK:   -0.76 KCAL/MOL
REMARK 927      BINDING AFFINITY PREDICTED BY RF-SCORE:    0.00 PKD
ROOT
HETATM    1  C   UNL     1     -10.804   5.761  71.105  1.00  0.00    -0.248 C  
HETATM    2  N   UNL     1     -11.520   6.624  72.047  1.00  0.00    -0.277 NA 
HETATM    3  C   UNL     1     -10.674   6.880  73.216  1.00  0.00    -0.320 C  
ENDROOT
BRANCH   2   4
HETATM    4  C   UNL     1     -11.938   7.875  71.378  1.00  0.00    -0.303 C  
BRANCH   4   5
HETATM    5  C   UNL     1     -11.065   9.085  71.747  1.00  0.00    -0.374 C  
BRANCH   5   6
HETATM    6  O   UNL     1     -10.290   9.514  70.621  1.00  0.00    -0.263 OA 
BRANCH   6   7
HETATM    7  C   UNL     1     -11.015   9.358  69.383  1.00  0.00    -0.145 C  
BRANCH   7   8
HETATM    8  C   UNL     1     -11.296  10.707  68.728  1.00  0.00    -0.339 A  
HETATM    9  C   UNL     1     -11.257  10.833  67.330  1.00  0.00    -0.272 A  
HETATM   10  C   UNL     1     -11.624  11.834  69.496  1.00  0.00    -0.398 A  
HETATM   11  C   UNL     1     -11.525  12.062  66.721  1.00  0.00    -0.410 A  
HETATM   12  C   UNL     1     -11.885  13.061  68.885  1.00  0.00    -0.358 A  
HETATM   13  C   UNL     1     -11.834  13.176  67.499  1.00  0.00    -0.409 A  
ENDBRANCH   7   8
BRANCH   7  14
HETATM   14  C   UNL     1     -10.257   8.424  68.445  1.00  0.00    -0.239 A  
HETATM   15  C   UNL     1     -10.289   6.582  66.850  1.00  0.00    -0.311 A  
HETATM   16  C   UNL     1      -8.216   7.740  67.304  1.00  0.00    -0.119 A  
HETATM   17  C   UNL     1     -10.953   7.420  67.749  1.00  0.00    -0.099 A  
HETATM   18 BR   UNL     1      -8.025   5.620  65.409  1.00  0.00    -0.118 Br 
HETATM   19  C   UNL     1      -8.880   8.574  68.207  1.00  0.00    -0.142 A  
HETATM   20  C   UNL     1      -8.923   6.748  66.632  1.00  0.00    -0.144 A  
ENDBRANCH   7  14
ENDBRANCH   6   7
ENDBRANCH   5   6
ENDBRANCH   4   5
ENDBRANCH   2   4
TORSDOF 6
ENDMDL
MODEL      104
REMARK 921   NORMALIZED FREE ENERGY PREDICTED BY IDOCK:   -3.80 KCAL/MOL
REMARK 922        TOTAL FREE ENERGY PREDICTED BY IDOCK:   -6.04 KCAL/MOL
REMARK 923 INTER-LIGAND FREE ENERGY PREDICTED BY IDOCK:   -6.19 KCAL/MOL
REMARK 924 INTRA-LIGAND FREE ENERGY PREDICTED BY IDOCK:    0.15 KCAL/MOL
REMARK 927      BINDING AFFINITY PREDICTED BY RF-SCORE:    0.00 PKD
ROOT
HETATM    1  C   UNL     1     -10.394  18.639  67.249  1.00  0.00    -0.400 C  
HETATM    2  N   UNL     1     -10.075  18.063  68.557  1.00  0.00    -0.377 NA 
HETATM    3  C   UNL     1      -9.936  19.138  69.544  1.00  0.00     0.096 C  
ENDROOT
BRANCH   2   4
HETATM    4  C   UNL     1     -11.106  17.078  68.948  1.00  0.00    -0.037 C  
BRANCH   4   5
HETATM    5  C   UNL     1     -10.937  16.554  70.383  1.00  0.00    -0.122 C  
BRANCH   5   6
HETATM    6  O   UNL     1     -10.805  15.127  70.390  1.00  0.00    -0.268 OA 
BRANCH   6   7
HETATM    7  C   UNL     1     -11.794  14.495  69.551  1.00  0.00    -0.329 C  
BRANCH   7   8
HETATM    8  C   UNL     1     -11.270  14.286  68.134  1.00  0.00    -0.295 A  
HETATM    9  C   UNL     1      -9.895  14.106  67.909  1.00  0.00    -0.224 A  
HETATM   10  C   UNL     1     -12.142  14.242  67.035  1.00  0.00    -0.424 A  
HETATM   11  C   UNL     1      -9.409  13.903  66.616  1.00  0.00    -0.282 A  
HETATM   12  C   UNL     1     -11.652  14.045  65.744  1.00  0.00    -0.339 A  
HETATM   13  C   UNL     1     -10.286  13.877  65.533  1.00  0.00    -0.348 A  
ENDBRANCH   7   8
BRANCH   7  14
HETATM   14  C   UNL     1     -12.256  13.185  70.180  1.00  0.00    -0.360 A  
HETATM   15  C   UNL     1     -12.207  10.748  70.215  1.00  0.00    -0.431 A  
HETATM   16  C   UNL     1     -13.419  11.949  71.928  1.00  0.00    -0.289 A  
HETATM   17  C   UNL     1     -11.834  11.961  69.630  1.00  0.00    -0.406 A  
HETATM   18 BR   UNL     1     -13.494   9.109  72.160  1.00  0.00    -0.574 Br 
HETATM   19  C   UNL     1     -13.051  13.161  71.339  1.00  0.00    -0.352 A  
HETATM   20  C   UNL     1     -12.997  10.750  71.362  1.00  0.00    -0.432 A  
ENDBRANCH   7  14
ENDBRANCH   6   7
ENDBRANCH   5   6
ENDBRANCH   4   5
ENDBRANCH   2   4
TORSDOF 6
ENDMDL
MODEL      105
REMARK 921   NORMALIZED FREE ENERGY PREDICTED BY IDOCK:   -3.79 KCAL/MOL
REMARK 922        TOTAL FREE ENERGY PREDICTED BY IDOCK:   -6.03 KCAL/MOL
REMARK 923 INTER-LIGAND FREE ENERGY PREDICTED BY IDOCK:   -5.08 KCAL/MOL
REMARK 924 INTRA-LIGAND FREE ENERGY PREDICTED BY IDOCK:   -0.95 KCAL/MOL
REMARK 927      BINDING AFFINITY PREDICTED BY RF-SCORE:    0.00 PKD
ROOT
HETATM    1  C   UNL     1      -7.068   8.690  67.438  1.00  0.00    -0.080 C  
HETATM    2  N   UNL     1      -8.311   9.368  67.812  1.00  0.00    -0.115 NA 
HETATM    3  C   UNL     1      -9.094   9.657  66.607  1.00  0.00    -0.148 C  
ENDROOT
BRANCH   2   4
HETATM    4  C   UNL     1      -9.068   8.548  68.783  1.00  0.00    -0.143 C  
BRANCH   4   5
HETATM    5  C   UNL     1     -10.373   7.973  68.209  1.00  0.00    -0.197 C  
BRANCH   5   6
HETATM    6  O   UNL     1     -10.849   6.890  69.017  1.00  0.00    -0.227 OA 
BRANCH   6   7
HETATM    7  C   UNL     1     -10.696   7.166  70.425  1.00  0.00    -0.235 C  
BRANCH   7   8
HETATM    8  C   UNL     1     -11.990   7.700  71.032  1.00  0.00    -0.296 A  
HETATM    9  C   UNL     1     -13.118   6.869  71.131  1.00  0.00    -0.202 A  
HETATM   10  C   UNL     1     -12.075   9.011  71.525  1.00  0.00    -0.410 A  
HETATM   11  C   UNL     1     -14.303   7.347  71.696  1.00  0.00    -0.614 A  
HETATM   12  C   UNL     1     -13.262   9.487  72.083  1.00  0.00    -0.539 A  
HETATM   13  C   UNL     1     -14.376   8.657  72.167  1.00  0.00    -0.518 A  
ENDBRANCH   7   8
BRANCH   7  14
HETATM   14  C   UNL     1     -10.204   5.920  71.154  1.00  0.00    -0.266 A  
HETATM   15  C   UNL     1      -9.663   4.797  73.248  1.00  0.00    -0.156 A  
HETATM   16  C   UNL     1      -9.538   3.577  71.166  1.00  0.00    -0.240 A  
HETATM   17  C   UNL     1     -10.067   5.940  72.554  1.00  0.00    -0.204 A  
HETATM   18 BR   UNL     1      -8.862   2.072  73.490  1.00  0.00    -0.069 Br 
HETATM   19  C   UNL     1      -9.937   4.721  70.471  1.00  0.00    -0.306 A  
HETATM   20  C   UNL     1      -9.401   3.621  72.549  1.00  0.00    -0.119 A  
ENDBRANCH   7  14
ENDBRANCH   6   7
ENDBRANCH   5   6
ENDBRANCH   4   5
ENDBRANCH   2   4
TORSDOF 6
ENDMDL
MODEL      106
REMARK 921   NORMALIZED FREE ENERGY PREDICTED BY IDOCK:   -3.77 KCAL/MOL
REMARK 922        TOTAL FREE ENERGY PREDICTED BY IDOCK:   -6.01 KCAL/MOL
REMARK 923 INTER-LIGAND FREE ENERGY PREDICTED BY IDOCK:   -5.10 KCAL/MOL
REMARK 924 INTRA-LIGAND FREE ENERGY PREDICTED BY IDOCK:   -0.91 KCAL/MOL
REMARK 927      BINDING AFFINITY PREDICTED BY RF-SCORE:    0.00 PKD
ROOT
HETATM    1  C   UNL     1     -11.137  10.058  67.643  1.00  0.00    -0.153 C  
HETATM    2  N   UNL     1     -12.027  11.221  67.655  1.00  0.00    -0.607 NA 
HETATM    3  C   UNL     1     -11.849  11.961  68.908  1.00  0.00    -0.307 C  
ENDROOT
BRANCH   2   4
HETATM    4  C   UNL     1     -11.777  12.068  66.469  1.00  0.00    -0.256 C  
BRANCH   4   5
HETATM    5  C   UNL     1     -11.845  13.574  66.769  1.00  0.00    -0.406 C  
BRANCH   5   6
HETATM    6  O   UNL     1     -10.595  14.208  66.474  1.00  0.00    -0.278 OA 
BRANCH   6   7
HETATM    7  C   UNL     1      -9.977  14.750  67.659  1.00  0.00    -0.226 C  
BRANCH   7   8
HETATM    8  C   UNL     1      -8.632  14.086  67.940  1.00  0.00    -0.181 A  
HETATM    9  C   UNL     1      -8.286  12.891  67.290  1.00  0.00    -0.185 A  
HETATM   10  C   UNL     1      -7.707  14.662  68.825  1.00  0.00    -0.137 A  
HETATM   11  C   UNL     1      -7.053  12.282  67.532  1.00  0.00    -0.142 A  
HETATM   12  C   UNL     1      -6.478  14.049  69.069  1.00  0.00    -0.101 A  
HETATM   13  C   UNL     1      -6.151  12.859  68.425  1.00  0.00    -0.074 A  
ENDBRANCH   7   8
BRANCH   7  14
HETATM   14  C   UNL     1      -9.843  16.264  67.537  1.00  0.00    -0.238 A  
HETATM   15  C   UNL     1     -10.327  18.486  68.414  1.00  0.00    -0.359 A  
HETATM   16  C   UNL     1      -8.903  18.245  66.475  1.00  0.00    -0.284 A  
HETATM   17  C   UNL     1     -10.473  17.097  68.478  1.00  0.00    -0.377 A  
HETATM   18 BR   UNL     1      -9.336  20.929  67.330  1.00  0.00    -0.175 Br 
HETATM   19  C   UNL     1      -9.054  16.858  66.537  1.00  0.00    -0.302 A  
HETATM   20  C   UNL     1      -9.541  19.051  67.413  1.00  0.00    -0.306 A  
ENDBRANCH   7  14
ENDBRANCH   6   7
ENDBRANCH   5   6
ENDBRANCH   4   5
ENDBRANCH   2   4
TORSDOF 6
ENDMDL
MODEL      107
REMARK 921   NORMALIZED FREE ENERGY PREDICTED BY IDOCK:   -3.76 KCAL/MOL
REMARK 922        TOTAL FREE ENERGY PREDICTED BY IDOCK:   -5.99 KCAL/MOL
REMARK 923 INTER-LIGAND FREE ENERGY PREDICTED BY IDOCK:   -6.03 KCAL/MOL
REMARK 924 INTRA-LIGAND FREE ENERGY PREDICTED BY IDOCK:    0.04 KCAL/MOL
REMARK 927      BINDING AFFINITY PREDICTED BY RF-SCORE:    0.00 PKD
ROOT
HETATM    1  C   UNL     1     -12.814  10.222  71.565  1.00  0.00    -0.452 C  
HETATM    2  N   UNL     1     -12.079   9.045  72.033  1.00  0.00    -0.370 NA 
HETATM    3  C   UNL     1     -12.859   7.837  71.750  1.00  0.00    -0.327 C  
ENDROOT
BRANCH   2   4
HETATM    4  C   UNL     1     -10.738   9.000  71.413  1.00  0.00    -0.331 C  
BRANCH   4   5
HETATM    5  C   UNL     1     -10.777   8.990  69.876  1.00  0.00    -0.229 C  
BRANCH   5   6
HETATM    6  O   UNL     1      -9.803   9.892  69.337  1.00  0.00    -0.191 OA 
BRANCH   6   7
HETATM    7  C   UNL     1      -9.336   9.463  68.042  1.00  0.00    -0.129 C  
BRANCH   7   8
HETATM    8  C   UNL     1      -9.586   7.974  67.825  1.00  0.00    -0.179 A  
HETATM    9  C   UNL     1     -10.744   7.544  67.156  1.00  0.00    -0.379 A  
HETATM   10  C   UNL     1      -8.663   7.010  68.260  1.00  0.00    -0.127 A  
HETATM   11  C   UNL     1     -10.975   6.183  66.943  1.00  0.00    -0.384 A  
HETATM   12  C   UNL     1      -8.901   5.651  68.051  1.00  0.00    -0.105 A  
HETATM   13  C   UNL     1     -10.057   5.237  67.394  1.00  0.00    -0.228 A  
ENDBRANCH   7   8
BRANCH   7  14
HETATM   14  C   UNL     1      -9.976  10.307  66.946  1.00  0.00    -0.259 A  
HETATM   15  C   UNL     1     -10.209  10.837  64.578  1.00  0.00    -0.428 A  
HETATM   16  C   UNL     1     -11.590  11.975  66.203  1.00  0.00    -0.371 A  
HETATM   17  C   UNL     1      -9.603  10.107  65.605  1.00  0.00    -0.302 A  
HETATM   18 BR   UNL     1     -12.027  12.747  63.495  1.00  0.00    -0.630 Br 
HETATM   19  C   UNL     1     -10.980  11.249  67.229  1.00  0.00    -0.342 A  
HETATM   20  C   UNL     1     -11.200  11.766  64.884  1.00  0.00    -0.266 A  
ENDBRANCH   7  14
ENDBRANCH   6   7
ENDBRANCH   5   6
ENDBRANCH   4   5
ENDBRANCH   2   4
TORSDOF 6
ENDMDL
MODEL      108
REMARK 921   NORMALIZED FREE ENERGY PREDICTED BY IDOCK:   -3.75 KCAL/MOL
REMARK 922        TOTAL FREE ENERGY PREDICTED BY IDOCK:   -5.99 KCAL/MOL
REMARK 923 INTER-LIGAND FREE ENERGY PREDICTED BY IDOCK:   -5.55 KCAL/MOL
REMARK 924 INTRA-LIGAND FREE ENERGY PREDICTED BY IDOCK:   -0.44 KCAL/MOL
REMARK 927      BINDING AFFINITY PREDICTED BY RF-SCORE:    0.00 PKD
ROOT
HETATM    1  C   UNL     1     -11.243   7.696  70.523  1.00  0.00    -0.261 C  
HETATM    2  N   UNL     1     -10.216   8.673  70.155  1.00  0.00    -0.188 NA 
HETATM    3  C   UNL     1      -9.319   8.087  69.154  1.00  0.00    -0.151 C  
ENDROOT
BRANCH   2   4
HETATM    4  C   UNL     1     -10.848   9.921  69.674  1.00  0.00    -0.253 C  
BRANCH   4   5
HETATM    5  C   UNL     1     -10.417  10.313  68.251  1.00  0.00    -0.199 C  
BRANCH   5   6
HETATM    6  O   UNL     1     -10.247  11.732  68.144  1.00  0.00    -0.190 OA 
BRANCH   6   7
HETATM    7  C   UNL     1      -9.610  12.102  66.904  1.00  0.00    -0.206 C  
BRANCH   7   8
HETATM    8  C   UNL     1     -10.597  12.074  65.741  1.00  0.00    -0.301 A  
HETATM    9  C   UNL     1     -11.875  12.636  65.887  1.00  0.00    -0.499 A  
HETATM   10  C   UNL     1     -10.245  11.516  64.502  1.00  0.00    -0.338 A  
HETATM   11  C   UNL     1     -12.781  12.624  64.823  1.00  0.00    -0.460 A  
HETATM   12  C   UNL     1     -11.154  11.501  63.443  1.00  0.00    -0.370 A  
HETATM   13  C   UNL     1     -12.422  12.053  63.604  1.00  0.00    -0.637 A  
ENDBRANCH   7   8
BRANCH   7  14
HETATM   14  C   UNL     1      -8.942  13.466  67.043  1.00  0.00    -0.228 A  
HETATM   15  C   UNL     1      -9.104  15.895  66.948  1.00  0.00    -0.255 A  
HETATM   16  C   UNL     1      -7.039  14.858  67.655  1.00  0.00    -0.208 A  
HETATM   17  C   UNL     1      -9.681  14.633  66.783  1.00  0.00    -0.267 A  
HETATM   18 BR   UNL     1      -7.007  17.707  67.616  1.00  0.00    -0.192 Br 
HETATM   19  C   UNL     1      -7.614  13.597  67.485  1.00  0.00    -0.180 A  
HETATM   20  C   UNL     1      -7.786  16.000  67.384  1.00  0.00    -0.167 A  
ENDBRANCH   7  14
ENDBRANCH   6   7
ENDBRANCH   5   6
ENDBRANCH   4   5
ENDBRANCH   2   4
TORSDOF 6
ENDMDL
MODEL      109
REMARK 921   NORMALIZED FREE ENERGY PREDICTED BY IDOCK:   -3.75 KCAL/MOL
REMARK 922        TOTAL FREE ENERGY PREDICTED BY IDOCK:   -5.99 KCAL/MOL
REMARK 923 INTER-LIGAND FREE ENERGY PREDICTED BY IDOCK:   -5.06 KCAL/MOL
REMARK 924 INTRA-LIGAND FREE ENERGY PREDICTED BY IDOCK:   -0.92 KCAL/MOL
REMARK 927      BINDING AFFINITY PREDICTED BY RF-SCORE:    0.00 PKD
ROOT
HETATM    1  C   UNL     1     -11.067  15.059  67.370  1.00  0.00    -0.324 C  
HETATM    2  N   UNL     1     -11.945  13.944  67.728  1.00  0.00    -0.371 NA 
HETATM    3  C   UNL     1     -11.883  12.917  66.684  1.00  0.00    -0.395 C  
ENDROOT
BRANCH   2   4
HETATM    4  C   UNL     1     -11.577  13.410  69.057  1.00  0.00    -0.312 C  
BRANCH   4   5
HETATM    5  C   UNL     1     -12.099  11.986  69.309  1.00  0.00    -0.190 C  
BRANCH   5   6
HETATM    6  O   UNL     1     -11.072  11.160  69.871  1.00  0.00    -0.243 OA 
BRANCH   6   7
HETATM    7  C   UNL     1     -11.058   9.846  69.277  1.00  0.00    -0.181 C  
BRANCH   7   8
HETATM    8  C   UNL     1     -10.076   9.771  68.112  1.00  0.00    -0.193 A  
HETATM    9  C   UNL     1      -8.804  10.357  68.223  1.00  0.00    -0.135 A  
HETATM   10  C   UNL     1     -10.406   9.100  66.924  1.00  0.00    -0.321 A  
HETATM   11  C   UNL     1      -7.895  10.284  67.165  1.00  0.00    -0.110 A  
HETATM   12  C   UNL     1      -9.497   9.035  65.867  1.00  0.00    -0.317 A  
HETATM   13  C   UNL     1      -8.243   9.628  65.986  1.00  0.00    -0.119 A  
ENDBRANCH   7   8
BRANCH   7  14
HETATM   14  C   UNL     1     -10.754   8.793  70.337  1.00  0.00    -0.254 A  
HETATM   15  C   UNL     1     -10.245   6.478  70.903  1.00  0.00    -0.220 A  
HETATM   16  C   UNL     1     -10.262   8.160  72.638  1.00  0.00    -0.388 A  
HETATM   17  C   UNL     1     -10.570   7.452  69.955  1.00  0.00    -0.241 A  
HETATM   18 BR   UNL     1      -9.645   5.522  73.520  1.00  0.00    -0.146 Br 
HETATM   19  C   UNL     1     -10.592   9.133  71.692  1.00  0.00    -0.427 A  
HETATM   20  C   UNL     1     -10.092   6.838  72.239  1.00  0.00    -0.173 A  
ENDBRANCH   7  14
ENDBRANCH   6   7
ENDBRANCH   5   6
ENDBRANCH   4   5
ENDBRANCH   2   4
TORSDOF 6
ENDMDL
MODEL      110
REMARK 921   NORMALIZED FREE ENERGY PREDICTED BY IDOCK:   -3.75 KCAL/MOL
REMARK 922        TOTAL FREE ENERGY PREDICTED BY IDOCK:   -5.98 KCAL/MOL
REMARK 923 INTER-LIGAND FREE ENERGY PREDICTED BY IDOCK:   -5.37 KCAL/MOL
REMARK 924 INTRA-LIGAND FREE ENERGY PREDICTED BY IDOCK:   -0.61 KCAL/MOL
REMARK 927      BINDING AFFINITY PREDICTED BY RF-SCORE:    0.00 PKD
ROOT
HETATM    1  C   UNL     1      -8.982  11.314  67.345  1.00  0.00    -0.144 C  
HETATM    2  N   UNL     1     -10.335  11.016  66.870  1.00  0.00    -0.225 NA 
HETATM    3  C   UNL     1     -10.281  10.610  65.463  1.00  0.00    -0.262 C  
ENDROOT
BRANCH   2   4
HETATM    4  C   UNL     1     -10.960   9.984  67.724  1.00  0.00    -0.249 C  
BRANCH   4   5
HETATM    5  C   UNL     1     -10.005   9.406  68.781  1.00  0.00    -0.179 C  
BRANCH   5   6
HETATM    6  O   UNL     1     -10.328   8.039  69.064  1.00  0.00    -0.214 OA 
BRANCH   6   7
HETATM    7  C   UNL     1     -10.459   7.803  70.481  1.00  0.00    -0.217 C  
BRANCH   7   8
HETATM    8  C   UNL     1     -11.834   8.225  70.991  1.00  0.00    -0.276 A  
HETATM    9  C   UNL     1     -12.059   9.550  71.400  1.00  0.00    -0.459 A  
HETATM   10  C   UNL     1     -12.903   7.317  71.038  1.00  0.00    -0.259 A  
HETATM   11  C   UNL     1     -13.317   9.947  71.857  1.00  0.00    -0.524 A  
HETATM   12  C   UNL     1     -14.157   7.716  71.502  1.00  0.00    -0.535 A  
HETATM   13  C   UNL     1     -14.364   9.030  71.913  1.00  0.00    -0.300 A  
ENDBRANCH   7   8
BRANCH   7  14
HETATM   14  C   UNL     1     -10.165   6.342  70.800  1.00  0.00    -0.238 A  
HETATM   15  C   UNL     1      -9.736   4.074  70.019  1.00  0.00    -0.264 A  
HETATM   16  C   UNL     1      -9.624   4.569  72.382  1.00  0.00    -0.193 A  
HETATM   17  C   UNL     1     -10.051   5.409  69.754  1.00  0.00    -0.319 A  
HETATM   18 BR   UNL     1      -9.090   1.857  71.690  1.00  0.00    -0.157 Br 
HETATM   19  C   UNL     1      -9.944   5.903  72.117  1.00  0.00    -0.196 A  
HETATM   20  C   UNL     1      -9.524   3.662  71.332  1.00  0.00    -0.157 A  
ENDBRANCH   7  14
ENDBRANCH   6   7
ENDBRANCH   5   6
ENDBRANCH   4   5
ENDBRANCH   2   4
TORSDOF 6
ENDMDL
MODEL      111
REMARK 921   NORMALIZED FREE ENERGY PREDICTED BY IDOCK:   -3.74 KCAL/MOL
REMARK 922        TOTAL FREE ENERGY PREDICTED BY IDOCK:   -5.96 KCAL/MOL
REMARK 923 INTER-LIGAND FREE ENERGY PREDICTED BY IDOCK:   -5.08 KCAL/MOL
REMARK 924 INTRA-LIGAND FREE ENERGY PREDICTED BY IDOCK:   -0.89 KCAL/MOL
REMARK 927      BINDING AFFINITY PREDICTED BY RF-SCORE:    0.00 PKD
ROOT
HETATM    1  C   UNL     1      -6.990  12.698  67.415  1.00  0.00    -0.142 C  
HETATM    2  N   UNL     1      -6.011  12.749  68.504  1.00  0.00    -0.059 NA 
HETATM    3  C   UNL     1      -6.045  14.073  69.131  1.00  0.00    -0.098 C  
ENDROOT
BRANCH   2   4
HETATM    4  C   UNL     1      -6.271  11.665  69.476  1.00  0.00    -0.113 C  
BRANCH   4   5
HETATM    5  C   UNL     1      -7.123  10.522  68.902  1.00  0.00    -0.074 C  
BRANCH   5   6
HETATM    6  O   UNL     1      -8.327  10.356  69.660  1.00  0.00    -0.152 OA 
BRANCH   6   7
HETATM    7  C   UNL     1      -9.336   9.644  68.913  1.00  0.00    -0.151 C  
BRANCH   7   8
HETATM    8  C   UNL     1     -10.234   8.823  69.833  1.00  0.00    -0.206 A  
HETATM    9  C   UNL     1     -10.779   7.608  69.386  1.00  0.00    -0.188 A  
HETATM   10  C   UNL     1     -10.515   9.245  71.142  1.00  0.00    -0.401 A  
HETATM   11  C   UNL     1     -11.594   6.845  70.225  1.00  0.00    -0.362 A  
HETATM   12  C   UNL     1     -11.334   8.483  71.975  1.00  0.00    -0.425 A  
HETATM   13  C   UNL     1     -11.875   7.284  71.518  1.00  0.00    -0.335 A  
ENDBRANCH   7   8
BRANCH   7  14
HETATM   14  C   UNL     1     -10.142  10.617  68.059  1.00  0.00    -0.181 A  
HETATM   15  C   UNL     1     -11.569  12.586  67.912  1.00  0.00    -0.403 A  
HETATM   16  C   UNL     1     -10.847  11.475  65.890  1.00  0.00    -0.316 A  
HETATM   17  C   UNL     1     -10.860  11.656  68.676  1.00  0.00    -0.253 A  
HETATM   18 BR   UNL     1     -12.509  13.755  65.488  1.00  0.00    -0.556 Br 
HETATM   19  C   UNL     1     -10.143  10.542  66.655  1.00  0.00    -0.275 A  
HETATM   20  C   UNL     1     -11.557  12.491  66.523  1.00  0.00    -0.388 A  
ENDBRANCH   7  14
ENDBRANCH   6   7
ENDBRANCH   5   6
ENDBRANCH   4   5
ENDBRANCH   2   4
TORSDOF 6
ENDMDL
MODEL      112
REMARK 921   NORMALIZED FREE ENERGY PREDICTED BY IDOCK:   -3.72 KCAL/MOL
REMARK 922        TOTAL FREE ENERGY PREDICTED BY IDOCK:   -5.94 KCAL/MOL
REMARK 923 INTER-LIGAND FREE ENERGY PREDICTED BY IDOCK:   -5.25 KCAL/MOL
REMARK 924 INTRA-LIGAND FREE ENERGY PREDICTED BY IDOCK:   -0.69 KCAL/MOL
REMARK 927      BINDING AFFINITY PREDICTED BY RF-SCORE:    0.00 PKD
ROOT
HETATM    1  C   UNL     1     -10.121   4.631  71.492  1.00  0.00    -0.185 C  
HETATM    2  N   UNL     1     -10.195   5.988  72.037  1.00  0.00    -0.191 NA 
HETATM    3  C   UNL     1      -9.050   6.223  72.922  1.00  0.00    -0.130 C  
ENDROOT
BRANCH   2   4
HETATM    4  C   UNL     1     -10.262   6.976  70.939  1.00  0.00    -0.197 C  
BRANCH   4   5
HETATM    5  C   UNL     1     -11.235   8.133  71.218  1.00  0.00    -0.260 C  
BRANCH   5   6
HETATM    6  O   UNL     1     -10.639   9.391  70.880  1.00  0.00    -0.270 OA 
BRANCH   6   7
HETATM    7  C   UNL     1     -11.300  10.010  69.757  1.00  0.00    -0.228 C  
BRANCH   7   8
HETATM    8  C   UNL     1     -11.859  11.381  70.125  1.00  0.00    -0.440 A  
HETATM    9  C   UNL     1     -12.614  11.543  71.298  1.00  0.00    -0.452 A  
HETATM   10  C   UNL     1     -11.612  12.507  69.324  1.00  0.00    -0.378 A  
HETATM   11  C   UNL     1     -13.120  12.796  71.649  1.00  0.00    -0.428 A  
HETATM   12  C   UNL     1     -12.124  13.757  69.674  1.00  0.00    -0.392 A  
HETATM   13  C   UNL     1     -12.880  13.902  70.835  1.00  0.00    -0.370 A  
ENDBRANCH   7   8
BRANCH   7  14
HETATM   14  C   UNL     1     -10.349  10.091  68.567  1.00  0.00    -0.217 A  
HETATM   15  C   UNL     1      -8.073  10.265  67.715  1.00  0.00    -0.103 A  
HETATM   16  C   UNL     1      -9.914   9.992  66.172  1.00  0.00    -0.322 A  
HETATM   17  C   UNL     1      -8.968  10.235  68.787  1.00  0.00    -0.155 A  
HETATM   18 BR   UNL     1      -7.340  10.175  64.961  1.00  0.00    -0.123 Br 
HETATM   19  C   UNL     1     -10.808   9.967  67.244  1.00  0.00    -0.284 A  
HETATM   20  C   UNL     1      -8.552  10.143  66.413  1.00  0.00    -0.130 A  
ENDBRANCH   7  14
ENDBRANCH   6   7
ENDBRANCH   5   6
ENDBRANCH   4   5
ENDBRANCH   2   4
TORSDOF 6
ENDMDL
MODEL      113
REMARK 921   NORMALIZED FREE ENERGY PREDICTED BY IDOCK:   -3.72 KCAL/MOL
REMARK 922        TOTAL FREE ENERGY PREDICTED BY IDOCK:   -5.93 KCAL/MOL
REMARK 923 INTER-LIGAND FREE ENERGY PREDICTED BY IDOCK:   -5.03 KCAL/MOL
REMARK 924 INTRA-LIGAND FREE ENERGY PREDICTED BY IDOCK:   -0.91 KCAL/MOL
REMARK 927      BINDING AFFINITY PREDICTED BY RF-SCORE:    0.00 PKD
ROOT
HETATM    1  C   UNL     1     -10.414  19.800  66.179  1.00  0.00    -0.509 C  
HETATM    2  N   UNL     1      -9.768  18.740  66.956  1.00  0.00    -0.300 NA 
HETATM    3  C   UNL     1      -9.108  19.325  68.127  1.00  0.00    -0.331 C  
ENDROOT
BRANCH   2   4
HETATM    4  C   UNL     1     -10.758  17.708  67.334  1.00  0.00    -0.258 C  
BRANCH   4   5
HETATM    5  C   UNL     1     -10.529  17.129  68.739  1.00  0.00    -0.351 C  
BRANCH   5   6
HETATM    6  O   UNL     1     -10.627  15.700  68.722  1.00  0.00    -0.223 OA 
BRANCH   6   7
HETATM    7  C   UNL     1      -9.723  15.114  67.763  1.00  0.00    -0.211 C  
BRANCH   7   8
HETATM    8  C   UNL     1      -8.269  15.434  68.099  1.00  0.00    -0.144 A  
HETATM    9  C   UNL     1      -7.760  15.143  69.375  1.00  0.00    -0.213 A  
HETATM   10  C   UNL     1      -7.408  15.996  67.144  1.00  0.00    -0.257 A  
HETATM   11  C   UNL     1      -6.428  15.422  69.688  1.00  0.00    -0.171 A  
HETATM   12  C   UNL     1      -6.080  16.280  67.462  1.00  0.00    -0.189 A  
HETATM   13  C   UNL     1      -5.589  15.995  68.734  1.00  0.00    -0.108 A  
ENDBRANCH   7   8
BRANCH   7  14
HETATM   14  C   UNL     1      -9.960  13.611  67.667  1.00  0.00    -0.239 A  
HETATM   15  C   UNL     1      -9.491  11.483  66.576  1.00  0.00    -0.220 A  
HETATM   16  C   UNL     1     -10.919  11.542  68.526  1.00  0.00    -0.268 A  
HETATM   17  C   UNL     1      -9.325  12.868  66.656  1.00  0.00    -0.240 A  
HETATM   18 BR   UNL     1     -10.505   8.952  67.410  1.00  0.00    -0.314 Br 
HETATM   19  C   UNL     1     -10.757  12.927  68.602  1.00  0.00    -0.273 A  
HETATM   20  C   UNL     1     -10.286  10.828  67.513  1.00  0.00    -0.206 A  
ENDBRANCH   7  14
ENDBRANCH   6   7
ENDBRANCH   5   6
ENDBRANCH   4   5
ENDBRANCH   2   4
TORSDOF 6
ENDMDL
MODEL      114
REMARK 921   NORMALIZED FREE ENERGY PREDICTED BY IDOCK:   -3.71 KCAL/MOL
REMARK 922        TOTAL FREE ENERGY PREDICTED BY IDOCK:   -5.93 KCAL/MOL
REMARK 923 INTER-LIGAND FREE ENERGY PREDICTED BY IDOCK:   -5.05 KCAL/MOL
REMARK 924 INTRA-LIGAND FREE ENERGY PREDICTED BY IDOCK:   -0.88 KCAL/MOL
REMARK 927      BINDING AFFINITY PREDICTED BY RF-SCORE:    0.00 PKD
ROOT
HETATM    1  C   UNL     1      -6.743  11.681  67.109  1.00  0.00    -0.142 C  
HETATM    2  N   UNL     1      -7.205  12.360  68.322  1.00  0.00    -0.094 NA 
HETATM    3  C   UNL     1      -6.212  13.357  68.733  1.00  0.00    -0.090 C  
ENDROOT
BRANCH   2   4
HETATM    4  C   UNL     1      -8.536  12.962  68.095  1.00  0.00    -0.188 C  
BRANCH   4   5
HETATM    5  C   UNL     1      -9.516  12.022  67.374  1.00  0.00    -0.177 C  
BRANCH   5   6
HETATM    6  O   UNL     1     -10.547  11.582  68.265  1.00  0.00    -0.184 OA 
BRANCH   6   7
HETATM    7  C   UNL     1     -10.079  10.549  69.157  1.00  0.00    -0.224 C  
BRANCH   7   8
HETATM    8  C   UNL     1     -11.123  10.212  70.217  1.00  0.00    -0.384 A  
HETATM    9  C   UNL     1     -10.999   9.041  70.982  1.00  0.00    -0.352 A  
HETATM   10  C   UNL     1     -12.206  11.069  70.470  1.00  0.00    -0.472 A  
HETATM   11  C   UNL     1     -11.944   8.731  71.962  1.00  0.00    -0.446 A  
HETATM   12  C   UNL     1     -13.151  10.753  71.446  1.00  0.00    -0.469 A  
HETATM   13  C   UNL     1     -13.022   9.584  72.191  1.00  0.00    -0.497 A  
ENDBRANCH   7   8
BRANCH   7  14
HETATM   14  C   UNL     1      -9.667   9.315  68.361  1.00  0.00    -0.168 A  
HETATM   15  C   UNL     1      -8.033   7.564  67.910  1.00  0.00    -0.119 A  
HETATM   16  C   UNL     1     -10.155   7.551  66.753  1.00  0.00    -0.313 A  
HETATM   17  C   UNL     1      -8.414   8.722  68.594  1.00  0.00    -0.129 A  
HETATM   18 BR   UNL     1      -8.396   5.414  66.075  1.00  0.00    -0.124 Br 
HETATM   19  C   UNL     1     -10.533   8.711  67.433  1.00  0.00    -0.351 A  
HETATM   20  C   UNL     1      -8.907   6.985  66.994  1.00  0.00    -0.124 A  
ENDBRANCH   7  14
ENDBRANCH   6   7
ENDBRANCH   5   6
ENDBRANCH   4   5
ENDBRANCH   2   4
TORSDOF 6
ENDMDL
MODEL      115
REMARK 921   NORMALIZED FREE ENERGY PREDICTED BY IDOCK:   -3.71 KCAL/MOL
REMARK 922        TOTAL FREE ENERGY PREDICTED BY IDOCK:   -5.92 KCAL/MOL
REMARK 923 INTER-LIGAND FREE ENERGY PREDICTED BY IDOCK:   -5.19 KCAL/MOL
REMARK 924 INTRA-LIGAND FREE ENERGY PREDICTED BY IDOCK:   -0.73 KCAL/MOL
REMARK 927      BINDING AFFINITY PREDICTED BY RF-SCORE:    0.00 PKD
ROOT
HETATM    1  C   UNL     1     -11.769  14.824  67.645  1.00  0.00    -0.341 C  
HETATM    2  N   UNL     1     -10.318  14.871  67.450  1.00  0.00    -0.242 NA 
HETATM    3  C   UNL     1      -9.839  16.240  67.668  1.00  0.00    -0.238 C  
ENDROOT
BRANCH   2   4
HETATM    4  C   UNL     1      -9.651  13.899  68.342  1.00  0.00    -0.215 C  
BRANCH   4   5
HETATM    5  C   UNL     1      -8.347  13.331  67.759  1.00  0.00    -0.171 C  
BRANCH   5   6
HETATM    6  O   UNL     1      -8.375  11.899  67.751  1.00  0.00    -0.134 OA 
BRANCH   6   7
HETATM    7  C   UNL     1      -9.664  11.392  67.348  1.00  0.00    -0.181 C  
BRANCH   7   8
HETATM    8  C   UNL     1      -9.735  11.189  65.837  1.00  0.00    -0.268 A  
HETATM    9  C   UNL     1      -8.693  10.529  65.165  1.00  0.00    -0.197 A  
HETATM   10  C   UNL     1     -10.842  11.628  65.095  1.00  0.00    -0.346 A  
HETATM   11  C   UNL     1      -8.754  10.329  63.784  1.00  0.00    -0.211 A  
HETATM   12  C   UNL     1     -10.898  11.431  63.715  1.00  0.00    -0.468 A  
HETATM   13  C   UNL     1      -9.854  10.784  63.058  1.00  0.00    -0.344 A  
ENDBRANCH   7   8
BRANCH   7  14
HETATM   14  C   UNL     1      -9.984  10.107  68.104  1.00  0.00    -0.170 A  
HETATM   15  C   UNL     1     -10.504   8.990  70.206  1.00  0.00    -0.248 A  
HETATM   16  C   UNL     1     -10.507   7.728  68.145  1.00  0.00    -0.230 A  
HETATM   17  C   UNL     1     -10.165  10.146  69.498  1.00  0.00    -0.258 A  
HETATM   18 BR   UNL     1     -11.141   6.225  70.482  1.00  0.00    -0.415 Br 
HETATM   19  C   UNL     1     -10.163   8.882  67.438  1.00  0.00    -0.313 A  
HETATM   20  C   UNL     1     -10.674   7.788  69.525  1.00  0.00    -0.198 A  
ENDBRANCH   7  14
ENDBRANCH   6   7
ENDBRANCH   5   6
ENDBRANCH   4   5
ENDBRANCH   2   4
TORSDOF 6
ENDMDL
MODEL      116
REMARK 921   NORMALIZED FREE ENERGY PREDICTED BY IDOCK:   -3.70 KCAL/MOL
REMARK 922        TOTAL FREE ENERGY PREDICTED BY IDOCK:   -5.92 KCAL/MOL
REMARK 923 INTER-LIGAND FREE ENERGY PREDICTED BY IDOCK:   -5.14 KCAL/MOL
REMARK 924 INTRA-LIGAND FREE ENERGY PREDICTED BY IDOCK:   -0.78 KCAL/MOL
REMARK 927      BINDING AFFINITY PREDICTED BY RF-SCORE:    0.00 PKD
ROOT
HETATM    1  C   UNL     1     -12.030  12.676  66.712  1.00  0.00    -0.292 C  
HETATM    2  N   UNL     1     -11.989  14.115  66.982  1.00  0.00    -0.428 NA 
HETATM    3  C   UNL     1     -11.852  14.338  68.425  1.00  0.00    -0.338 C  
ENDROOT
BRANCH   2   4
HETATM    4  C   UNL     1     -10.895  14.748  66.215  1.00  0.00    -0.322 C  
BRANCH   4   5
HETATM    5  C   UNL     1     -10.294  15.979  66.913  1.00  0.00    -0.289 C  
BRANCH   5   6
HETATM    6  O   UNL     1      -8.906  15.774  67.199  1.00  0.00    -0.185 OA 
BRANCH   6   7
HETATM    7  C   UNL     1      -8.344  16.876  67.941  1.00  0.00    -0.198 C  
BRANCH   7   8
HETATM    8  C   UNL     1      -7.295  16.398  68.941  1.00  0.00    -0.214 A  
HETATM    9  C   UNL     1      -6.362  17.303  69.471  1.00  0.00    -0.235 A  
HETATM   10  C   UNL     1      -7.256  15.062  69.371  1.00  0.00    -0.194 A  
HETATM   11  C   UNL     1      -5.405  16.876  70.395  1.00  0.00    -0.223 A  
HETATM   12  C   UNL     1      -6.295  14.638  70.289  1.00  0.00    -0.171 A  
HETATM   13  C   UNL     1      -5.369  15.543  70.800  1.00  0.00    -0.130 A  
ENDBRANCH   7   8
BRANCH   7  14
HETATM   14  C   UNL     1      -7.776  17.919  66.985  1.00  0.00    -0.232 A  
HETATM   15  C   UNL     1      -6.233  18.489  65.186  1.00  0.00    -0.247 A  
HETATM   16  C   UNL     1      -7.799  20.144  65.994  1.00  0.00    -0.251 A  
HETATM   17  C   UNL     1      -6.739  17.564  66.104  1.00  0.00    -0.298 A  
HETATM   18 BR   UNL     1      -6.089  21.023  63.889  1.00  0.00    -0.335 Br 
HETATM   19  C   UNL     1      -8.300  19.221  66.914  1.00  0.00    -0.302 A  
HETATM   20  C   UNL     1      -6.767  19.774  65.136  1.00  0.00    -0.250 A  
ENDBRANCH   7  14
ENDBRANCH   6   7
ENDBRANCH   5   6
ENDBRANCH   4   5
ENDBRANCH   2   4
TORSDOF 6
ENDMDL
MODEL      117
REMARK 921   NORMALIZED FREE ENERGY PREDICTED BY IDOCK:   -3.70 KCAL/MOL
REMARK 922        TOTAL FREE ENERGY PREDICTED BY IDOCK:   -5.91 KCAL/MOL
REMARK 923 INTER-LIGAND FREE ENERGY PREDICTED BY IDOCK:   -5.08 KCAL/MOL
REMARK 924 INTRA-LIGAND FREE ENERGY PREDICTED BY IDOCK:   -0.83 KCAL/MOL
REMARK 927      BINDING AFFINITY PREDICTED BY RF-SCORE:    0.00 PKD
ROOT
HETATM    1  C   UNL     1     -10.527   7.198  69.722  1.00  0.00    -0.225 C  
HETATM    2  N   UNL     1      -9.337   8.045  69.613  1.00  0.00    -0.156 NA 
HETATM    3  C   UNL     1      -8.296   7.333  68.867  1.00  0.00    -0.126 C  
ENDROOT
BRANCH   2   4
HETATM    4  C   UNL     1      -9.686   9.338  68.986  1.00  0.00    -0.162 C  
BRANCH   4   5
HETATM    5  C   UNL     1     -11.198   9.536  68.796  1.00  0.00     0.098 C  
BRANCH   5   6
HETATM    6  O   UNL     1     -11.466  10.314  67.624  1.00  0.00    -0.345 OA 
BRANCH   6   7
HETATM    7  C   UNL     1     -10.294  11.028  67.177  1.00  0.00    -0.220 C  
BRANCH   7   8
HETATM    8  C   UNL     1     -10.106  10.902  65.669  1.00  0.00    -0.318 A  
HETATM    9  C   UNL     1      -9.268   9.905  65.144  1.00  0.00    -0.288 A  
HETATM   10  C   UNL     1     -10.780  11.752  64.778  1.00  0.00    -0.355 A  
HETATM   11  C   UNL     1      -9.099   9.775  63.763  1.00  0.00    -0.270 A  
HETATM   12  C   UNL     1     -10.604  11.623  63.399  1.00  0.00    -0.472 A  
HETATM   13  C   UNL     1      -9.763  10.637  62.892  1.00  0.00    -0.329 A  
ENDBRANCH   7   8
BRANCH   7  14
HETATM   14  C   UNL     1     -10.369  12.487  67.615  1.00  0.00    -0.222 A  
HETATM   15  C   UNL     1     -11.685  14.351  68.472  1.00  0.00    -0.370 A  
HETATM   16  C   UNL     1      -9.307  14.618  68.133  1.00  0.00    -0.197 A  
HETATM   17  C   UNL     1     -11.600  13.030  68.024  1.00  0.00    -0.383 A  
HETATM   18 BR   UNL     1     -10.649  16.921  69.140  1.00  0.00    -0.292 Br 
HETATM   19  C   UNL     1      -9.223  13.299  67.679  1.00  0.00    -0.209 A  
HETATM   20  C   UNL     1     -10.536  15.136  68.525  1.00  0.00    -0.237 A  
ENDBRANCH   7  14
ENDBRANCH   6   7
ENDBRANCH   5   6
ENDBRANCH   4   5
ENDBRANCH   2   4
TORSDOF 6
ENDMDL
MODEL      118
REMARK 921   NORMALIZED FREE ENERGY PREDICTED BY IDOCK:   -3.68 KCAL/MOL
REMARK 922        TOTAL FREE ENERGY PREDICTED BY IDOCK:   -5.88 KCAL/MOL
REMARK 923 INTER-LIGAND FREE ENERGY PREDICTED BY IDOCK:   -4.90 KCAL/MOL
REMARK 924 INTRA-LIGAND FREE ENERGY PREDICTED BY IDOCK:   -0.98 KCAL/MOL
REMARK 927      BINDING AFFINITY PREDICTED BY RF-SCORE:    0.00 PKD
ROOT
HETATM    1  C   UNL     1     -11.627  15.685  64.484  1.00  0.00    -0.262 C  
HETATM    2  N   UNL     1     -11.539  14.473  65.303  1.00  0.00    -0.349 NA 
HETATM    3  C   UNL     1     -12.889  13.994  65.614  1.00  0.00    -0.406 C  
ENDROOT
BRANCH   2   4
HETATM    4  C   UNL     1     -10.729  13.447  64.612  1.00  0.00    -0.411 C  
BRANCH   4   5
HETATM    5  C   UNL     1      -9.615  12.856  65.490  1.00  0.00     0.029 C  
BRANCH   5   6
HETATM    6  O   UNL     1      -9.650  13.423  66.805  1.00  0.00    -0.247 OA 
BRANCH   6   7
HETATM    7  C   UNL     1     -10.121  12.473  67.784  1.00  0.00    -0.218 C  
BRANCH   7   8
HETATM    8  C   UNL     1      -8.966  11.697  68.408  1.00  0.00    -0.176 A  
HETATM    9  C   UNL     1      -9.158  10.375  68.843  1.00  0.00    -0.175 A  
HETATM   10  C   UNL     1      -7.691  12.269  68.538  1.00  0.00    -0.118 A  
HETATM   11  C   UNL     1      -8.103   9.653  69.405  1.00  0.00    -0.118 A  
HETATM   12  C   UNL     1      -6.641  11.547  69.107  1.00  0.00    -0.102 A  
HETATM   13  C   UNL     1      -6.846  10.240  69.542  1.00  0.00    -0.084 A  
ENDBRANCH   7   8
BRANCH   7  14
HETATM   14  C   UNL     1     -10.960  13.182  68.842  1.00  0.00    -0.270 A  
HETATM   15  C   UNL     1     -12.771  13.110  70.472  1.00  0.00    -0.140 A  
HETATM   16  C   UNL     1     -11.420  15.104  70.268  1.00  0.00    -0.315 A  
HETATM   17  C   UNL     1     -12.017  12.497  69.467  1.00  0.00    -0.329 A  
HETATM   18 BR   UNL     1     -13.480  15.237  72.232  1.00  0.00    -0.617 Br 
HETATM   19  C   UNL     1     -10.670  14.492  69.260  1.00  0.00    -0.241 A  
HETATM   20  C   UNL     1     -12.466  14.410  70.867  1.00  0.00    -0.354 A  
ENDBRANCH   7  14
ENDBRANCH   6   7
ENDBRANCH   5   6
ENDBRANCH   4   5
ENDBRANCH   2   4
TORSDOF 6
ENDMDL
MODEL      119
REMARK 921   NORMALIZED FREE ENERGY PREDICTED BY IDOCK:   -3.66 KCAL/MOL
REMARK 922        TOTAL FREE ENERGY PREDICTED BY IDOCK:   -5.86 KCAL/MOL
REMARK 923 INTER-LIGAND FREE ENERGY PREDICTED BY IDOCK:   -5.15 KCAL/MOL
REMARK 924 INTRA-LIGAND FREE ENERGY PREDICTED BY IDOCK:   -0.71 KCAL/MOL
REMARK 927      BINDING AFFINITY PREDICTED BY RF-SCORE:    0.00 PKD
ROOT
HETATM    1  C   UNL     1     -10.440  19.840  67.682  1.00  0.00    -0.424 C  
HETATM    2  N   UNL     1      -9.585  18.685  67.399  1.00  0.00    -0.292 NA 
HETATM    3  C   UNL     1      -8.458  18.669  68.336  1.00  0.00    -0.338 C  
ENDROOT
BRANCH   2   4
HETATM    4  C   UNL     1     -10.376  17.437  67.459  1.00  0.00    -0.351 C  
BRANCH   4   5
HETATM    5  C   UNL     1     -10.465  16.839  68.872  1.00  0.00    -0.332 C  
BRANCH   5   6
HETATM    6  O   UNL     1     -10.338  15.412  68.828  1.00  0.00    -0.217 OA 
BRANCH   6   7
HETATM    7  C   UNL     1      -9.450  14.987  67.774  1.00  0.00    -0.195 C  
BRANCH   7   8
HETATM    8  C   UNL     1      -8.271  14.190  68.326  1.00  0.00    -0.148 A  
HETATM    9  C   UNL     1      -8.318  12.786  68.348  1.00  0.00    -0.119 A  
HETATM   10  C   UNL     1      -7.115  14.832  68.797  1.00  0.00    -0.114 A  
HETATM   11  C   UNL     1      -7.239  12.049  68.842  1.00  0.00    -0.089 A  
HETATM   12  C   UNL     1      -6.042  14.092  69.295  1.00  0.00    -0.101 A  
HETATM   13  C   UNL     1      -6.104  12.702  69.319  1.00  0.00    -0.100 A  
ENDBRANCH   7   8
BRANCH   7  14
HETATM   14  C   UNL     1     -10.221  14.195  66.724  1.00  0.00    -0.262 A  
HETATM   15  C   UNL     1     -12.115  12.773  66.147  1.00  0.00    -0.429 A  
HETATM   16  C   UNL     1     -10.608  13.526  64.413  1.00  0.00    -0.394 A  
HETATM   17  C   UNL     1     -11.365  13.468  67.100  1.00  0.00    -0.346 A  
HETATM   18 BR   UNL     1     -12.751  11.873  63.519  1.00  0.00    -0.310 Br 
HETATM   19  C   UNL     1      -9.856  14.216  65.367  1.00  0.00    -0.233 A  
HETATM   20  C   UNL     1     -11.732  12.807  64.809  1.00  0.00    -0.352 A  
ENDBRANCH   7  14
ENDBRANCH   6   7
ENDBRANCH   5   6
ENDBRANCH   4   5
ENDBRANCH   2   4
TORSDOF 6
ENDMDL
MODEL      120
REMARK 921   NORMALIZED FREE ENERGY PREDICTED BY IDOCK:   -3.65 KCAL/MOL
REMARK 922        TOTAL FREE ENERGY PREDICTED BY IDOCK:   -5.85 KCAL/MOL
REMARK 923 INTER-LIGAND FREE ENERGY PREDICTED BY IDOCK:   -4.97 KCAL/MOL
REMARK 924 INTRA-LIGAND FREE ENERGY PREDICTED BY IDOCK:   -0.87 KCAL/MOL
REMARK 927      BINDING AFFINITY PREDICTED BY RF-SCORE:    0.00 PKD
ROOT
HETATM    1  C   UNL     1     -12.172  12.849  65.378  1.00  0.00    -0.478 C  
HETATM    2  N   UNL     1     -11.192  13.547  66.213  1.00  0.00    -0.294 NA 
HETATM    3  C   UNL     1     -11.876  14.547  67.039  1.00  0.00    -0.385 C  
ENDROOT
BRANCH   2   4
HETATM    4  C   UNL     1     -10.433  12.576  67.029  1.00  0.00    -0.231 C  
BRANCH   4   5
HETATM    5  C   UNL     1     -11.330  11.611  67.820  1.00  0.00    -0.288 C  
BRANCH   5   6
HETATM    6  O   UNL     1     -10.570  10.905  68.809  1.00  0.00    -0.179 OA 
BRANCH   6   7
HETATM    7  C   UNL     1     -10.492   9.495  68.517  1.00  0.00    -0.217 C  
BRANCH   7   8
HETATM    8  C   UNL     1      -9.359   9.189  67.542  1.00  0.00    -0.157 A  
HETATM    9  C   UNL     1      -9.606   8.422  66.392  1.00  0.00    -0.307 A  
HETATM   10  C   UNL     1      -8.063   9.685  67.755  1.00  0.00    -0.113 A  
HETATM   11  C   UNL     1      -8.577   8.147  65.489  1.00  0.00    -0.173 A  
HETATM   12  C   UNL     1      -7.036   9.403  66.853  1.00  0.00    -0.081 A  
HETATM   13  C   UNL     1      -7.291   8.633  65.721  1.00  0.00    -0.081 A  
ENDBRANCH   7   8
BRANCH   7  14
HETATM   14  C   UNL     1     -10.352   8.697  69.809  1.00  0.00    -0.212 A  
HETATM   15  C   UNL     1      -9.845   8.645  72.192  1.00  0.00    -0.387 A  
HETATM   16  C   UNL     1     -10.601   6.635  71.083  1.00  0.00    -0.263 A  
HETATM   17  C   UNL     1      -9.936   9.345  70.986  1.00  0.00    -0.334 A  
HETATM   18 BR   UNL     1     -10.064   6.349  73.867  1.00  0.00    -0.341 Br 
HETATM   19  C   UNL     1     -10.687   7.334  69.876  1.00  0.00    -0.257 A  
HETATM   20  C   UNL     1     -10.179   7.294  72.234  1.00  0.00    -0.196 A  
ENDBRANCH   7  14
ENDBRANCH   6   7
ENDBRANCH   5   6
ENDBRANCH   4   5
ENDBRANCH   2   4
TORSDOF 6
ENDMDL
MODEL      121
REMARK 921   NORMALIZED FREE ENERGY PREDICTED BY IDOCK:   -3.65 KCAL/MOL
REMARK 922        TOTAL FREE ENERGY PREDICTED BY IDOCK:   -5.84 KCAL/MOL
REMARK 923 INTER-LIGAND FREE ENERGY PREDICTED BY IDOCK:   -4.83 KCAL/MOL
REMARK 924 INTRA-LIGAND FREE ENERGY PREDICTED BY IDOCK:   -1.02 KCAL/MOL
REMARK 927      BINDING AFFINITY PREDICTED BY RF-SCORE:    0.00 PKD
ROOT
HETATM    1  C   UNL     1      -9.978   4.867  72.369  1.00  0.00    -0.177 C  
HETATM    2  N   UNL     1     -10.834   5.630  73.281  1.00  0.00    -0.269 NA 
HETATM    3  C   UNL     1     -10.036   6.659  73.954  1.00  0.00    -0.324 C  
ENDROOT
BRANCH   2   4
HETATM    4  C   UNL     1     -11.979   6.206  72.545  1.00  0.00    -0.124 C  
BRANCH   4   5
HETATM    5  C   UNL     1     -11.914   7.737  72.417  1.00  0.00    -0.289 C  
BRANCH   5   6
HETATM    6  O   UNL     1     -11.967   8.135  71.042  1.00  0.00    -0.295 OA 
BRANCH   6   7
HETATM    7  C   UNL     1     -10.659   8.463  70.530  1.00  0.00    -0.216 C  
BRANCH   7   8
HETATM    8  C   UNL     1     -10.144   7.384  69.582  1.00  0.00    -0.186 A  
HETATM    9  C   UNL     1      -8.787   7.023  69.595  1.00  0.00    -0.141 A  
HETATM   10  C   UNL     1     -11.010   6.715  68.703  1.00  0.00    -0.317 A  
HETATM   11  C   UNL     1      -8.310   6.028  68.739  1.00  0.00    -0.106 A  
HETATM   12  C   UNL     1     -10.529   5.726  67.845  1.00  0.00    -0.290 A  
HETATM   13  C   UNL     1      -9.179   5.383  67.860  1.00  0.00    -0.117 A  
ENDBRANCH   7   8
BRANCH   7  14
HETATM   14  C   UNL     1     -10.685   9.833  69.861  1.00  0.00    -0.303 A  
HETATM   15  C   UNL     1     -11.835  11.943  69.456  1.00  0.00    -0.395 A  
HETATM   16  C   UNL     1      -9.612  11.600  68.571  1.00  0.00    -0.181 A  
HETATM   17  C   UNL     1     -11.807  10.665  70.021  1.00  0.00    -0.403 A  
HETATM   18 BR   UNL     1     -10.770  14.135  67.978  1.00  0.00    -0.255 Br 
HETATM   19  C   UNL     1      -9.587  10.320  69.131  1.00  0.00    -0.229 A  
HETATM   20  C   UNL     1     -10.736  12.403  68.735  1.00  0.00    -0.209 A  
ENDBRANCH   7  14
ENDBRANCH   6   7
ENDBRANCH   5   6
ENDBRANCH   4   5
ENDBRANCH   2   4
TORSDOF 6
ENDMDL
MODEL      122
REMARK 921   NORMALIZED FREE ENERGY PREDICTED BY IDOCK:   -3.62 KCAL/MOL
REMARK 922        TOTAL FREE ENERGY PREDICTED BY IDOCK:   -5.81 KCAL/MOL
REMARK 923 INTER-LIGAND FREE ENERGY PREDICTED BY IDOCK:   -5.15 KCAL/MOL
REMARK 924 INTRA-LIGAND FREE ENERGY PREDICTED BY IDOCK:   -0.66 KCAL/MOL
REMARK 927      BINDING AFFINITY PREDICTED BY RF-SCORE:    0.00 PKD
ROOT
HETATM    1  C   UNL     1      -9.164   3.131  66.674  1.00  0.00    -0.146 C  
HETATM    2  N   UNL     1      -8.736   4.026  65.597  1.00  0.00    -0.117 NA 
HETATM    3  C   UNL     1      -9.674   3.926  64.475  1.00  0.00    -0.183 C  
ENDROOT
BRANCH   2   4
HETATM    4  C   UNL     1      -8.617   5.411  66.101  1.00  0.00    -0.126 C  
BRANCH   4   5
HETATM    5  C   UNL     1      -9.453   5.674  67.364  1.00  0.00    -0.114 C  
BRANCH   5   6
HETATM    6  O   UNL     1      -9.165   6.970  67.903  1.00  0.00    -0.127 OA 
BRANCH   6   7
HETATM    7  C   UNL     1     -10.368   7.669  68.286  1.00  0.00    -0.198 C  
BRANCH   7   8
HETATM    8  C   UNL     1     -10.448   7.854  69.798  1.00  0.00    -0.233 A  
HETATM    9  C   UNL     1      -9.481   8.622  70.467  1.00  0.00    -0.206 A  
HETATM   10  C   UNL     1     -11.493   7.289  70.546  1.00  0.00    -0.310 A  
HETATM   11  C   UNL     1      -9.553   8.805  71.850  1.00  0.00    -0.372 A  
HETATM   12  C   UNL     1     -11.558   7.469  71.928  1.00  0.00    -0.312 A  
HETATM   13  C   UNL     1     -10.588   8.225  72.581  1.00  0.00    -0.378 A  
ENDBRANCH   7   8
BRANCH   7  14
HETATM   14  C   UNL     1     -10.457   9.002  67.550  1.00  0.00    -0.338 A  
HETATM   15  C   UNL     1     -10.003  10.327  65.556  1.00  0.00    -0.364 A  
HETATM   16  C   UNL     1     -11.257  11.297  67.381  1.00  0.00    -0.370 A  
HETATM   17  C   UNL     1      -9.894   9.129  66.268  1.00  0.00    -0.359 A  
HETATM   18 BR   UNL     1     -10.841  13.021  65.150  1.00  0.00    -0.335 Br 
HETATM   19  C   UNL     1     -11.143  10.102  68.094  1.00  0.00    -0.290 A  
HETATM   20  C   UNL     1     -10.686  11.403  66.117  1.00  0.00    -0.267 A  
ENDBRANCH   7  14
ENDBRANCH   6   7
ENDBRANCH   5   6
ENDBRANCH   4   5
ENDBRANCH   2   4
TORSDOF 6
ENDMDL
MODEL      123
REMARK 921   NORMALIZED FREE ENERGY PREDICTED BY IDOCK:   -3.61 KCAL/MOL
REMARK 922        TOTAL FREE ENERGY PREDICTED BY IDOCK:   -5.80 KCAL/MOL
REMARK 923 INTER-LIGAND FREE ENERGY PREDICTED BY IDOCK:   -5.01 KCAL/MOL
REMARK 924 INTRA-LIGAND FREE ENERGY PREDICTED BY IDOCK:   -0.79 KCAL/MOL
REMARK 927      BINDING AFFINITY PREDICTED BY RF-SCORE:    0.00 PKD
ROOT
HETATM    1  C   UNL     1      -6.902  12.029  67.215  1.00  0.00    -0.150 C  
HETATM    2  N   UNL     1      -6.721  10.614  66.885  1.00  0.00    -0.084 NA 
HETATM    3  C   UNL     1      -5.354  10.396  66.404  1.00  0.00    -0.056 C  
ENDROOT
BRANCH   2   4
HETATM    4  C   UNL     1      -7.039   9.771  68.058  1.00  0.00    -0.079 C  
BRANCH   4   5
HETATM    5  C   UNL     1      -7.285  10.580  69.342  1.00  0.00    -0.117 C  
BRANCH   5   6
HETATM    6  O   UNL     1      -8.592  10.316  69.866  1.00  0.00    -0.133 OA 
BRANCH   6   7
HETATM    7  C   UNL     1      -9.437   9.665  68.894  1.00  0.00    -0.157 C  
BRANCH   7   8
HETATM    8  C   UNL     1     -10.360   8.644  69.553  1.00  0.00    -0.214 A  
HETATM    9  C   UNL     1     -11.068   8.983  70.718  1.00  0.00    -0.328 A  
HETATM   10  C   UNL     1     -10.543   7.367  69.002  1.00  0.00    -0.203 A  
HETATM   11  C   UNL     1     -11.924   8.058  71.321  1.00  0.00    -0.321 A  
HETATM   12  C   UNL     1     -11.394   6.444  69.610  1.00  0.00    -0.479 A  
HETATM   13  C   UNL     1     -12.083   6.788  70.770  1.00  0.00    -0.402 A  
ENDBRANCH   7   8
BRANCH   7  14
HETATM   14  C   UNL     1     -10.221  10.704  68.100  1.00  0.00    -0.192 A  
HETATM   15  C   UNL     1     -11.103  11.477  65.964  1.00  0.00    -0.289 A  
HETATM   16  C   UNL     1     -11.631  12.687  67.988  1.00  0.00    -0.394 A  
HETATM   17  C   UNL     1     -10.350  10.563  66.707  1.00  0.00    -0.301 A  
HETATM   18 BR   UNL     1     -12.765  13.765  65.606  1.00  0.00    -0.453 Br 
HETATM   19  C   UNL     1     -10.875  11.777  68.730  1.00  0.00    -0.268 A  
HETATM   20  C   UNL     1     -11.740  12.534  66.610  1.00  0.00    -0.387 A  
ENDBRANCH   7  14
ENDBRANCH   6   7
ENDBRANCH   5   6
ENDBRANCH   4   5
ENDBRANCH   2   4
TORSDOF 6
ENDMDL
MODEL      124
REMARK 921   NORMALIZED FREE ENERGY PREDICTED BY IDOCK:   -3.60 KCAL/MOL
REMARK 922        TOTAL FREE ENERGY PREDICTED BY IDOCK:   -5.78 KCAL/MOL
REMARK 923 INTER-LIGAND FREE ENERGY PREDICTED BY IDOCK:   -4.95 KCAL/MOL
REMARK 924 INTRA-LIGAND FREE ENERGY PREDICTED BY IDOCK:   -0.83 KCAL/MOL
REMARK 927      BINDING AFFINITY PREDICTED BY RF-SCORE:    0.00 PKD
ROOT
HETATM    1  C   UNL     1     -10.102  19.566  67.730  1.00  0.00    -0.415 C  
HETATM    2  N   UNL     1      -8.791  18.915  67.788  1.00  0.00    -0.288 NA 
HETATM    3  C   UNL     1      -8.400  18.726  69.188  1.00  0.00     0.006 C  
ENDROOT
BRANCH   2   4
HETATM    4  C   UNL     1      -8.822  17.638  67.042  1.00  0.00    -0.246 C  
BRANCH   4   5
HETATM    5  C   UNL     1     -10.245  17.132  66.757  1.00  0.00    -0.311 C  
BRANCH   5   6
HETATM    6  O   UNL     1     -10.288  15.700  66.776  1.00  0.00    -0.274 OA 
BRANCH   6   7
HETATM    7  C   UNL     1      -9.588  15.159  67.916  1.00  0.00    -0.203 C  
BRANCH   7   8
HETATM    8  C   UNL     1     -10.529  14.947  69.098  1.00  0.00    -0.246 A  
HETATM    9  C   UNL     1     -10.478  15.811  70.204  1.00  0.00    -0.288 A  
HETATM   10  C   UNL     1     -11.476  13.910  69.097  1.00  0.00    -0.345 A  
HETATM   11  C   UNL     1     -11.343  15.630  71.285  1.00  0.00    -0.451 A  
HETATM   12  C   UNL     1     -12.334  13.729  70.182  1.00  0.00    -0.390 A  
HETATM   13  C   UNL     1     -12.268  14.587  71.277  1.00  0.00    -0.421 A  
ENDBRANCH   7   8
BRANCH   7  14
HETATM   14  C   UNL     1      -8.871  13.870  67.529  1.00  0.00    -0.196 A  
HETATM   15  C   UNL     1      -8.828  11.806  66.235  1.00  0.00    -0.142 A  
HETATM   16  C   UNL     1      -6.916  12.417  67.582  1.00  0.00    -0.132 A  
HETATM   17  C   UNL     1      -9.485  12.971  66.640  1.00  0.00    -0.256 A  
HETATM   18 BR   UNL     1      -6.653   9.964  66.154  1.00  0.00    -0.089 Br 
HETATM   19  C   UNL     1      -7.576  13.578  67.991  1.00  0.00    -0.143 A  
HETATM   20  C   UNL     1      -7.546  11.536  66.708  1.00  0.00    -0.126 A  
ENDBRANCH   7  14
ENDBRANCH   6   7
ENDBRANCH   5   6
ENDBRANCH   4   5
ENDBRANCH   2   4
TORSDOF 6
ENDMDL
MODEL      125
REMARK 921   NORMALIZED FREE ENERGY PREDICTED BY IDOCK:   -3.59 KCAL/MOL
REMARK 922        TOTAL FREE ENERGY PREDICTED BY IDOCK:   -5.76 KCAL/MOL
REMARK 923 INTER-LIGAND FREE ENERGY PREDICTED BY IDOCK:   -4.93 KCAL/MOL
REMARK 924 INTRA-LIGAND FREE ENERGY PREDICTED BY IDOCK:   -0.83 KCAL/MOL
REMARK 927      BINDING AFFINITY PREDICTED BY RF-SCORE:    0.00 PKD
ROOT
HETATM    1  C   UNL     1     -12.042  13.660  68.931  1.00  0.00    -0.300 C  
HETATM    2  N   UNL     1     -11.708  12.313  68.462  1.00  0.00    -0.317 NA 
HETATM    3  C   UNL     1     -10.273  12.238  68.172  1.00  0.00    -0.212 C  
ENDROOT
BRANCH   2   4
HETATM    4  C   UNL     1     -12.128  11.306  69.459  1.00  0.00    -0.317 C  
BRANCH   4   5
HETATM    5  C   UNL     1     -10.973  10.421  69.956  1.00  0.00    -0.308 C  
BRANCH   5   6
HETATM    6  O   UNL     1     -11.191   9.051  69.594  1.00  0.00    -0.132 OA 
BRANCH   6   7
HETATM    7  C   UNL     1     -10.053   8.226  69.916  1.00  0.00    -0.195 C  
BRANCH   7   8
HETATM    8  C   UNL     1     -10.145   7.679  71.338  1.00  0.00    -0.204 A  
HETATM    9  C   UNL     1      -9.310   8.189  72.345  1.00  0.00    -0.308 A  
HETATM   10  C   UNL     1     -11.074   6.683  71.675  1.00  0.00    -0.290 A  
HETATM   11  C   UNL     1      -9.396   7.702  73.651  1.00  0.00    -0.344 A  
HETATM   12  C   UNL     1     -11.153   6.194  72.980  1.00  0.00    -0.250 A  
HETATM   13  C   UNL     1     -10.313   6.702  73.967  1.00  0.00    -0.377 A  
ENDBRANCH   7   8
BRANCH   7  14
HETATM   14  C   UNL     1      -9.908   7.106  68.891  1.00  0.00    -0.156 A  
HETATM   15  C   UNL     1     -10.678   6.030  66.845  1.00  0.00    -0.407 A  
HETATM   16  C   UNL     1      -8.707   5.198  67.969  1.00  0.00    -0.102 A  
HETATM   17  C   UNL     1     -10.818   7.019  67.822  1.00  0.00    -0.276 A  
HETATM   18 BR   UNL     1      -9.429   3.792  65.597  1.00  0.00    -0.160 Br 
HETATM   19  C   UNL     1      -8.850   6.184  68.948  1.00  0.00    -0.122 A  
HETATM   20  C   UNL     1      -9.623   5.126  66.924  1.00  0.00    -0.148 A  
ENDBRANCH   7  14
ENDBRANCH   6   7
ENDBRANCH   5   6
ENDBRANCH   4   5
ENDBRANCH   2   4
TORSDOF 6
ENDMDL
MODEL      126
REMARK 921   NORMALIZED FREE ENERGY PREDICTED BY IDOCK:   -3.59 KCAL/MOL
REMARK 922        TOTAL FREE ENERGY PREDICTED BY IDOCK:   -5.76 KCAL/MOL
REMARK 923 INTER-LIGAND FREE ENERGY PREDICTED BY IDOCK:   -4.94 KCAL/MOL
REMARK 924 INTRA-LIGAND FREE ENERGY PREDICTED BY IDOCK:   -0.82 KCAL/MOL
REMARK 927      BINDING AFFINITY PREDICTED BY RF-SCORE:    0.00 PKD
ROOT
HETATM    1  C   UNL     1     -11.060   4.063  74.036  1.00  0.00    -0.093 C  
HETATM    2  N   UNL     1      -9.669   3.956  73.590  1.00  0.00    -0.105 NA 
HETATM    3  C   UNL     1      -9.402   2.585  73.144  1.00  0.00    -0.088 C  
ENDROOT
BRANCH   2   4
HETATM    4  C   UNL     1      -9.395   4.950  72.529  1.00  0.00    -0.135 C  
BRANCH   4   5
HETATM    5  C   UNL     1     -10.344   4.835  71.326  1.00  0.00    -0.113 C  
BRANCH   5   6
HETATM    6  O   UNL     1     -11.187   5.989  71.232  1.00  0.00    -0.287 OA 
BRANCH   6   7
HETATM    7  C   UNL     1     -10.476   7.129  70.707  1.00  0.00    -0.212 C  
BRANCH   7   8
HETATM    8  C   UNL     1     -10.162   6.957  69.224  1.00  0.00    -0.197 A  
HETATM    9  C   UNL     1     -11.173   6.563  68.331  1.00  0.00    -0.274 A  
HETATM   10  C   UNL     1      -8.878   7.209  68.718  1.00  0.00    -0.130 A  
HETATM   11  C   UNL     1     -10.897   6.413  66.970  1.00  0.00    -0.464 A  
HETATM   12  C   UNL     1      -8.605   7.052  67.358  1.00  0.00    -0.121 A  
HETATM   13  C   UNL     1      -9.613   6.653  66.484  1.00  0.00    -0.187 A  
ENDBRANCH   7   8
BRANCH   7  14
HETATM   14  C   UNL     1     -11.264   8.408  70.971  1.00  0.00    -0.304 A  
HETATM   15  C   UNL     1     -12.974   9.588  72.245  1.00  0.00    -0.466 A  
HETATM   16  C   UNL     1     -11.676  10.779  70.590  1.00  0.00    -0.442 A  
HETATM   17  C   UNL     1     -12.270   8.416  71.954  1.00  0.00    -0.395 A  
HETATM   18 BR   UNL     1     -13.619  12.350  71.961  1.00  0.00    -0.163 Br 
HETATM   19  C   UNL     1     -10.976   9.607  70.296  1.00  0.00    -0.337 A  
HETATM   20  C   UNL     1     -12.672  10.763  71.561  1.00  0.00    -0.431 A  
ENDBRANCH   7  14
ENDBRANCH   6   7
ENDBRANCH   5   6
ENDBRANCH   4   5
ENDBRANCH   2   4
TORSDOF 6
ENDMDL
MODEL      127
REMARK 921   NORMALIZED FREE ENERGY PREDICTED BY IDOCK:   -3.58 KCAL/MOL
REMARK 922        TOTAL FREE ENERGY PREDICTED BY IDOCK:   -5.75 KCAL/MOL
REMARK 923 INTER-LIGAND FREE ENERGY PREDICTED BY IDOCK:   -4.93 KCAL/MOL
REMARK 924 INTRA-LIGAND FREE ENERGY PREDICTED BY IDOCK:   -0.82 KCAL/MOL
REMARK 927      BINDING AFFINITY PREDICTED BY RF-SCORE:    0.00 PKD
ROOT
HETATM    1  C   UNL     1      -7.177   8.974  66.567  1.00  0.00    -0.085 C  
HETATM    2  N   UNL     1      -7.101  10.372  66.997  1.00  0.00    -0.089 NA 
HETATM    3  C   UNL     1      -7.922  11.202  66.110  1.00  0.00    -0.090 C  
ENDROOT
BRANCH   2   4
HETATM    4  C   UNL     1      -7.511  10.495  68.412  1.00  0.00    -0.092 C  
BRANCH   4   5
HETATM    5  C   UNL     1      -8.755  11.376  68.612  1.00  0.00    -0.121 C  
BRANCH   5   6
HETATM    6  O   UNL     1      -9.950  10.587  68.556  1.00  0.00    -0.158 OA 
BRANCH   6   7
HETATM    7  C   UNL     1      -9.936   9.525  69.532  1.00  0.00    -0.194 C  
BRANCH   7   8
HETATM    8  C   UNL     1     -11.139   9.611  70.467  1.00  0.00    -0.369 A  
HETATM    9  C   UNL     1     -11.916  10.780  70.509  1.00  0.00    -0.456 A  
HETATM   10  C   UNL     1     -11.509   8.527  71.278  1.00  0.00    -0.329 A  
HETATM   11  C   UNL     1     -13.026  10.863  71.354  1.00  0.00    -0.527 A  
HETATM   12  C   UNL     1     -12.614   8.616  72.125  1.00  0.00    -0.451 A  
HETATM   13  C   UNL     1     -13.372   9.784  72.165  1.00  0.00    -0.527 A  
ENDBRANCH   7   8
BRANCH   7  14
HETATM   14  C   UNL     1      -9.861   8.171  68.835  1.00  0.00    -0.178 A  
HETATM   15  C   UNL     1     -10.550   6.718  67.004  1.00  0.00    -0.405 A  
HETATM   16  C   UNL     1      -8.897   5.947  68.589  1.00  0.00    -0.111 A  
HETATM   17  C   UNL     1     -10.637   7.934  67.687  1.00  0.00    -0.276 A  
HETATM   18 BR   UNL     1      -9.556   4.089  66.532  1.00  0.00    -0.210 Br 
HETATM   19  C   UNL     1      -8.987   7.161  69.274  1.00  0.00    -0.138 A  
HETATM   20  C   UNL     1      -9.679   5.731  67.460  1.00  0.00    -0.119 A  
ENDBRANCH   7  14
ENDBRANCH   6   7
ENDBRANCH   5   6
ENDBRANCH   4   5
ENDBRANCH   2   4
TORSDOF 6
ENDMDL
MODEL      128
REMARK 921   NORMALIZED FREE ENERGY PREDICTED BY IDOCK:   -3.57 KCAL/MOL
REMARK 922        TOTAL FREE ENERGY PREDICTED BY IDOCK:   -5.74 KCAL/MOL
REMARK 923 INTER-LIGAND FREE ENERGY PREDICTED BY IDOCK:   -4.98 KCAL/MOL
REMARK 924 INTRA-LIGAND FREE ENERGY PREDICTED BY IDOCK:   -0.76 KCAL/MOL
REMARK 927      BINDING AFFINITY PREDICTED BY RF-SCORE:    0.00 PKD
ROOT
HETATM    1  C   UNL     1      -7.675   3.673  72.219  1.00  0.00    -0.063 C  
HETATM    2  N   UNL     1      -8.529   2.526  72.537  1.00  0.00    -0.062 NA 
HETATM    3  C   UNL     1      -8.075   1.911  73.788  1.00  0.00    -0.046 C  
ENDROOT
BRANCH   2   4
HETATM    4  C   UNL     1      -9.945   2.947  72.605  1.00  0.00    -0.152 C  
BRANCH   4   5
HETATM    5  C   UNL     1     -10.122   4.465  72.770  1.00  0.00    -0.168 C  
BRANCH   5   6
HETATM    6  O   UNL     1     -10.977   4.991  71.747  1.00  0.00    -0.093 OA 
BRANCH   6   7
HETATM    7  C   UNL     1     -10.307   5.991  70.952  1.00  0.00    -0.222 C  
BRANCH   7   8
HETATM    8  C   UNL     1     -10.294   5.612  69.474  1.00  0.00    -0.345 A  
HETATM    9  C   UNL     1     -11.001   6.388  68.541  1.00  0.00    -0.396 A  
HETATM   10  C   UNL     1      -9.562   4.507  69.013  1.00  0.00    -0.245 A  
HETATM   11  C   UNL     1     -10.986   6.055  67.185  1.00  0.00    -0.360 A  
HETATM   12  C   UNL     1      -9.553   4.174  67.658  1.00  0.00    -0.213 A  
HETATM   13  C   UNL     1     -10.266   4.945  66.744  1.00  0.00    -0.274 A  
ENDBRANCH   7   8
BRANCH   7  14
HETATM   14  C   UNL     1     -10.947   7.357  71.178  1.00  0.00    -0.265 A  
HETATM   15  C   UNL     1     -10.772   9.786  71.118  1.00  0.00    -0.284 A  
HETATM   16  C   UNL     1     -12.879   8.750  71.692  1.00  0.00    -0.392 A  
HETATM   17  C   UNL     1     -10.194   8.524  70.962  1.00  0.00    -0.255 A  
HETATM   18 BR   UNL     1     -12.898  11.600  71.683  1.00  0.00    -0.371 Br 
HETATM   19  C   UNL     1     -12.299   7.488  71.542  1.00  0.00    -0.367 A  
HETATM   20  C   UNL     1     -12.112   9.892  71.481  1.00  0.00    -0.410 A  
ENDBRANCH   7  14
ENDBRANCH   6   7
ENDBRANCH   5   6
ENDBRANCH   4   5
ENDBRANCH   2   4
TORSDOF 6
ENDMDL
MODEL      129
REMARK 921   NORMALIZED FREE ENERGY PREDICTED BY IDOCK:   -3.56 KCAL/MOL
REMARK 922        TOTAL FREE ENERGY PREDICTED BY IDOCK:   -5.73 KCAL/MOL
REMARK 923 INTER-LIGAND FREE ENERGY PREDICTED BY IDOCK:   -4.92 KCAL/MOL
REMARK 924 INTRA-LIGAND FREE ENERGY PREDICTED BY IDOCK:   -0.81 KCAL/MOL
REMARK 927      BINDING AFFINITY PREDICTED BY RF-SCORE:    0.00 PKD
ROOT
HETATM    1  C   UNL     1     -11.451  14.877  68.153  1.00  0.00    -0.330 C  
HETATM    2  N   UNL     1     -11.599  16.236  68.680  1.00  0.00    -0.304 NA 
HETATM    3  C   UNL     1     -11.285  16.241  70.112  1.00  0.00    -0.333 C  
ENDROOT
BRANCH   2   4
HETATM    4  C   UNL     1     -10.747  17.175  67.920  1.00  0.00    -0.355 C  
BRANCH   4   5
HETATM    5  C   UNL     1     -10.301  18.395  68.741  1.00  0.00    -0.197 C  
BRANCH   5   6
HETATM    6  O   UNL     1      -8.872  18.468  68.808  1.00  0.00    -0.312 OA 
BRANCH   6   7
HETATM    7  C   UNL     1      -8.251  17.853  67.661  1.00  0.00    -0.232 C  
BRANCH   7   8
HETATM    8  C   UNL     1      -7.346  18.836  66.924  1.00  0.00    -0.222 A  
HETATM    9  C   UNL     1      -6.714  18.453  65.729  1.00  0.00    -0.315 A  
HETATM   10  C   UNL     1      -7.146  20.140  67.402  1.00  0.00    -0.304 A  
HETATM   11  C   UNL     1      -5.893  19.350  65.042  1.00  0.00    -0.268 A  
HETATM   12  C   UNL     1      -6.320  21.032  66.716  1.00  0.00    -0.373 A  
HETATM   13  C   UNL     1      -5.692  20.637  65.538  1.00  0.00    -0.247 A  
ENDBRANCH   7   8
BRANCH   7  14
HETATM   14  C   UNL     1      -7.494  16.598  68.082  1.00  0.00    -0.170 A  
HETATM   15  C   UNL     1      -6.092  15.447  69.709  1.00  0.00    -0.147 A  
HETATM   16  C   UNL     1      -6.900  14.257  67.767  1.00  0.00    -0.189 A  
HETATM   17  C   UNL     1      -6.756  16.599  69.279  1.00  0.00    -0.221 A  
HETATM   18 BR   UNL     1      -5.277  12.721  69.536  1.00  0.00    -0.079 Br 
HETATM   19  C   UNL     1      -7.559  15.410  67.335  1.00  0.00    -0.233 A  
HETATM   20  C   UNL     1      -6.169  14.282  68.950  1.00  0.00    -0.089 A  
ENDBRANCH   7  14
ENDBRANCH   6   7
ENDBRANCH   5   6
ENDBRANCH   4   5
ENDBRANCH   2   4
TORSDOF 6
ENDMDL
MODEL      130
REMARK 921   NORMALIZED FREE ENERGY PREDICTED BY IDOCK:   -3.56 KCAL/MOL
REMARK 922        TOTAL FREE ENERGY PREDICTED BY IDOCK:   -5.73 KCAL/MOL
REMARK 923 INTER-LIGAND FREE ENERGY PREDICTED BY IDOCK:   -5.38 KCAL/MOL
REMARK 924 INTRA-LIGAND FREE ENERGY PREDICTED BY IDOCK:   -0.34 KCAL/MOL
REMARK 927      BINDING AFFINITY PREDICTED BY RF-SCORE:    0.00 PKD
ROOT
HETATM    1  C   UNL     1     -13.302   9.640  71.502  1.00  0.00    -0.388 C  
HETATM    2  N   UNL     1     -12.090   8.839  71.320  1.00  0.00    -0.294 NA 
HETATM    3  C   UNL     1     -12.456   7.431  71.142  1.00  0.00    -0.308 C  
ENDROOT
BRANCH   2   4
HETATM    4  C   UNL     1     -11.301   9.357  70.182  1.00  0.00    -0.185 C  
BRANCH   4   5
HETATM    5  C   UNL     1     -11.812  10.705  69.649  1.00  0.00    -0.286 C  
BRANCH   5   6
HETATM    6  O   UNL     1     -10.758  11.428  69.001  1.00  0.00    -0.205 OA 
BRANCH   6   7
HETATM    7  C   UNL     1     -11.186  11.981  67.740  1.00  0.00    -0.271 C  
BRANCH   7   8
HETATM    8  C   UNL     1     -10.976  13.492  67.694  1.00  0.00    -0.280 A  
HETATM    9  C   UNL     1     -10.883  14.227  68.887  1.00  0.00    -0.272 A  
HETATM   10  C   UNL     1     -10.845  14.172  66.473  1.00  0.00    -0.298 A  
HETATM   11  C   UNL     1     -10.679  15.609  68.854  1.00  0.00    -0.238 A  
HETATM   12  C   UNL     1     -10.648  15.553  66.444  1.00  0.00    -0.312 A  
HETATM   13  C   UNL     1     -10.567  16.272  67.634  1.00  0.00    -0.311 A  
ENDBRANCH   7   8
BRANCH   7  14
HETATM   14  C   UNL     1     -10.474  11.279  66.589  1.00  0.00    -0.292 A  
HETATM   15  C   UNL     1     -10.276  10.853  64.198  1.00  0.00    -0.424 A  
HETATM   16  C   UNL     1      -8.652   9.914  65.721  1.00  0.00    -0.151 A  
HETATM   17  C   UNL     1     -10.940  11.449  65.273  1.00  0.00    -0.251 A  
HETATM   18 BR   UNL     1      -8.232   9.289  62.972  1.00  0.00    -0.189 Br 
HETATM   19  C   UNL     1      -9.318  10.506  66.796  1.00  0.00    -0.180 A  
HETATM   20  C   UNL     1      -9.135  10.089  64.428  1.00  0.00    -0.247 A  
ENDBRANCH   7  14
ENDBRANCH   6   7
ENDBRANCH   5   6
ENDBRANCH   4   5
ENDBRANCH   2   4
TORSDOF 6
ENDMDL
MODEL      131
REMARK 921   NORMALIZED FREE ENERGY PREDICTED BY IDOCK:   -3.55 KCAL/MOL
REMARK 922        TOTAL FREE ENERGY PREDICTED BY IDOCK:   -5.71 KCAL/MOL
REMARK 923 INTER-LIGAND FREE ENERGY PREDICTED BY IDOCK:   -4.91 KCAL/MOL
REMARK 924 INTRA-LIGAND FREE ENERGY PREDICTED BY IDOCK:   -0.80 KCAL/MOL
REMARK 927      BINDING AFFINITY PREDICTED BY RF-SCORE:    0.00 PKD
ROOT
HETATM    1  C   UNL     1     -10.499   5.027  66.205  1.00  0.00    -0.303 C  
HETATM    2  N   UNL     1      -9.037   5.006  66.289  1.00  0.00    -0.125 NA 
HETATM    3  C   UNL     1      -8.467   5.204  64.953  1.00  0.00    -0.149 C  
ENDROOT
BRANCH   2   4
HETATM    4  C   UNL     1      -8.566   6.024  67.252  1.00  0.00    -0.106 C  
BRANCH   4   5
HETATM    5  C   UNL     1      -9.512   7.229  67.376  1.00  0.00    -0.132 C  
BRANCH   5   6
HETATM    6  O   UNL     1      -9.229   7.977  68.565  1.00  0.00    -0.137 OA 
BRANCH   6   7
HETATM    7  C   UNL     1     -10.436   8.374  69.247  1.00  0.00    -0.215 C  
BRANCH   7   8
HETATM    8  C   UNL     1     -10.389   8.001  70.726  1.00  0.00    -0.214 A  
HETATM    9  C   UNL     1      -9.323   8.438  71.530  1.00  0.00    -0.263 A  
HETATM   10  C   UNL     1     -11.411   7.244  71.318  1.00  0.00    -0.304 A  
HETATM   11  C   UNL     1      -9.278   8.110  72.887  1.00  0.00    -0.343 A  
HETATM   12  C   UNL     1     -11.359   6.913  72.673  1.00  0.00    -0.272 A  
HETATM   13  C   UNL     1     -10.293   7.344  73.457  1.00  0.00    -0.405 A  
ENDBRANCH   7   8
BRANCH   7  14
HETATM   14  C   UNL     1     -10.685   9.866  69.051  1.00  0.00    -0.244 A  
HETATM   15  C   UNL     1     -11.982  11.859  69.581  1.00  0.00    -0.365 A  
HETATM   16  C   UNL     1     -10.046  12.036  68.146  1.00  0.00    -0.200 A  
HETATM   17  C   UNL     1     -11.762  10.485  69.710  1.00  0.00    -0.354 A  
HETATM   18 BR   UNL     1     -11.415  14.487  68.634  1.00  0.00    -0.342 Br 
HETATM   19  C   UNL     1      -9.829  10.661  68.270  1.00  0.00    -0.174 A  
HETATM   20  C   UNL     1     -11.122  12.627  68.801  1.00  0.00    -0.263 A  
ENDBRANCH   7  14
ENDBRANCH   6   7
ENDBRANCH   5   6
ENDBRANCH   4   5
ENDBRANCH   2   4
TORSDOF 6
ENDMDL
MODEL      132
REMARK 921   NORMALIZED FREE ENERGY PREDICTED BY IDOCK:   -3.55 KCAL/MOL
REMARK 922        TOTAL FREE ENERGY PREDICTED BY IDOCK:   -5.71 KCAL/MOL
REMARK 923 INTER-LIGAND FREE ENERGY PREDICTED BY IDOCK:   -5.71 KCAL/MOL
REMARK 924 INTRA-LIGAND FREE ENERGY PREDICTED BY IDOCK:    0.00 KCAL/MOL
REMARK 927      BINDING AFFINITY PREDICTED BY RF-SCORE:    0.00 PKD
ROOT
HETATM    1  C   UNL     1      -7.380  12.818  68.618  1.00  0.00    -0.099 C  
HETATM    2  N   UNL     1      -7.589  11.403  68.306  1.00  0.00    -0.105 NA 
HETATM    3  C   UNL     1      -7.294  10.592  69.491  1.00  0.00    -0.148 C  
ENDROOT
BRANCH   2   4
HETATM    4  C   UNL     1      -8.965  11.186  67.811  1.00  0.00    -0.139 C  
BRANCH   4   5
HETATM    5  C   UNL     1      -9.725  10.093  68.580  1.00  0.00    -0.163 C  
BRANCH   5   6
HETATM    6  O   UNL     1     -11.138  10.227  68.389  1.00  0.00    -0.253 OA 
BRANCH   6   7
HETATM    7  C   UNL     1     -11.872   9.913  69.591  1.00  0.00     0.110 C  
BRANCH   7   8
HETATM    8  C   UNL     1     -11.099   8.943  70.479  1.00  0.00    -0.288 A  
HETATM    9  C   UNL     1     -11.318   7.560  70.371  1.00  0.00    -0.253 A  
HETATM   10  C   UNL     1     -10.141   9.403  71.397  1.00  0.00    -0.263 A  
HETATM   11  C   UNL     1     -10.606   6.665  71.172  1.00  0.00    -0.263 A  
HETATM   12  C   UNL     1      -9.436   8.505  72.200  1.00  0.00    -0.375 A  
HETATM   13  C   UNL     1      -9.669   7.137  72.090  1.00  0.00    -0.163 A  
ENDBRANCH   7   8
BRANCH   7  14
HETATM   14  C   UNL     1     -12.233  11.193  70.336  1.00  0.00    -0.457 A  
HETATM   15  C   UNL     1     -12.260  13.628  70.422  1.00  0.00    -0.434 A  
HETATM   16  C   UNL     1     -13.312  12.355  72.186  1.00  0.00    -0.508 A  
HETATM   17  C   UNL     1     -11.899  12.441  69.780  1.00  0.00    -0.387 A  
HETATM   18 BR   UNL     1     -13.461  15.185  72.486  1.00  0.00    -0.625 Br 
HETATM   19  C   UNL     1     -12.947  11.168  71.547  1.00  0.00    -0.542 A  
HETATM   20  C   UNL     1     -12.965  13.578  71.621  1.00  0.00    -0.359 A  
ENDBRANCH   7  14
ENDBRANCH   6   7
ENDBRANCH   5   6
ENDBRANCH   4   5
ENDBRANCH   2   4
TORSDOF 6
ENDMDL
MODEL      133
REMARK 921   NORMALIZED FREE ENERGY PREDICTED BY IDOCK:   -3.53 KCAL/MOL
REMARK 922        TOTAL FREE ENERGY PREDICTED BY IDOCK:   -5.68 KCAL/MOL
REMARK 923 INTER-LIGAND FREE ENERGY PREDICTED BY IDOCK:   -4.83 KCAL/MOL
REMARK 924 INTRA-LIGAND FREE ENERGY PREDICTED BY IDOCK:   -0.86 KCAL/MOL
REMARK 927      BINDING AFFINITY PREDICTED BY RF-SCORE:    0.00 PKD
ROOT
HETATM    1  C   UNL     1      -8.839   8.742  65.772  1.00  0.00    -0.195 C  
HETATM    2  N   UNL     1     -10.144   9.396  65.892  1.00  0.00    -0.262 NA 
HETATM    3  C   UNL     1     -10.410   9.705  67.299  1.00  0.00    -0.249 C  
ENDROOT
BRANCH   2   4
HETATM    4  C   UNL     1     -10.191  10.603  65.038  1.00  0.00    -0.310 C  
BRANCH   4   5
HETATM    5  C   UNL     1     -10.710  11.849  65.773  1.00  0.00    -0.284 C  
BRANCH   5   6
HETATM    6  O   UNL     1      -9.729  12.894  65.757  1.00  0.00    -0.236 OA 
BRANCH   6   7
HETATM    7  C   UNL     1      -9.449  13.385  67.084  1.00  0.00    -0.244 C  
BRANCH   7   8
HETATM    8  C   UNL     1      -8.025  13.046  67.514  1.00  0.00    -0.177 A  
HETATM    9  C   UNL     1      -7.381  11.913  66.991  1.00  0.00    -0.118 A  
HETATM   10  C   UNL     1      -7.322  13.865  68.412  1.00  0.00    -0.115 A  
HETATM   11  C   UNL     1      -6.074  11.602  67.371  1.00  0.00    -0.097 A  
HETATM   12  C   UNL     1      -6.018  13.547  68.794  1.00  0.00    -0.084 A  
HETATM   13  C   UNL     1      -5.394  12.416  68.276  1.00  0.00    -0.058 A  
ENDBRANCH   7   8
BRANCH   7  14
HETATM   14  C   UNL     1      -9.718  14.884  67.157  1.00  0.00    -0.229 A  
HETATM   15  C   UNL     1      -9.696  17.070  66.080  1.00  0.00    -0.283 A  
HETATM   16  C   UNL     1     -10.603  16.841  68.308  1.00  0.00    -0.352 A  
HETATM   17  C   UNL     1      -9.416  15.701  66.053  1.00  0.00    -0.390 A  
HETATM   18 BR   UNL     1     -10.675  19.482  67.241  1.00  0.00    -0.553 Br 
HETATM   19  C   UNL     1     -10.318  15.473  68.283  1.00  0.00    -0.235 A  
HETATM   20  C   UNL     1     -10.289  17.631  67.208  1.00  0.00    -0.354 A  
ENDBRANCH   7  14
ENDBRANCH   6   7
ENDBRANCH   5   6
ENDBRANCH   4   5
ENDBRANCH   2   4
TORSDOF 6
ENDMDL
MODEL      134
REMARK 921   NORMALIZED FREE ENERGY PREDICTED BY IDOCK:   -3.52 KCAL/MOL
REMARK 922        TOTAL FREE ENERGY PREDICTED BY IDOCK:   -5.67 KCAL/MOL
REMARK 923 INTER-LIGAND FREE ENERGY PREDICTED BY IDOCK:   -4.82 KCAL/MOL
REMARK 924 INTRA-LIGAND FREE ENERGY PREDICTED BY IDOCK:   -0.85 KCAL/MOL
REMARK 927      BINDING AFFINITY PREDICTED BY RF-SCORE:    0.00 PKD
ROOT
HETATM    1  C   UNL     1     -11.206   8.916  71.668  1.00  0.00    -0.345 C  
HETATM    2  N   UNL     1     -11.878   9.555  70.534  1.00  0.00    -0.227 NA 
HETATM    3  C   UNL     1     -13.012  10.347  71.020  1.00  0.00    -0.399 C  
ENDROOT
BRANCH   2   4
HETATM    4  C   UNL     1     -10.915  10.374  69.767  1.00  0.00    -0.293 C  
BRANCH   4   5
HETATM    5  C   UNL     1     -11.574  11.211  68.658  1.00  0.00    -0.315 C  
BRANCH   5   6
HETATM    6  O   UNL     1     -10.867  11.062  67.421  1.00  0.00    -0.239 OA 
BRANCH   6   7
HETATM    7  C   UNL     1      -9.549  11.645  67.485  1.00  0.00    -0.171 C  
BRANCH   7   8
HETATM    8  C   UNL     1      -8.613  11.021  66.455  1.00  0.00    -0.165 A  
HETATM    9  C   UNL     1      -9.139  10.314  65.361  1.00  0.00    -0.221 A  
HETATM   10  C   UNL     1      -7.220  11.158  66.559  1.00  0.00    -0.124 A  
HETATM   11  C   UNL     1      -8.289   9.749  64.407  1.00  0.00    -0.169 A  
HETATM   12  C   UNL     1      -6.374  10.587  65.608  1.00  0.00    -0.126 A  
HETATM   13  C   UNL     1      -6.908   9.881  64.533  1.00  0.00    -0.124 A  
ENDBRANCH   7   8
BRANCH   7  14
HETATM   14  C   UNL     1      -9.635  13.159  67.323  1.00  0.00    -0.233 A  
HETATM   15  C   UNL     1     -10.120  15.089  65.918  1.00  0.00    -0.343 A  
HETATM   16  C   UNL     1      -9.562  15.412  68.247  1.00  0.00    -0.205 A  
HETATM   17  C   UNL     1      -9.990  13.707  66.078  1.00  0.00    -0.313 A  
HETATM   18 BR   UNL     1     -10.090  17.803  66.789  1.00  0.00    -0.364 Br 
HETATM   19  C   UNL     1      -9.426  14.031  68.406  1.00  0.00    -0.213 A  
HETATM   20  C   UNL     1      -9.906  15.934  67.004  1.00  0.00    -0.232 A  
ENDBRANCH   7  14
ENDBRANCH   6   7
ENDBRANCH   5   6
ENDBRANCH   4   5
ENDBRANCH   2   4
TORSDOF 6
ENDMDL
MODEL      135
REMARK 921   NORMALIZED FREE ENERGY PREDICTED BY IDOCK:   -3.52 KCAL/MOL
REMARK 922        TOTAL FREE ENERGY PREDICTED BY IDOCK:   -5.67 KCAL/MOL
REMARK 923 INTER-LIGAND FREE ENERGY PREDICTED BY IDOCK:   -6.25 KCAL/MOL
REMARK 924 INTRA-LIGAND FREE ENERGY PREDICTED BY IDOCK:    0.58 KCAL/MOL
REMARK 927      BINDING AFFINITY PREDICTED BY RF-SCORE:    0.00 PKD
ROOT
HETATM    1  C   UNL     1     -10.584   9.111  71.011  1.00  0.00    -0.292 C  
HETATM    2  N   UNL     1     -10.528  10.065  69.902  1.00  0.00    -0.257 NA 
HETATM    3  C   UNL     1     -10.618   9.343  68.629  1.00  0.00    -0.200 C  
ENDROOT
BRANCH   2   4
HETATM    4  C   UNL     1     -11.596  11.077  70.044  1.00  0.00    -0.344 C  
BRANCH   4   5
HETATM    5  C   UNL     1     -11.171  12.481  69.584  1.00  0.00    -0.020 C  
BRANCH   5   6
HETATM    6  O   UNL     1     -12.259  13.157  68.942  1.00  0.00    -0.249 OA 
BRANCH   6   7
HETATM    7  C   UNL     1     -12.210  14.581  69.165  1.00  0.00    -0.199 C  
BRANCH   7   8
HETATM    8  C   UNL     1     -12.476  14.926  70.627  1.00  0.00    -0.411 A  
HETATM    9  C   UNL     1     -13.490  14.261  71.335  1.00  0.00    -0.402 A  
HETATM   10  C   UNL     1     -11.704  15.885  71.300  1.00  0.00    -0.504 A  
HETATM   11  C   UNL     1     -13.733  14.562  72.677  1.00  0.00    -0.543 A  
HETATM   12  C   UNL     1     -11.953  16.188  72.640  1.00  0.00    -0.653 A  
HETATM   13  C   UNL     1     -12.968  15.529  73.328  1.00  0.00    -0.654 A  
ENDBRANCH   7   8
BRANCH   7  14
HETATM   14  C   UNL     1     -10.875  15.143  68.688  1.00  0.00    -0.245 A  
HETATM   15  C   UNL     1      -8.487  15.461  69.055  1.00  0.00    -0.229 A  
HETATM   16  C   UNL     1      -9.495  16.219  66.993  1.00  0.00    -0.237 A  
HETATM   17  C   UNL     1      -9.731  14.996  69.491  1.00  0.00    -0.113 A  
HETATM   18 BR   UNL     1      -6.693  16.692  67.213  1.00  0.00    -0.232 Br 
HETATM   19  C   UNL     1     -10.739  15.758  67.431  1.00  0.00    -0.317 A  
HETATM   20  C   UNL     1      -8.377  16.069  67.807  1.00  0.00    -0.150 A  
ENDBRANCH   7  14
ENDBRANCH   6   7
ENDBRANCH   5   6
ENDBRANCH   4   5
ENDBRANCH   2   4
TORSDOF 6
ENDMDL
MODEL      136
REMARK 921   NORMALIZED FREE ENERGY PREDICTED BY IDOCK:   -3.50 KCAL/MOL
REMARK 922        TOTAL FREE ENERGY PREDICTED BY IDOCK:   -5.64 KCAL/MOL
REMARK 923 INTER-LIGAND FREE ENERGY PREDICTED BY IDOCK:   -6.03 KCAL/MOL
REMARK 924 INTRA-LIGAND FREE ENERGY PREDICTED BY IDOCK:    0.38 KCAL/MOL
REMARK 927      BINDING AFFINITY PREDICTED BY RF-SCORE:    0.00 PKD
ROOT
HETATM    1  C   UNL     1      -6.356  14.143  68.707  1.00  0.00    -0.088 C  
HETATM    2  N   UNL     1      -6.759  13.516  67.446  1.00  0.00    -0.221 NA 
HETATM    3  C   UNL     1      -6.053  12.242  67.285  1.00  0.00    -0.153 C  
ENDROOT
BRANCH   2   4
HETATM    4  C   UNL     1      -8.227  13.348  67.406  1.00  0.00    -0.183 C  
BRANCH   4   5
HETATM    5  C   UNL     1      -8.956  14.511  66.714  1.00  0.00    -0.246 C  
BRANCH   5   6
HETATM    6  O   UNL     1     -10.376  14.334  66.782  1.00  0.00    -0.268 OA 
BRANCH   6   7
HETATM    7  C   UNL     1     -11.023  15.448  67.432  1.00  0.00    -0.312 C  
BRANCH   7   8
HETATM    8  C   UNL     1     -11.430  15.101  68.860  1.00  0.00    -0.337 A  
HETATM    9  C   UNL     1     -11.424  16.091  69.856  1.00  0.00    -0.327 A  
HETATM   10  C   UNL     1     -11.841  13.803  69.205  1.00  0.00    -0.398 A  
HETATM   11  C   UNL     1     -11.806  15.784  71.164  1.00  0.00    -0.471 A  
HETATM   12  C   UNL     1     -12.216  13.499  70.514  1.00  0.00    -0.433 A  
HETATM   13  C   UNL     1     -12.197  14.487  71.494  1.00  0.00    -0.415 A  
ENDBRANCH   7   8
BRANCH   7  14
HETATM   14  C   UNL     1     -10.122  16.678  67.386  1.00  0.00    -0.274 A  
HETATM   15  C   UNL     1      -9.556  18.822  66.375  1.00  0.00    -0.354 A  
HETATM   16  C   UNL     1      -8.330  18.047  68.309  1.00  0.00    -0.295 A  
HETATM   17  C   UNL     1     -10.339  17.664  66.408  1.00  0.00    -0.345 A  
HETATM   18 BR   UNL     1      -7.503  20.576  67.288  1.00  0.00    -0.385 Br 
HETATM   19  C   UNL     1      -9.109  16.887  68.338  1.00  0.00    -0.243 A  
HETATM   20  C   UNL     1      -8.556  19.006  67.327  1.00  0.00    -0.278 A  
ENDBRANCH   7  14
ENDBRANCH   6   7
ENDBRANCH   5   6
ENDBRANCH   4   5
ENDBRANCH   2   4
TORSDOF 6
ENDMDL
MODEL      137
REMARK 921   NORMALIZED FREE ENERGY PREDICTED BY IDOCK:   -3.49 KCAL/MOL
REMARK 922        TOTAL FREE ENERGY PREDICTED BY IDOCK:   -5.63 KCAL/MOL
REMARK 923 INTER-LIGAND FREE ENERGY PREDICTED BY IDOCK:   -4.72 KCAL/MOL
REMARK 924 INTRA-LIGAND FREE ENERGY PREDICTED BY IDOCK:   -0.91 KCAL/MOL
REMARK 927      BINDING AFFINITY PREDICTED BY RF-SCORE:    0.00 PKD
ROOT
HETATM    1  C   UNL     1      -9.661  17.096  67.510  1.00  0.00    -0.256 C  
HETATM    2  N   UNL     1      -9.496  15.843  66.771  1.00  0.00    -0.224 NA 
HETATM    3  C   UNL     1      -8.106  15.389  66.881  1.00  0.00    -0.224 C  
ENDROOT
BRANCH   2   4
HETATM    4  C   UNL     1     -10.453  14.829  67.264  1.00  0.00    -0.264 C  
BRANCH   4   5
HETATM    5  C   UNL     1      -9.872  13.927  68.365  1.00  0.00    -0.229 C  
BRANCH   5   6
HETATM    6  O   UNL     1     -10.420  12.605  68.280  1.00  0.00    -0.226 OA 
BRANCH   6   7
HETATM    7  C   UNL     1      -9.386  11.604  68.176  1.00  0.00    -0.188 C  
BRANCH   7   8
HETATM    8  C   UNL     1      -9.629  10.451  69.145  1.00  0.00    -0.226 A  
HETATM    9  C   UNL     1     -10.928   9.956  69.341  1.00  0.00    -0.263 A  
HETATM   10  C   UNL     1      -8.567   9.845  69.836  1.00  0.00    -0.216 A  
HETATM   11  C   UNL     1     -11.157   8.893  70.217  1.00  0.00    -0.251 A  
HETATM   12  C   UNL     1      -8.801   8.788  70.715  1.00  0.00    -0.228 A  
HETATM   13  C   UNL     1     -10.095   8.312  70.908  1.00  0.00    -0.224 A  
ENDBRANCH   7   8
BRANCH   7  14
HETATM   14  C   UNL     1      -9.271  11.116  66.736  1.00  0.00    -0.183 A  
HETATM   15  C   UNL     1      -7.987   9.969  65.011  1.00  0.00    -0.143 A  
HETATM   16  C   UNL     1     -10.225  10.741  64.526  1.00  0.00    -0.428 A  
HETATM   17  C   UNL     1      -8.098  10.466  66.313  1.00  0.00    -0.136 A  
HETATM   18 BR   UNL     1      -8.906   9.428  62.368  1.00  0.00    -0.249 Br 
HETATM   19  C   UNL     1     -10.334  11.243  65.825  1.00  0.00    -0.310 A  
HETATM   20  C   UNL     1      -9.052  10.109  64.126  1.00  0.00    -0.251 A  
ENDBRANCH   7  14
ENDBRANCH   6   7
ENDBRANCH   5   6
ENDBRANCH   4   5
ENDBRANCH   2   4
TORSDOF 6
ENDMDL
MODEL      138
REMARK 921   NORMALIZED FREE ENERGY PREDICTED BY IDOCK:   -3.48 KCAL/MOL
REMARK 922        TOTAL FREE ENERGY PREDICTED BY IDOCK:   -5.61 KCAL/MOL
REMARK 923 INTER-LIGAND FREE ENERGY PREDICTED BY IDOCK:   -4.43 KCAL/MOL
REMARK 924 INTRA-LIGAND FREE ENERGY PREDICTED BY IDOCK:   -1.18 KCAL/MOL
REMARK 927      BINDING AFFINITY PREDICTED BY RF-SCORE:    0.00 PKD
ROOT
HETATM    1  C   UNL     1      -9.748   9.860  67.473  1.00  0.00    -0.160 C  
HETATM    2  N   UNL     1      -8.320   9.785  67.156  1.00  0.00    -0.121 NA 
HETATM    3  C   UNL     1      -8.116  10.096  65.739  1.00  0.00    -0.142 C  
ENDROOT
BRANCH   2   4
HETATM    4  C   UNL     1      -7.553  10.688  68.041  1.00  0.00    -0.091 C  
BRANCH   4   5
HETATM    5  C   UNL     1      -8.435  11.691  68.802  1.00  0.00    -0.025 C  
BRANCH   5   6
HETATM    6  O   UNL     1      -8.162  13.032  68.378  1.00  0.00    -0.151 OA 
BRANCH   6   7
HETATM    7  C   UNL     1      -9.359  13.837  68.348  1.00  0.00    -0.190 C  
BRANCH   7   8
HETATM    8  C   UNL     1      -9.031  15.325  68.420  1.00  0.00    -0.184 A  
HETATM    9  C   UNL     1     -10.065  16.273  68.475  1.00  0.00    -0.239 A  
HETATM   10  C   UNL     1      -7.702  15.776  68.458  1.00  0.00    -0.137 A  
HETATM   11  C   UNL     1      -9.774  17.637  68.552  1.00  0.00    -0.328 A  
HETATM   12  C   UNL     1      -7.415  17.140  68.529  1.00  0.00    -0.238 A  
HETATM   13  C   UNL     1      -8.450  18.071  68.574  1.00  0.00    -0.314 A  
ENDBRANCH   7   8
BRANCH   7  14
HETATM   14  C   UNL     1     -10.186  13.502  67.112  1.00  0.00    -0.247 A  
HETATM   15  C   UNL     1     -10.302  13.141  64.705  1.00  0.00    -0.369 A  
HETATM   16  C   UNL     1     -12.268  12.789  66.066  1.00  0.00    -0.380 A  
HETATM   17  C   UNL     1      -9.575  13.490  65.846  1.00  0.00    -0.132 A  
HETATM   18 BR   UNL     1     -12.627  12.311  63.280  1.00  0.00    -0.255 Br 
HETATM   19  C   UNL     1     -11.542  13.143  67.206  1.00  0.00    -0.404 A  
HETATM   20  C   UNL     1     -11.645  12.792  64.822  1.00  0.00    -0.325 A  
ENDBRANCH   7  14
ENDBRANCH   6   7
ENDBRANCH   5   6
ENDBRANCH   4   5
ENDBRANCH   2   4
TORSDOF 6
ENDMDL
MODEL      139
REMARK 921   NORMALIZED FREE ENERGY PREDICTED BY IDOCK:   -3.46 KCAL/MOL
REMARK 922        TOTAL FREE ENERGY PREDICTED BY IDOCK:   -5.59 KCAL/MOL
REMARK 923 INTER-LIGAND FREE ENERGY PREDICTED BY IDOCK:   -4.54 KCAL/MOL
REMARK 924 INTRA-LIGAND FREE ENERGY PREDICTED BY IDOCK:   -1.06 KCAL/MOL
REMARK 927      BINDING AFFINITY PREDICTED BY RF-SCORE:    0.00 PKD
ROOT
HETATM    1  C   UNL     1     -11.756  13.690  66.597  1.00  0.00    -0.388 C  
HETATM    2  N   UNL     1     -12.077  14.584  67.712  1.00  0.00    -0.300 NA 
HETATM    3  C   UNL     1     -11.803  13.902  68.981  1.00  0.00    -0.358 C  
ENDROOT
BRANCH   2   4
HETATM    4  C   UNL     1     -11.322  15.850  67.586  1.00  0.00    -0.151 C  
BRANCH   4   5
HETATM    5  C   UNL     1     -11.112  16.571  68.927  1.00  0.00    -0.300 C  
BRANCH   5   6
HETATM    6  O   UNL     1      -9.716  16.732  69.205  1.00  0.00    -0.257 OA 
BRANCH   6   7
HETATM    7  C   UNL     1      -8.898  16.310  68.094  1.00  0.00    -0.183 C  
BRANCH   7   8
HETATM    8  C   UNL     1      -8.075  17.468  67.537  1.00  0.00    -0.213 A  
HETATM    9  C   UNL     1      -7.737  18.554  68.360  1.00  0.00    -0.319 A  
HETATM   10  C   UNL     1      -7.617  17.463  66.209  1.00  0.00    -0.348 A  
HETATM   11  C   UNL     1      -6.974  19.612  67.861  1.00  0.00    -0.290 A  
HETATM   12  C   UNL     1      -6.861  18.525  65.713  1.00  0.00    -0.310 A  
HETATM   13  C   UNL     1      -6.540  19.600  66.537  1.00  0.00    -0.191 A  
ENDBRANCH   7   8
BRANCH   7  14
HETATM   14  C   UNL     1      -8.014  15.138  68.507  1.00  0.00    -0.142 A  
HETATM   15  C   UNL     1      -7.168  12.896  68.065  1.00  0.00    -0.115 A  
HETATM   16  C   UNL     1      -6.316  14.150  69.947  1.00  0.00    -0.141 A  
HETATM   17  C   UNL     1      -8.004  13.966  67.732  1.00  0.00    -0.174 A  
HETATM   18 BR   UNL     1      -5.191  11.552  69.616  1.00  0.00    -0.061 Br 
HETATM   19  C   UNL     1      -7.155  15.216  69.617  1.00  0.00    -0.193 A  
HETATM   20  C   UNL     1      -6.328  12.995  69.170  1.00  0.00    -0.105 A  
ENDBRANCH   7  14
ENDBRANCH   6   7
ENDBRANCH   5   6
ENDBRANCH   4   5
ENDBRANCH   2   4
TORSDOF 6
ENDMDL
MODEL      140
REMARK 921   NORMALIZED FREE ENERGY PREDICTED BY IDOCK:   -3.43 KCAL/MOL
REMARK 922        TOTAL FREE ENERGY PREDICTED BY IDOCK:   -5.54 KCAL/MOL
REMARK 923 INTER-LIGAND FREE ENERGY PREDICTED BY IDOCK:   -4.82 KCAL/MOL
REMARK 924 INTRA-LIGAND FREE ENERGY PREDICTED BY IDOCK:   -0.73 KCAL/MOL
REMARK 927      BINDING AFFINITY PREDICTED BY RF-SCORE:    0.00 PKD
ROOT
HETATM    1  C   UNL     1      -5.316   9.411  72.781  1.00  0.00    -0.049 C  
HETATM    2  N   UNL     1      -5.900   9.861  71.515  1.00  0.00    -0.259 NA 
HETATM    3  C   UNL     1      -5.192  11.056  71.047  1.00  0.00    -0.113 C  
ENDROOT
BRANCH   2   4
HETATM    4  C   UNL     1      -5.866   8.768  70.519  1.00  0.00    -0.028 C  
BRANCH   4   5
HETATM    5  C   UNL     1      -6.911   8.926  69.404  1.00  0.00    -0.053 C  
BRANCH   5   6
HETATM    6  O   UNL     1      -8.203   9.209  69.955  1.00  0.00    -0.112 OA 
BRANCH   6   7
HETATM    7  C   UNL     1      -9.250   8.510  69.250  1.00  0.00    -0.153 C  
BRANCH   7   8
HETATM    8  C   UNL     1     -10.470   8.291  70.139  1.00  0.00    -0.225 A  
HETATM    9  C   UNL     1     -11.174   7.077  70.083  1.00  0.00    -0.325 A  
HETATM   10  C   UNL     1     -10.899   9.276  71.042  1.00  0.00    -0.385 A  
HETATM   11  C   UNL     1     -12.286   6.864  70.901  1.00  0.00    -0.404 A  
HETATM   12  C   UNL     1     -12.013   9.061  71.854  1.00  0.00    -0.445 A  
HETATM   13  C   UNL     1     -12.708   7.857  71.783  1.00  0.00    -0.353 A  
ENDBRANCH   7   8
BRANCH   7  14
HETATM   14  C   UNL     1      -9.612   9.258  67.971  1.00  0.00    -0.161 A  
HETATM   15  C   UNL     1     -10.355  11.309  66.884  1.00  0.00    -0.272 A  
HETATM   16  C   UNL     1      -9.743   9.395  65.542  1.00  0.00    -0.300 A  
HETATM   17  C   UNL     1     -10.061  10.589  68.045  1.00  0.00    -0.190 A  
HETATM   18 BR   UNL     1     -10.582  11.685  64.068  1.00  0.00    -0.472 Br 
HETATM   19  C   UNL     1      -9.454   8.673  66.703  1.00  0.00    -0.267 A  
HETATM   20  C   UNL     1     -10.193  10.707  65.639  1.00  0.00    -0.253 A  
ENDBRANCH   7  14
ENDBRANCH   6   7
ENDBRANCH   5   6
ENDBRANCH   4   5
ENDBRANCH   2   4
TORSDOF 6
ENDMDL
MODEL      141
REMARK 921   NORMALIZED FREE ENERGY PREDICTED BY IDOCK:   -3.34 KCAL/MOL
REMARK 922        TOTAL FREE ENERGY PREDICTED BY IDOCK:   -5.43 KCAL/MOL
REMARK 923 INTER-LIGAND FREE ENERGY PREDICTED BY IDOCK:   -5.43 KCAL/MOL
REMARK 924 INTRA-LIGAND FREE ENERGY PREDICTED BY IDOCK:   -0.00 KCAL/MOL
REMARK 927      BINDING AFFINITY PREDICTED BY RF-SCORE:    0.00 PKD
ROOT
HETATM    1  C   UNL     1     -12.047  12.164  64.520  1.00  0.00    -0.334 C  
HETATM    2  N   UNL     1     -12.096  13.615  64.328  1.00  0.00    -0.483 NA 
HETATM    3  C   UNL     1     -13.147  14.185  65.177  1.00  0.00    -0.019 C  
ENDROOT
BRANCH   2   4
HETATM    4  C   UNL     1     -10.772  14.212  64.605  1.00  0.00    -0.389 C  
BRANCH   4   5
HETATM    5  C   UNL     1     -10.781  15.194  65.787  1.00  0.00    -0.351 C  
BRANCH   5   6
HETATM    6  O   UNL     1     -11.228  14.545  66.984  1.00  0.00    -0.315 OA 
BRANCH   6   7
HETATM    7  C   UNL     1     -10.340  14.797  68.092  1.00  0.00    -0.239 C  
BRANCH   7   8
HETATM    8  C   UNL     1     -11.083  14.751  69.424  1.00  0.00    -0.302 A  
HETATM    9  C   UNL     1     -10.777  15.676  70.435  1.00  0.00    -0.336 A  
HETATM   10  C   UNL     1     -12.098  13.810  69.658  1.00  0.00    -0.392 A  
HETATM   11  C   UNL     1     -11.461  15.647  71.653  1.00  0.00    -0.506 A  
HETATM   12  C   UNL     1     -12.775  13.780  70.878  1.00  0.00    -0.394 A  
HETATM   13  C   UNL     1     -12.456  14.697  71.876  1.00  0.00    -0.412 A  
ENDBRANCH   7   8
BRANCH   7  14
HETATM   14  C   UNL     1      -9.173  13.816  68.065  1.00  0.00    -0.195 A  
HETATM   15  C   UNL     1      -6.783  13.411  67.810  1.00  0.00    -0.163 A  
HETATM   16  C   UNL     1      -8.255  11.581  68.381  1.00  0.00    -0.152 A  
HETATM   17  C   UNL     1      -7.875  14.284  67.795  1.00  0.00    -0.173 A  
HETATM   18 BR   UNL     1      -5.503  10.885  68.132  1.00  0.00    -0.038 Br 
HETATM   19  C   UNL     1      -9.346  12.453  68.361  1.00  0.00    -0.158 A  
HETATM   20  C   UNL     1      -6.980  12.065  68.104  1.00  0.00    -0.079 A  
ENDBRANCH   7  14
ENDBRANCH   6   7
ENDBRANCH   5   6
ENDBRANCH   4   5
ENDBRANCH   2   4
TORSDOF 6
ENDMDL
MODEL      142
REMARK 921   NORMALIZED FREE ENERGY PREDICTED BY IDOCK:   -3.34 KCAL/MOL
REMARK 922        TOTAL FREE ENERGY PREDICTED BY IDOCK:   -5.43 KCAL/MOL
REMARK 923 INTER-LIGAND FREE ENERGY PREDICTED BY IDOCK:   -5.86 KCAL/MOL
REMARK 924 INTRA-LIGAND FREE ENERGY PREDICTED BY IDOCK:    0.42 KCAL/MOL
REMARK 927      BINDING AFFINITY PREDICTED BY RF-SCORE:    0.00 PKD
ROOT
HETATM    1  C   UNL     1      -5.263   8.379  70.047  1.00  0.00    -0.022 C  
HETATM    2  N   UNL     1      -6.429   9.074  69.497  1.00  0.00    -0.043 NA 
HETATM    3  C   UNL     1      -6.270   9.224  68.047  1.00  0.00    -0.050 C  
ENDROOT
BRANCH   2   4
HETATM    4  C   UNL     1      -7.669   8.349  69.849  1.00  0.00    -0.092 C  
BRANCH   4   5
HETATM    5  C   UNL     1      -8.788   9.269  70.363  1.00  0.00    -0.234 C  
BRANCH   5   6
HETATM    6  O   UNL     1      -9.851   9.359  69.407  1.00  0.00    -0.165 OA 
BRANCH   6   7
HETATM    7  C   UNL     1     -11.127   9.031  69.994  1.00  0.00    -0.182 C  
BRANCH   7   8
HETATM    8  C   UNL     1     -10.978   8.010  71.118  1.00  0.00    -0.271 A  
HETATM    9  C   UNL     1     -10.526   8.416  72.384  1.00  0.00    -0.402 A  
HETATM   10  C   UNL     1     -11.311   6.661  70.923  1.00  0.00    -0.377 A  
HETATM   11  C   UNL     1     -10.397   7.490  73.421  1.00  0.00    -0.405 A  
HETATM   12  C   UNL     1     -11.175   5.737  71.960  1.00  0.00    -0.307 A  
HETATM   13  C   UNL     1     -10.717   6.150  73.208  1.00  0.00    -0.282 A  
ENDBRANCH   7   8
BRANCH   7  14
HETATM   14  C   UNL     1     -11.826  10.299  70.474  1.00  0.00    -0.419 A  
HETATM   15  C   UNL     1     -13.367  11.382  72.020  1.00  0.00    -0.388 A  
HETATM   16  C   UNL     1     -12.144  12.714  70.415  1.00  0.00    -0.381 A  
HETATM   17  C   UNL     1     -12.749  10.228  71.532  1.00  0.00    -0.557 A  
HETATM   18 BR   UNL     1     -13.890  14.182  72.124  1.00  0.00    -0.662 Br 
HETATM   19  C   UNL     1     -11.531  11.559  69.925  1.00  0.00    -0.340 A  
HETATM   20  C   UNL     1     -13.060  12.619  71.459  1.00  0.00    -0.278 A  
ENDBRANCH   7  14
ENDBRANCH   6   7
ENDBRANCH   5   6
ENDBRANCH   4   5
ENDBRANCH   2   4
TORSDOF 6
ENDMDL
MODEL      143
REMARK 921   NORMALIZED FREE ENERGY PREDICTED BY IDOCK:   -3.32 KCAL/MOL
REMARK 922        TOTAL FREE ENERGY PREDICTED BY IDOCK:   -5.40 KCAL/MOL
REMARK 923 INTER-LIGAND FREE ENERGY PREDICTED BY IDOCK:   -4.80 KCAL/MOL
REMARK 924 INTRA-LIGAND FREE ENERGY PREDICTED BY IDOCK:   -0.60 KCAL/MOL
REMARK 927      BINDING AFFINITY PREDICTED BY RF-SCORE:    0.00 PKD
ROOT
HETATM    1  C   UNL     1      -8.791   5.185  65.104  1.00  0.00    -0.146 C  
HETATM    2  N   UNL     1      -7.761   5.408  66.121  1.00  0.00    -0.091 NA 
HETATM    3  C   UNL     1      -6.440   5.123  65.552  1.00  0.00    -0.036 C  
ENDROOT
BRANCH   2   4
HETATM    4  C   UNL     1      -7.854   6.786  66.649  1.00  0.00    -0.107 C  
BRANCH   4   5
HETATM    5  C   UNL     1      -8.466   7.781  65.650  1.00  0.00    -0.141 C  
BRANCH   5   6
HETATM    6  O   UNL     1      -9.713   8.290  66.140  1.00  0.00    -0.207 OA 
BRANCH   6   7
HETATM    7  C   UNL     1      -9.523   9.433  66.999  1.00  0.00    -0.155 C  
BRANCH   7   8
HETATM    8  C   UNL     1     -10.356  10.624  66.534  1.00  0.00    -0.299 A  
HETATM    9  C   UNL     1     -10.501  10.891  65.163  1.00  0.00    -0.316 A  
HETATM   10  C   UNL     1     -11.011  11.457  67.454  1.00  0.00    -0.326 A  
HETATM   11  C   UNL     1     -11.270  11.973  64.729  1.00  0.00    -0.373 A  
HETATM   12  C   UNL     1     -11.774  12.540  67.017  1.00  0.00    -0.437 A  
HETATM   13  C   UNL     1     -11.903  12.800  65.655  1.00  0.00    -0.472 A  
ENDBRANCH   7   8
BRANCH   7  14
HETATM   14  C   UNL     1      -9.831   9.061  68.445  1.00  0.00    -0.183 A  
HETATM   15  C   UNL     1     -11.015   7.643  70.035  1.00  0.00    -0.237 A  
HETATM   16  C   UNL     1      -9.435   9.286  70.838  1.00  0.00    -0.330 A  
HETATM   17  C   UNL     1     -10.751   8.033  68.719  1.00  0.00    -0.078 A  
HETATM   18 BR   UNL     1     -10.706   7.739  72.867  1.00  0.00    -0.446 Br 
HETATM   19  C   UNL     1      -9.175   9.679  69.524  1.00  0.00    -0.214 A  
HETATM   20  C   UNL     1     -10.355   8.272  71.087  1.00  0.00    -0.202 A  
ENDBRANCH   7  14
ENDBRANCH   6   7
ENDBRANCH   5   6
ENDBRANCH   4   5
ENDBRANCH   2   4
TORSDOF 6
ENDMDL
MODEL      144
REMARK 921   NORMALIZED FREE ENERGY PREDICTED BY IDOCK:   -3.31 KCAL/MOL
REMARK 922        TOTAL FREE ENERGY PREDICTED BY IDOCK:   -5.39 KCAL/MOL
REMARK 923 INTER-LIGAND FREE ENERGY PREDICTED BY IDOCK:   -4.57 KCAL/MOL
REMARK 924 INTRA-LIGAND FREE ENERGY PREDICTED BY IDOCK:   -0.82 KCAL/MOL
REMARK 927      BINDING AFFINITY PREDICTED BY RF-SCORE:    0.00 PKD
ROOT
HETATM    1  C   UNL     1     -13.340   8.918  72.408  1.00  0.00    -0.440 C  
HETATM    2  N   UNL     1     -12.932   9.786  71.301  1.00  0.00    -0.367 NA 
HETATM    3  C   UNL     1     -13.277  11.175  71.616  1.00  0.00    -0.345 C  
ENDROOT
BRANCH   2   4
HETATM    4  C   UNL     1     -11.489   9.619  71.025  1.00  0.00    -0.371 C  
BRANCH   4   5
HETATM    5  C   UNL     1     -10.928  10.672  70.056  1.00  0.00    -0.259 C  
BRANCH   5   6
HETATM    6  O   UNL     1      -9.837  10.134  69.298  1.00  0.00    -0.197 OA 
BRANCH   6   7
HETATM    7  C   UNL     1     -10.299   9.361  68.171  1.00  0.00    -0.211 C  
BRANCH   7   8
HETATM    8  C   UNL     1      -9.719   9.885  66.861  1.00  0.00    -0.236 A  
HETATM    9  C   UNL     1      -8.327   9.936  66.676  1.00  0.00    -0.125 A  
HETATM   10  C   UNL     1     -10.552  10.300  65.810  1.00  0.00    -0.064 A  
HETATM   11  C   UNL     1      -7.788  10.404  65.475  1.00  0.00    -0.152 A  
HETATM   12  C   UNL     1     -10.010  10.773  64.615  1.00  0.00    -0.386 A  
HETATM   13  C   UNL     1      -8.629  10.827  64.447  1.00  0.00    -0.042 A  
ENDBRANCH   7   8
BRANCH   7  14
HETATM   14  C   UNL     1      -9.977   7.885  68.379  1.00  0.00    -0.198 A  
HETATM   15  C   UNL     1      -8.672   6.166  69.510  1.00  0.00    -0.130 A  
HETATM   16  C   UNL     1     -10.439   5.525  67.991  1.00  0.00    -0.240 A  
HETATM   17  C   UNL     1      -8.954   7.513  69.269  1.00  0.00    -0.136 A  
HETATM   18 BR   UNL     1      -9.041   3.357  69.203  1.00  0.00    -0.222 Br 
HETATM   19  C   UNL     1     -10.717   6.871  67.746  1.00  0.00    -0.321 A  
HETATM   20  C   UNL     1      -9.417   5.179  68.870  1.00  0.00    -0.134 A  
ENDBRANCH   7  14
ENDBRANCH   6   7
ENDBRANCH   5   6
ENDBRANCH   4   5
ENDBRANCH   2   4
TORSDOF 6
ENDMDL
MODEL      145
REMARK 921   NORMALIZED FREE ENERGY PREDICTED BY IDOCK:   -3.31 KCAL/MOL
REMARK 922        TOTAL FREE ENERGY PREDICTED BY IDOCK:   -5.38 KCAL/MOL
REMARK 923 INTER-LIGAND FREE ENERGY PREDICTED BY IDOCK:   -4.73 KCAL/MOL
REMARK 924 INTRA-LIGAND FREE ENERGY PREDICTED BY IDOCK:   -0.65 KCAL/MOL
REMARK 927      BINDING AFFINITY PREDICTED BY RF-SCORE:    0.00 PKD
ROOT
HETATM    1  C   UNL     1      -7.449   9.707  64.598  1.00  0.00    -0.123 C  
HETATM    2  N   UNL     1      -6.679   9.677  65.843  1.00  0.00    -0.082 NA 
HETATM    3  C   UNL     1      -6.550  11.038  66.373  1.00  0.00    -0.126 C  
ENDROOT
BRANCH   2   4
HETATM    4  C   UNL     1      -7.314   8.760  66.814  1.00  0.00    -0.082 C  
BRANCH   4   5
HETATM    5  C   UNL     1      -8.798   9.072  67.067  1.00  0.00    -0.119 C  
BRANCH   5   6
HETATM    6  O   UNL     1      -8.996   9.548  68.404  1.00  0.00    -0.127 OA 
BRANCH   6   7
HETATM    7  C   UNL     1     -10.324   9.255  68.884  1.00  0.00    -0.214 C  
BRANCH   7   8
HETATM    8  C   UNL     1     -10.312   8.115  69.898  1.00  0.00    -0.214 A  
HETATM    9  C   UNL     1     -11.138   6.995  69.711  1.00  0.00    -0.278 A  
HETATM   10  C   UNL     1      -9.464   8.146  71.017  1.00  0.00    -0.185 A  
HETATM   11  C   UNL     1     -11.125   5.943  70.630  1.00  0.00    -0.335 A  
HETATM   12  C   UNL     1      -9.458   7.096  71.935  1.00  0.00    -0.157 A  
HETATM   13  C   UNL     1     -10.288   5.995  71.743  1.00  0.00    -0.259 A  
ENDBRANCH   7   8
BRANCH   7  14
HETATM   14  C   UNL     1     -10.965  10.514  69.459  1.00  0.00    -0.312 A  
HETATM   15  C   UNL     1     -11.498  12.881  69.236  1.00  0.00    -0.341 A  
HETATM   16  C   UNL     1     -12.318  11.642  71.142  1.00  0.00    -0.351 A  
HETATM   17  C   UNL     1     -10.880  11.725  68.751  1.00  0.00    -0.268 A  
HETATM   18 BR   UNL     1     -13.058  14.394  71.080  1.00  0.00    -0.415 Br 
HETATM   19  C   UNL     1     -11.695  10.488  70.660  1.00  0.00    -0.453 A  
HETATM   20  C   UNL     1     -12.214  12.832  70.429  1.00  0.00    -0.293 A  
ENDBRANCH   7  14
ENDBRANCH   6   7
ENDBRANCH   5   6
ENDBRANCH   4   5
ENDBRANCH   2   4
TORSDOF 6
ENDMDL
MODEL      146
REMARK 921   NORMALIZED FREE ENERGY PREDICTED BY IDOCK:   -3.26 KCAL/MOL
REMARK 922        TOTAL FREE ENERGY PREDICTED BY IDOCK:   -5.32 KCAL/MOL
REMARK 923 INTER-LIGAND FREE ENERGY PREDICTED BY IDOCK:   -4.36 KCAL/MOL
REMARK 924 INTRA-LIGAND FREE ENERGY PREDICTED BY IDOCK:   -0.96 KCAL/MOL
REMARK 927      BINDING AFFINITY PREDICTED BY RF-SCORE:    0.00 PKD
ROOT
HETATM    1  C   UNL     1     -11.881  12.555  68.577  1.00  0.00    -0.295 C  
HETATM    2  N   UNL     1     -12.406  13.795  69.153  1.00  0.00    -0.228 NA 
HETATM    3  C   UNL     1     -12.390  13.700  70.615  1.00  0.00    -0.368 C  
ENDROOT
BRANCH   2   4
HETATM    4  C   UNL     1     -11.631  14.954  68.661  1.00  0.00    -0.318 C  
BRANCH   4   5
HETATM    5  C   UNL     1     -10.920  15.731  69.781  1.00  0.00    -0.316 C  
BRANCH   5   6
HETATM    6  O   UNL     1      -9.502  15.532  69.716  1.00  0.00    -0.285 OA 
BRANCH   6   7
HETATM    7  C   UNL     1      -9.049  15.353  68.359  1.00  0.00    -0.191 C  
BRANCH   7   8
HETATM    8  C   UNL     1      -8.252  16.561  67.874  1.00  0.00    -0.172 A  
HETATM    9  C   UNL     1      -7.901  16.676  66.519  1.00  0.00    -0.342 A  
HETATM   10  C   UNL     1      -7.878  17.587  68.756  1.00  0.00    -0.242 A  
HETATM   11  C   UNL     1      -7.181  17.784  66.065  1.00  0.00    -0.322 A  
HETATM   12  C   UNL     1      -7.154  18.689  68.300  1.00  0.00    -0.271 A  
HETATM   13  C   UNL     1      -6.803  18.788  66.956  1.00  0.00    -0.211 A  
ENDBRANCH   7   8
BRANCH   7  14
HETATM   14  C   UNL     1      -8.245  14.063  68.238  1.00  0.00    -0.153 A  
HETATM   15  C   UNL     1      -6.334  12.716  68.925  1.00  0.00    -0.086 A  
HETATM   16  C   UNL     1      -7.957  11.799  67.386  1.00  0.00    -0.155 A  
HETATM   17  C   UNL     1      -7.063  13.906  68.984  1.00  0.00    -0.098 A  
HETATM   18 BR   UNL     1      -5.805  10.054  68.054  1.00  0.00    -0.038 Br 
HETATM   19  C   UNL     1      -8.683  12.991  67.441  1.00  0.00    -0.205 A  
HETATM   20  C   UNL     1      -6.787  11.668  68.127  1.00  0.00    -0.068 A  
ENDBRANCH   7  14
ENDBRANCH   6   7
ENDBRANCH   5   6
ENDBRANCH   4   5
ENDBRANCH   2   4
TORSDOF 6
ENDMDL
MODEL      147
REMARK 921   NORMALIZED FREE ENERGY PREDICTED BY IDOCK:   -3.26 KCAL/MOL
REMARK 922        TOTAL FREE ENERGY PREDICTED BY IDOCK:   -5.32 KCAL/MOL
REMARK 923 INTER-LIGAND FREE ENERGY PREDICTED BY IDOCK:   -4.56 KCAL/MOL
REMARK 924 INTRA-LIGAND FREE ENERGY PREDICTED BY IDOCK:   -0.75 KCAL/MOL
REMARK 927      BINDING AFFINITY PREDICTED BY RF-SCORE:    0.00 PKD
ROOT
HETATM    1  C   UNL     1     -11.668  12.336  69.727  1.00  0.00    -0.298 C  
HETATM    2  N   UNL     1     -11.485  10.935  70.112  1.00  0.00    -0.313 NA 
HETATM    3  C   UNL     1     -12.707  10.441  70.755  1.00  0.00    -0.371 C  
ENDROOT
BRANCH   2   4
HETATM    4  C   UNL     1     -11.111  10.125  68.933  1.00  0.00    -0.207 C  
BRANCH   4   5
HETATM    5  C   UNL     1      -9.605  10.157  68.625  1.00  0.00    -0.163 C  
BRANCH   5   6
HETATM    6  O   UNL     1      -9.025   8.857  68.790  1.00  0.00    -0.133 OA 
BRANCH   6   7
HETATM    7  C   UNL     1     -10.031   7.824  68.830  1.00  0.00    -0.176 C  
BRANCH   7   8
HETATM    8  C   UNL     1      -9.824   6.801  67.717  1.00  0.00    -0.148 A  
HETATM    9  C   UNL     1      -8.529   6.512  67.257  1.00  0.00    -0.112 A  
HETATM   10  C   UNL     1     -10.908   6.112  67.151  1.00  0.00    -0.442 A  
HETATM   11  C   UNL     1      -8.329   5.569  66.246  1.00  0.00    -0.112 A  
HETATM   12  C   UNL     1     -10.705   5.175  66.137  1.00  0.00    -0.247 A  
HETATM   13  C   UNL     1      -9.417   4.905  65.683  1.00  0.00    -0.168 A  
ENDBRANCH   7   8
BRANCH   7  14
HETATM   14  C   UNL     1     -10.053   7.164  70.204  1.00  0.00    -0.195 A  
HETATM   15  C   UNL     1      -9.087   6.929  72.429  1.00  0.00    -0.144 A  
HETATM   16  C   UNL     1     -11.105   5.724  71.865  1.00  0.00    -0.308 A  
HETATM   17  C   UNL     1      -9.062   7.486  71.148  1.00  0.00    -0.149 A  
HETATM   18 BR   UNL     1     -10.149   5.304  74.517  1.00  0.00    -0.302 Br 
HETATM   19  C   UNL     1     -11.076   6.277  70.582  1.00  0.00    -0.389 A  
HETATM   20  C   UNL     1     -10.110   6.052  72.780  1.00  0.00    -0.183 A  
ENDBRANCH   7  14
ENDBRANCH   6   7
ENDBRANCH   5   6
ENDBRANCH   4   5
ENDBRANCH   2   4
TORSDOF 6
ENDMDL
MODEL      148
REMARK 921   NORMALIZED FREE ENERGY PREDICTED BY IDOCK:   -3.25 KCAL/MOL
REMARK 922        TOTAL FREE ENERGY PREDICTED BY IDOCK:   -5.31 KCAL/MOL
REMARK 923 INTER-LIGAND FREE ENERGY PREDICTED BY IDOCK:   -4.30 KCAL/MOL
REMARK 924 INTRA-LIGAND FREE ENERGY PREDICTED BY IDOCK:   -1.01 KCAL/MOL
REMARK 927      BINDING AFFINITY PREDICTED BY RF-SCORE:    0.00 PKD
ROOT
HETATM    1  C   UNL     1     -11.243  10.630  67.709  1.00  0.00    -0.313 C  
HETATM    2  N   UNL     1     -10.159   9.723  67.325  1.00  0.00    -0.194 NA 
HETATM    3  C   UNL     1      -9.933   9.814  65.880  1.00  0.00    -0.275 C  
ENDROOT
BRANCH   2   4
HETATM    4  C   UNL     1      -8.937  10.031  68.100  1.00  0.00    -0.122 C  
BRANCH   4   5
HETATM    5  C   UNL     1      -8.521   8.902  69.056  1.00  0.00    -0.133 C  
BRANCH   5   6
HETATM    6  O   UNL     1      -9.650   8.094  69.410  1.00  0.00    -0.165 OA 
BRANCH   6   7
HETATM    7  C   UNL     1      -9.278   6.714  69.610  1.00  0.00    -0.145 C  
BRANCH   7   8
HETATM    8  C   UNL     1     -10.028   6.101  70.789  1.00  0.00    -0.229 A  
HETATM    9  C   UNL     1      -9.467   5.027  71.499  1.00  0.00    -0.203 A  
HETATM   10  C   UNL     1     -11.270   6.606  71.204  1.00  0.00    -0.340 A  
HETATM   11  C   UNL     1     -10.142   4.466  72.586  1.00  0.00    -0.229 A  
HETATM   12  C   UNL     1     -11.944   6.040  72.287  1.00  0.00    -0.259 A  
HETATM   13  C   UNL     1     -11.381   4.969  72.977  1.00  0.00    -0.374 A  
ENDBRANCH   7   8
BRANCH   7  14
HETATM   14  C   UNL     1      -9.498   5.919  68.328  1.00  0.00    -0.123 A  
HETATM   15  C   UNL     1     -10.837   5.481  66.340  1.00  0.00    -0.195 A  
HETATM   16  C   UNL     1      -8.754   4.300  66.666  1.00  0.00    -0.113 A  
HETATM   17  C   UNL     1     -10.638   6.164  67.543  1.00  0.00    -0.344 A  
HETATM   18 BR   UNL     1     -10.158   3.634  64.278  1.00  0.00    -0.214 Br 
HETATM   19  C   UNL     1      -8.557   4.979  67.871  1.00  0.00    -0.103 A  
HETATM   20  C   UNL     1      -9.893   4.553  65.909  1.00  0.00    -0.226 A  
ENDBRANCH   7  14
ENDBRANCH   6   7
ENDBRANCH   5   6
ENDBRANCH   4   5
ENDBRANCH   2   4
TORSDOF 6
ENDMDL
MODEL      149
REMARK 921   NORMALIZED FREE ENERGY PREDICTED BY IDOCK:   -3.22 KCAL/MOL
REMARK 922        TOTAL FREE ENERGY PREDICTED BY IDOCK:   -5.26 KCAL/MOL
REMARK 923 INTER-LIGAND FREE ENERGY PREDICTED BY IDOCK:   -4.49 KCAL/MOL
REMARK 924 INTRA-LIGAND FREE ENERGY PREDICTED BY IDOCK:   -0.77 KCAL/MOL
REMARK 927      BINDING AFFINITY PREDICTED BY RF-SCORE:    0.00 PKD
ROOT
HETATM    1  C   UNL     1      -9.252   8.202  72.838  1.00  0.00    -0.273 C  
HETATM    2  N   UNL     1      -7.828   8.534  72.919  1.00  0.00    -0.364 NA 
HETATM    3  C   UNL     1      -7.121   7.482  73.656  1.00  0.00    -0.087 C  
ENDROOT
BRANCH   2   4
HETATM    4  C   UNL     1      -7.271   8.734  71.564  1.00  0.00    -0.088 C  
BRANCH   4   5
HETATM    5  C   UNL     1      -8.302   9.263  70.554  1.00  0.00    -0.205 C  
BRANCH   5   6
HETATM    6  O   UNL     1      -8.269   8.497  69.344  1.00  0.00    -0.110 OA 
BRANCH   6   7
HETATM    7  C   UNL     1      -9.594   8.246  68.833  1.00  0.00    -0.153 C  
BRANCH   7   8
HETATM    8  C   UNL     1     -10.201   9.503  68.218  1.00  0.00    -0.225 A  
HETATM    9  C   UNL     1     -11.155  10.248  68.931  1.00  0.00    -0.278 A  
HETATM   10  C   UNL     1      -9.807   9.955  66.949  1.00  0.00    -0.252 A  
HETATM   11  C   UNL     1     -11.707  11.406  68.380  1.00  0.00    -0.373 A  
HETATM   12  C   UNL     1     -10.366  11.109  66.398  1.00  0.00    -0.300 A  
HETATM   13  C   UNL     1     -11.317  11.834  67.112  1.00  0.00    -0.387 A  
ENDBRANCH   7   8
BRANCH   7  14
HETATM   14  C   UNL     1      -9.564   7.090  67.839  1.00  0.00    -0.133 A  
HETATM   15  C   UNL     1      -8.276   5.524  66.489  1.00  0.00    -0.105 A  
HETATM   16  C   UNL     1     -10.686   5.354  66.550  1.00  0.00    -0.309 A  
HETATM   17  C   UNL     1      -8.330   6.611  67.365  1.00  0.00    -0.121 A  
HETATM   18 BR   UNL     1      -9.380   3.424  64.908  1.00  0.00    -0.153 Br 
HETATM   19  C   UNL     1     -10.741   6.444  67.421  1.00  0.00    -0.411 A  
HETATM   20  C   UNL     1      -9.455   4.901  66.087  1.00  0.00    -0.161 A  
ENDBRANCH   7  14
ENDBRANCH   6   7
ENDBRANCH   5   6
ENDBRANCH   4   5
ENDBRANCH   2   4
TORSDOF 6
ENDMDL
MODEL      150
REMARK 921   NORMALIZED FREE ENERGY PREDICTED BY IDOCK:   -3.21 KCAL/MOL
REMARK 922        TOTAL FREE ENERGY PREDICTED BY IDOCK:   -5.25 KCAL/MOL
REMARK 923 INTER-LIGAND FREE ENERGY PREDICTED BY IDOCK:   -5.28 KCAL/MOL
REMARK 924 INTRA-LIGAND FREE ENERGY PREDICTED BY IDOCK:    0.03 KCAL/MOL
REMARK 927      BINDING AFFINITY PREDICTED BY RF-SCORE:    0.00 PKD
ROOT
HETATM    1  C   UNL     1      -6.829  10.181  70.438  1.00  0.00    -0.124 C  
HETATM    2  N   UNL     1      -7.768  10.569  69.383  1.00  0.00    -0.154 NA 
HETATM    3  C   UNL     1      -7.136  10.385  68.073  1.00  0.00    -0.082 C  
ENDROOT
BRANCH   2   4
HETATM    4  C   UNL     1      -9.023   9.797  69.508  1.00  0.00    -0.204 C  
BRANCH   4   5
HETATM    5  C   UNL     1     -10.259  10.678  69.755  1.00  0.00    -0.052 C  
BRANCH   5   6
HETATM    6  O   UNL     1     -11.300  10.366  68.822  1.00  0.00    -0.250 OA 
BRANCH   6   7
HETATM    7  C   UNL     1     -11.616  11.492  67.978  1.00  0.00    -0.300 C  
BRANCH   7   8
HETATM    8  C   UNL     1     -11.201  12.809  68.627  1.00  0.00    -0.322 A  
HETATM    9  C   UNL     1     -12.031  13.416  69.583  1.00  0.00    -0.386 A  
HETATM   10  C   UNL     1      -9.982  13.426  68.307  1.00  0.00    -0.240 A  
HETATM   11  C   UNL     1     -11.654  14.616  70.191  1.00  0.00    -0.336 A  
HETATM   12  C   UNL     1      -9.611  14.628  68.911  1.00  0.00    -0.184 A  
HETATM   13  C   UNL     1     -10.447  15.224  69.851  1.00  0.00    -0.277 A  
ENDBRANCH   7   8
BRANCH   7  14
HETATM   14  C   UNL     1     -10.976  11.316  66.605  1.00  0.00    -0.326 A  
HETATM   15  C   UNL     1      -9.663   9.956  65.067  1.00  0.00    -0.359 A  
HETATM   16  C   UNL     1     -10.615  12.044  64.308  1.00  0.00    -0.377 A  
HETATM   17  C   UNL     1     -10.221  10.162  66.332  1.00  0.00    -0.288 A  
HETATM   18 BR   UNL     1      -9.118  10.616  62.348  1.00  0.00    -0.325 Br 
HETATM   19  C   UNL     1     -11.168  12.252  65.574  1.00  0.00    -0.376 A  
HETATM   20  C   UNL     1      -9.865  10.899  64.062  1.00  0.00    -0.322 A  
ENDBRANCH   7  14
ENDBRANCH   6   7
ENDBRANCH   5   6
ENDBRANCH   4   5
ENDBRANCH   2   4
TORSDOF 6
ENDMDL
MODEL      151
REMARK 921   NORMALIZED FREE ENERGY PREDICTED BY IDOCK:   -3.21 KCAL/MOL
REMARK 922        TOTAL FREE ENERGY PREDICTED BY IDOCK:   -5.25 KCAL/MOL
REMARK 923 INTER-LIGAND FREE ENERGY PREDICTED BY IDOCK:   -5.94 KCAL/MOL
REMARK 924 INTRA-LIGAND FREE ENERGY PREDICTED BY IDOCK:    0.69 KCAL/MOL
REMARK 927      BINDING AFFINITY PREDICTED BY RF-SCORE:    0.00 PKD
ROOT
HETATM    1  C   UNL     1     -10.992  15.836  68.152  1.00  0.00    -0.330 C  
HETATM    2  N   UNL     1      -9.579  15.986  67.797  1.00  0.00    -0.218 NA 
HETATM    3  C   UNL     1      -8.747  15.695  68.968  1.00  0.00    -0.240 C  
ENDROOT
BRANCH   2   4
HETATM    4  C   UNL     1      -9.247  15.117  66.647  1.00  0.00    -0.270 C  
BRANCH   4   5
HETATM    5  C   UNL     1      -9.772  13.680  66.797  1.00  0.00    -0.275 C  
BRANCH   5   6
HETATM    6  O   UNL     1     -10.883  13.452  65.921  1.00  0.00    -0.273 OA 
BRANCH   6   7
HETATM    7  C   UNL     1     -11.182  12.046  65.792  1.00  0.00    -0.334 C  
BRANCH   7   8
HETATM    8  C   UNL     1     -10.196  11.351  64.858  1.00  0.00    -0.330 A  
HETATM    9  C   UNL     1     -10.492  11.221  63.491  1.00  0.00    -0.457 A  
HETATM   10  C   UNL     1      -8.973  10.852  65.332  1.00  0.00    -0.209 A  
HETATM   11  C   UNL     1      -9.590  10.596  62.627  1.00  0.00    -0.293 A  
HETATM   12  C   UNL     1      -8.077  10.222  64.467  1.00  0.00    -0.150 A  
HETATM   13  C   UNL     1      -8.386  10.092  63.115  1.00  0.00    -0.171 A  
ENDBRANCH   7   8
BRANCH   7  14
HETATM   14  C   UNL     1     -11.215  11.387  67.167  1.00  0.00    -0.363 A  
HETATM   15  C   UNL     1     -11.858  11.476  69.516  1.00  0.00    -0.419 A  
HETATM   16  C   UNL     1     -10.839   9.473  68.626  1.00  0.00    -0.177 A  
HETATM   17  C   UNL     1     -11.775  12.077  68.257  1.00  0.00    -0.396 A  
HETATM   18 BR   UNL     1     -11.510   9.360  71.394  1.00  0.00    -0.469 Br 
HETATM   19  C   UNL     1     -10.751  10.076  67.369  1.00  0.00    -0.336 A  
HETATM   20  C   UNL     1     -11.390  10.176  69.692  1.00  0.00    -0.235 A  
ENDBRANCH   7  14
ENDBRANCH   6   7
ENDBRANCH   5   6
ENDBRANCH   4   5
ENDBRANCH   2   4
TORSDOF 6
ENDMDL
MODEL      152
REMARK 921   NORMALIZED FREE ENERGY PREDICTED BY IDOCK:   -3.19 KCAL/MOL
REMARK 922        TOTAL FREE ENERGY PREDICTED BY IDOCK:   -5.23 KCAL/MOL
REMARK 923 INTER-LIGAND FREE ENERGY PREDICTED BY IDOCK:   -4.52 KCAL/MOL
REMARK 924 INTRA-LIGAND FREE ENERGY PREDICTED BY IDOCK:   -0.71 KCAL/MOL
REMARK 927      BINDING AFFINITY PREDICTED BY RF-SCORE:    0.00 PKD
ROOT
HETATM    1  C   UNL     1     -13.085   8.748  72.413  1.00  0.00    -0.391 C  
HETATM    2  N   UNL     1     -12.780   9.462  71.171  1.00  0.00    -0.299 NA 
HETATM    3  C   UNL     1     -13.022  10.895  71.358  1.00  0.00    -0.424 C  
ENDROOT
BRANCH   2   4
HETATM    4  C   UNL     1     -11.391   9.182  70.749  1.00  0.00    -0.280 C  
BRANCH   4   5
HETATM    5  C   UNL     1     -10.689  10.396  70.119  1.00  0.00    -0.233 C  
BRANCH   5   6
HETATM    6  O   UNL     1      -9.837   9.989  69.042  1.00  0.00    -0.179 OA 
BRANCH   6   7
HETATM    7  C   UNL     1      -9.028  11.081  68.558  1.00  0.00    -0.163 C  
BRANCH   7   8
HETATM    8  C   UNL     1      -7.703  10.583  67.988  1.00  0.00    -0.092 A  
HETATM    9  C   UNL     1      -7.683   9.508  67.085  1.00  0.00    -0.091 A  
HETATM   10  C   UNL     1      -6.488  11.197  68.330  1.00  0.00    -0.057 A  
HETATM   11  C   UNL     1      -6.475   9.053  66.551  1.00  0.00    -0.067 A  
HETATM   12  C   UNL     1      -5.283  10.736  67.799  1.00  0.00    -0.039 A  
HETATM   13  C   UNL     1      -5.275   9.664  66.911  1.00  0.00    -0.041 A  
ENDBRANCH   7   8
BRANCH   7  14
HETATM   14  C   UNL     1      -9.808  11.899  67.534  1.00  0.00    -0.194 A  
HETATM   15  C   UNL     1     -10.081  13.969  66.278  1.00  0.00    -0.307 A  
HETATM   16  C   UNL     1     -11.556  12.103  65.849  1.00  0.00    -0.425 A  
HETATM   17  C   UNL     1      -9.410  13.216  67.245  1.00  0.00    -0.225 A  
HETATM   18 BR   UNL     1     -12.053  14.423  64.270  1.00  0.00    -0.385 Br 
HETATM   19  C   UNL     1     -10.889  11.352  66.820  1.00  0.00    -0.336 A  
HETATM   20  C   UNL     1     -11.150  13.407  65.585  1.00  0.00    -0.285 A  
ENDBRANCH   7  14
ENDBRANCH   6   7
ENDBRANCH   5   6
ENDBRANCH   4   5
ENDBRANCH   2   4
TORSDOF 6
ENDMDL
MODEL      153
REMARK 921   NORMALIZED FREE ENERGY PREDICTED BY IDOCK:   -3.19 KCAL/MOL
REMARK 922        TOTAL FREE ENERGY PREDICTED BY IDOCK:   -5.22 KCAL/MOL
REMARK 923 INTER-LIGAND FREE ENERGY PREDICTED BY IDOCK:   -4.32 KCAL/MOL
REMARK 924 INTRA-LIGAND FREE ENERGY PREDICTED BY IDOCK:   -0.90 KCAL/MOL
REMARK 927      BINDING AFFINITY PREDICTED BY RF-SCORE:    0.00 PKD
ROOT
HETATM    1  C   UNL     1     -11.388  11.554  66.966  1.00  0.00    -0.269 C  
HETATM    2  N   UNL     1     -10.024  11.078  66.726  1.00  0.00    -0.197 NA 
HETATM    3  C   UNL     1      -9.697  11.226  65.305  1.00  0.00    -0.239 C  
ENDROOT
BRANCH   2   4
HETATM    4  C   UNL     1      -9.071  11.802  67.595  1.00  0.00    -0.177 C  
BRANCH   4   5
HETATM    5  C   UNL     1      -8.412  10.906  68.656  1.00  0.00    -0.152 C  
BRANCH   5   6
HETATM    6  O   UNL     1      -9.389  10.078  69.299  1.00  0.00    -0.188 OA 
BRANCH   6   7
HETATM    7  C   UNL     1      -8.818   8.833  69.754  1.00  0.00    -0.142 C  
BRANCH   7   8
HETATM    8  C   UNL     1      -9.406   8.408  71.096  1.00  0.00    -0.223 A  
HETATM    9  C   UNL     1     -10.787   8.518  71.327  1.00  0.00    -0.312 A  
HETATM   10  C   UNL     1      -8.594   7.879  72.111  1.00  0.00    -0.185 A  
HETATM   11  C   UNL     1     -11.335   8.121  72.549  1.00  0.00    -0.469 A  
HETATM   12  C   UNL     1      -9.144   7.489  73.333  1.00  0.00    -0.264 A  
HETATM   13  C   UNL     1     -10.513   7.611  73.553  1.00  0.00    -0.284 A  
ENDBRANCH   7   8
BRANCH   7  14
HETATM   14  C   UNL     1      -8.999   7.753  68.693  1.00  0.00    -0.133 A  
HETATM   15  C   UNL     1     -10.290   6.830  66.844  1.00  0.00    -0.324 A  
HETATM   16  C   UNL     1      -8.196   5.802  67.474  1.00  0.00    -0.101 A  
HETATM   17  C   UNL     1     -10.126   7.783  67.853  1.00  0.00    -0.232 A  
HETATM   18 BR   UNL     1      -9.540   4.562  65.289  1.00  0.00    -0.168 Br 
HETATM   19  C   UNL     1      -8.035   6.751  68.487  1.00  0.00    -0.119 A  
HETATM   20  C   UNL     1      -9.323   5.846  66.660  1.00  0.00    -0.145 A  
ENDBRANCH   7  14
ENDBRANCH   6   7
ENDBRANCH   5   6
ENDBRANCH   4   5
ENDBRANCH   2   4
TORSDOF 6
ENDMDL
MODEL      154
REMARK 921   NORMALIZED FREE ENERGY PREDICTED BY IDOCK:   -3.17 KCAL/MOL
REMARK 922        TOTAL FREE ENERGY PREDICTED BY IDOCK:   -5.20 KCAL/MOL
REMARK 923 INTER-LIGAND FREE ENERGY PREDICTED BY IDOCK:   -4.32 KCAL/MOL
REMARK 924 INTRA-LIGAND FREE ENERGY PREDICTED BY IDOCK:   -0.88 KCAL/MOL
REMARK 927      BINDING AFFINITY PREDICTED BY RF-SCORE:    0.00 PKD
ROOT
HETATM    1  C   UNL     1     -11.942  12.172  69.973  1.00  0.00    -0.315 C  
HETATM    2  N   UNL     1     -11.458  10.911  70.541  1.00  0.00    -0.291 NA 
HETATM    3  C   UNL     1     -12.564  10.217  71.205  1.00  0.00    -0.386 C  
ENDROOT
BRANCH   2   4
HETATM    4  C   UNL     1     -10.833  10.083  69.487  1.00  0.00    -0.253 C  
BRANCH   4   5
HETATM    5  C   UNL     1      -9.442  10.583  69.064  1.00  0.00    -0.201 C  
BRANCH   5   6
HETATM    6  O   UNL     1      -8.707   9.544  68.406  1.00  0.00    -0.123 OA 
BRANCH   6   7
HETATM    7  C   UNL     1      -9.464   8.953  67.329  1.00  0.00    -0.154 C  
BRANCH   7   8
HETATM    8  C   UNL     1      -8.949   9.412  65.968  1.00  0.00    -0.205 A  
HETATM    9  C   UNL     1      -9.783  10.144  65.108  1.00  0.00    -0.370 A  
HETATM   10  C   UNL     1      -7.634   9.140  65.559  1.00  0.00    -0.090 A  
HETATM   11  C   UNL     1      -9.316  10.577  63.865  1.00  0.00    -0.314 A  
HETATM   12  C   UNL     1      -7.172   9.569  64.314  1.00  0.00    -0.115 A  
HETATM   13  C   UNL     1      -8.012  10.285  63.466  1.00  0.00    -0.143 A  
ENDBRANCH   7   8
BRANCH   7  14
HETATM   14  C   UNL     1      -9.454   7.434  67.452  1.00  0.00    -0.170 A  
HETATM   15  C   UNL     1     -10.471   5.284  66.919  1.00  0.00    -0.313 A  
HETATM   16  C   UNL     1      -8.392   5.355  68.150  1.00  0.00    -0.098 A  
HETATM   17  C   UNL     1     -10.483   6.680  66.859  1.00  0.00    -0.349 A  
HETATM   18 BR   UNL     1      -9.403   2.740  67.637  1.00  0.00    -0.163 Br 
HETATM   19  C   UNL     1      -8.407   6.751  68.095  1.00  0.00    -0.118 A  
HETATM   20  C   UNL     1      -9.424   4.630  67.563  1.00  0.00    -0.153 A  
ENDBRANCH   7  14
ENDBRANCH   6   7
ENDBRANCH   5   6
ENDBRANCH   4   5
ENDBRANCH   2   4
TORSDOF 6
ENDMDL
MODEL      155
REMARK 921   NORMALIZED FREE ENERGY PREDICTED BY IDOCK:   -3.17 KCAL/MOL
REMARK 922        TOTAL FREE ENERGY PREDICTED BY IDOCK:   -5.20 KCAL/MOL
REMARK 923 INTER-LIGAND FREE ENERGY PREDICTED BY IDOCK:   -5.08 KCAL/MOL
REMARK 924 INTRA-LIGAND FREE ENERGY PREDICTED BY IDOCK:   -0.11 KCAL/MOL
REMARK 927      BINDING AFFINITY PREDICTED BY RF-SCORE:    0.00 PKD
ROOT
HETATM    1  C   UNL     1     -10.726  11.590  68.246  1.00  0.00    -0.211 C  
HETATM    2  N   UNL     1      -9.734  10.583  67.863  1.00  0.00    -0.152 NA 
HETATM    3  C   UNL     1      -8.957  11.071  66.720  1.00  0.00    -0.157 C  
ENDROOT
BRANCH   2   4
HETATM    4  C   UNL     1      -8.874  10.247  69.018  1.00  0.00    -0.168 C  
BRANCH   4   5
HETATM    5  C   UNL     1      -8.834   8.742  69.331  1.00  0.00    -0.143 C  
BRANCH   5   6
HETATM    6  O   UNL     1      -9.256   8.492  70.677  1.00  0.00    -0.148 OA 
BRANCH   6   7
HETATM    7  C   UNL     1     -10.209   7.412  70.747  1.00  0.00    -0.197 C  
BRANCH   7   8
HETATM    8  C   UNL     1     -11.571   7.900  71.232  1.00  0.00    -0.304 A  
HETATM    9  C   UNL     1     -11.804   9.273  71.414  1.00  0.00    -0.428 A  
HETATM   10  C   UNL     1     -12.621   7.001  71.479  1.00  0.00    -0.426 A  
HETATM   11  C   UNL     1     -13.051   9.729  71.847  1.00  0.00    -0.544 A  
HETATM   12  C   UNL     1     -13.863   7.460  71.917  1.00  0.00    -0.352 A  
HETATM   13  C   UNL     1     -14.079   8.823  72.103  1.00  0.00    -0.519 A  
ENDBRANCH   7   8
BRANCH   7  14
HETATM   14  C   UNL     1     -10.311   6.712  69.396  1.00  0.00    -0.228 A  
HETATM   15  C   UNL     1      -9.861   4.758  68.011  1.00  0.00    -0.185 A  
HETATM   16  C   UNL     1     -11.138   6.600  67.107  1.00  0.00    -0.427 A  
HETATM   17  C   UNL     1      -9.741   5.438  69.226  1.00  0.00    -0.224 A  
HETATM   18 BR   UNL     1     -10.729   4.420  65.317  1.00  0.00    -0.001 Br 
HETATM   19  C   UNL     1     -11.013   7.281  68.320  1.00  0.00    -0.041 A  
HETATM   20  C   UNL     1     -10.560   5.343  66.959  1.00  0.00    -0.226 A  
ENDBRANCH   7  14
ENDBRANCH   6   7
ENDBRANCH   5   6
ENDBRANCH   4   5
ENDBRANCH   2   4
TORSDOF 6
ENDMDL
MODEL      156
REMARK 921   NORMALIZED FREE ENERGY PREDICTED BY IDOCK:   -3.16 KCAL/MOL
REMARK 922        TOTAL FREE ENERGY PREDICTED BY IDOCK:   -5.18 KCAL/MOL
REMARK 923 INTER-LIGAND FREE ENERGY PREDICTED BY IDOCK:   -4.15 KCAL/MOL
REMARK 924 INTRA-LIGAND FREE ENERGY PREDICTED BY IDOCK:   -1.03 KCAL/MOL
REMARK 927      BINDING AFFINITY PREDICTED BY RF-SCORE:    0.00 PKD
ROOT
HETATM    1  C   UNL     1      -9.156   5.102  74.472  1.00  0.00    -0.114 C  
HETATM    2  N   UNL     1      -8.711   4.959  73.084  1.00  0.00    -0.109 NA 
HETATM    3  C   UNL     1      -7.258   5.145  73.013  1.00  0.00    -0.090 C  
ENDROOT
BRANCH   2   4
HETATM    4  C   UNL     1      -9.131   3.648  72.545  1.00  0.00    -0.104 C  
BRANCH   4   5
HETATM    5  C   UNL     1      -8.927   3.518  71.027  1.00  0.00    -0.094 C  
BRANCH   5   6
HETATM    6  O   UNL     1      -9.953   4.222  70.315  1.00  0.00    -0.210 OA 
BRANCH   6   7
HETATM    7  C   UNL     1      -9.461   5.453  69.747  1.00  0.00    -0.151 C  
BRANCH   7   8
HETATM    8  C   UNL     1      -9.351   5.362  68.228  1.00  0.00    -0.135 A  
HETATM    9  C   UNL     1      -8.116   5.583  67.596  1.00  0.00    -0.101 A  
HETATM   10  C   UNL     1     -10.462   5.031  67.437  1.00  0.00    -0.121 A  
HETATM   11  C   UNL     1      -8.004   5.490  66.207  1.00  0.00    -0.105 A  
HETATM   12  C   UNL     1     -10.348   4.946  66.049  1.00  0.00    -0.307 A  
HETATM   13  C   UNL     1      -9.120   5.176  65.433  1.00  0.00    -0.145 A  
ENDBRANCH   7   8
BRANCH   7  14
HETATM   14  C   UNL     1     -10.343   6.620  70.178  1.00  0.00    -0.236 A  
HETATM   15  C   UNL     1     -12.330   7.426  71.336  1.00  0.00    -0.394 A  
HETATM   16  C   UNL     1     -10.772   9.010  70.384  1.00  0.00    -0.267 A  
HETATM   17  C   UNL     1     -11.529   6.371  70.891  1.00  0.00    -0.406 A  
HETATM   18 BR   UNL     1     -13.024  10.168  71.690  1.00  0.00    -0.587 Br 
HETATM   19  C   UNL     1      -9.974   7.955  69.934  1.00  0.00    -0.192 A  
HETATM   20  C   UNL     1     -11.945   8.740  71.081  1.00  0.00    -0.285 A  
ENDBRANCH   7  14
ENDBRANCH   6   7
ENDBRANCH   5   6
ENDBRANCH   4   5
ENDBRANCH   2   4
TORSDOF 6
ENDMDL
MODEL      157
REMARK 921   NORMALIZED FREE ENERGY PREDICTED BY IDOCK:   -3.13 KCAL/MOL
REMARK 922        TOTAL FREE ENERGY PREDICTED BY IDOCK:   -5.14 KCAL/MOL
REMARK 923 INTER-LIGAND FREE ENERGY PREDICTED BY IDOCK:   -5.47 KCAL/MOL
REMARK 924 INTRA-LIGAND FREE ENERGY PREDICTED BY IDOCK:    0.33 KCAL/MOL
REMARK 927      BINDING AFFINITY PREDICTED BY RF-SCORE:    0.00 PKD
ROOT
HETATM    1  C   UNL     1      -6.766  12.940  68.015  1.00  0.00    -0.109 C  
HETATM    2  N   UNL     1      -6.893  11.782  67.127  1.00  0.00    -0.139 NA 
HETATM    3  C   UNL     1      -6.388  10.586  67.807  1.00  0.00    -0.059 C  
ENDROOT
BRANCH   2   4
HETATM    4  C   UNL     1      -8.298  11.624  66.693  1.00  0.00    -0.154 C  
BRANCH   4   5
HETATM    5  C   UNL     1      -9.313  12.219  67.683  1.00  0.00    -0.186 C  
BRANCH   5   6
HETATM    6  O   UNL     1     -10.654  11.943  67.262  1.00  0.00    -0.217 OA 
BRANCH   6   7
HETATM    7  C   UNL     1     -11.566  12.987  67.663  1.00  0.00    -0.355 C  
BRANCH   7   8
HETATM    8  C   UNL     1     -12.022  12.804  69.107  1.00  0.00    -0.296 A  
HETATM    9  C   UNL     1     -12.081  11.520  69.671  1.00  0.00    -0.363 A  
HETATM   10  C   UNL     1     -12.365  13.906  69.907  1.00  0.00    -0.358 A  
HETATM   11  C   UNL     1     -12.487  11.345  70.996  1.00  0.00    -0.486 A  
HETATM   12  C   UNL     1     -12.776  13.727  71.228  1.00  0.00    -0.450 A  
HETATM   13  C   UNL     1     -12.839  12.447  71.773  1.00  0.00    -0.350 A  
ENDBRANCH   7   8
BRANCH   7  14
HETATM   14  C   UNL     1     -10.928  14.355  67.443  1.00  0.00    -0.303 A  
HETATM   15  C   UNL     1     -10.624  16.320  66.035  1.00  0.00    -0.288 A  
HETATM   16  C   UNL     1      -9.623  16.254  68.234  1.00  0.00    -0.218 A  
HETATM   17  C   UNL     1     -11.160  15.046  66.241  1.00  0.00    -0.334 A  
HETATM   18 BR   UNL     1      -9.141  18.645  66.759  1.00  0.00    -0.311 Br 
HETATM   19  C   UNL     1     -10.155  14.978  68.437  1.00  0.00    -0.225 A  
HETATM   20  C   UNL     1      -9.859  16.917  67.034  1.00  0.00    -0.270 A  
ENDBRANCH   7  14
ENDBRANCH   6   7
ENDBRANCH   5   6
ENDBRANCH   4   5
ENDBRANCH   2   4
TORSDOF 6
ENDMDL
MODEL      158
REMARK 921   NORMALIZED FREE ENERGY PREDICTED BY IDOCK:   -3.12 KCAL/MOL
REMARK 922        TOTAL FREE ENERGY PREDICTED BY IDOCK:   -5.13 KCAL/MOL
REMARK 923 INTER-LIGAND FREE ENERGY PREDICTED BY IDOCK:   -4.43 KCAL/MOL
REMARK 924 INTRA-LIGAND FREE ENERGY PREDICTED BY IDOCK:   -0.70 KCAL/MOL
REMARK 927      BINDING AFFINITY PREDICTED BY RF-SCORE:    0.00 PKD
ROOT
HETATM    1  C   UNL     1      -8.842   3.365  66.350  1.00  0.00    -0.135 C  
HETATM    2  N   UNL     1      -8.933   4.664  65.680  1.00  0.00    -0.133 NA 
HETATM    3  C   UNL     1      -9.191   4.461  64.252  1.00  0.00    -0.145 C  
ENDROOT
BRANCH   2   4
HETATM    4  C   UNL     1      -9.972   5.498  66.321  1.00  0.00    -0.140 C  
BRANCH   4   5
HETATM    5  C   UNL     1     -10.410   4.976  67.699  1.00  0.00    -0.068 C  
BRANCH   5   6
HETATM    6  O   UNL     1      -9.953   5.846  68.741  1.00  0.00    -0.135 OA 
BRANCH   6   7
HETATM    7  C   UNL     1     -10.711   5.669  69.956  1.00  0.00    -0.320 C  
BRANCH   7   8
HETATM    8  C   UNL     1      -9.863   5.036  71.055  1.00  0.00    -0.266 A  
HETATM    9  C   UNL     1      -9.684   3.644  71.094  1.00  0.00    -0.245 A  
HETATM   10  C   UNL     1      -9.227   5.823  72.027  1.00  0.00    -0.156 A  
HETATM   11  C   UNL     1      -8.900   3.057  72.090  1.00  0.00    -0.116 A  
HETATM   12  C   UNL     1      -8.450   5.233  73.025  1.00  0.00    -0.111 A  
HETATM   13  C   UNL     1      -8.287   3.851  73.058  1.00  0.00    -0.092 A  
ENDBRANCH   7   8
BRANCH   7  14
HETATM   14  C   UNL     1     -11.308   7.000  70.401  1.00  0.00    -0.354 A  
HETATM   15  C   UNL     1     -12.869   8.225  71.814  1.00  0.00    -0.362 A  
HETATM   16  C   UNL     1     -11.341   9.436  70.386  1.00  0.00    -0.295 A  
HETATM   17  C   UNL     1     -12.339   7.016  71.357  1.00  0.00    -0.419 A  
HETATM   18 BR   UNL     1     -13.078  11.065  71.951  1.00  0.00    -0.386 Br 
HETATM   19  C   UNL     1     -10.815   8.227  69.925  1.00  0.00    -0.213 A  
HETATM   20  C   UNL     1     -12.366   9.429  71.326  1.00  0.00    -0.341 A  
ENDBRANCH   7  14
ENDBRANCH   6   7
ENDBRANCH   5   6
ENDBRANCH   4   5
ENDBRANCH   2   4
TORSDOF 6
ENDMDL
MODEL      159
REMARK 921   NORMALIZED FREE ENERGY PREDICTED BY IDOCK:   -3.01 KCAL/MOL
REMARK 922        TOTAL FREE ENERGY PREDICTED BY IDOCK:   -4.98 KCAL/MOL
REMARK 923 INTER-LIGAND FREE ENERGY PREDICTED BY IDOCK:   -3.84 KCAL/MOL
REMARK 924 INTRA-LIGAND FREE ENERGY PREDICTED BY IDOCK:   -1.14 KCAL/MOL
REMARK 927      BINDING AFFINITY PREDICTED BY RF-SCORE:    0.00 PKD
ROOT
HETATM    1  C   UNL     1     -10.807   7.536  72.956  1.00  0.00    -0.392 C  
HETATM    2  N   UNL     1     -10.720   8.723  72.102  1.00  0.00    -0.343 NA 
HETATM    3  C   UNL     1      -9.312   9.024  71.826  1.00  0.00    -0.138 C  
ENDROOT
BRANCH   2   4
HETATM    4  C   UNL     1     -11.499   8.519  70.862  1.00  0.00    -0.267 C  
BRANCH   4   5
HETATM    5  C   UNL     1     -10.626   8.442  69.599  1.00  0.00    -0.219 C  
BRANCH   5   6
HETATM    6  O   UNL     1     -10.734   7.153  68.984  1.00  0.00    -0.213 OA 
BRANCH   6   7
HETATM    7  C   UNL     1      -9.444   6.529  68.821  1.00  0.00    -0.128 C  
BRANCH   7   8
HETATM    8  C   UNL     1      -9.110   5.622  70.001  1.00  0.00    -0.157 A  
HETATM    9  C   UNL     1     -10.108   4.818  70.577  1.00  0.00    -0.291 A  
HETATM   10  C   UNL     1      -7.807   5.549  70.517  1.00  0.00    -0.098 A  
HETATM   11  C   UNL     1      -9.808   3.976  71.651  1.00  0.00    -0.253 A  
HETATM   12  C   UNL     1      -7.513   4.712  71.594  1.00  0.00    -0.074 A  
HETATM   13  C   UNL     1      -8.512   3.927  72.162  1.00  0.00    -0.105 A  
ENDBRANCH   7   8
BRANCH   7  14
HETATM   14  C   UNL     1      -9.389   5.773  67.497  1.00  0.00    -0.111 A  
HETATM   15  C   UNL     1      -8.072   4.672  65.768  1.00  0.00    -0.103 A  
HETATM   16  C   UNL     1     -10.485   4.641  65.638  1.00  0.00    -0.260 A  
HETATM   17  C   UNL     1      -8.145   5.405  66.956  1.00  0.00    -0.101 A  
HETATM   18 BR   UNL     1      -9.144   3.295  63.514  1.00  0.00    -0.093 Br 
HETATM   19  C   UNL     1     -10.558   5.378  66.823  1.00  0.00    -0.339 A  
HETATM   20  C   UNL     1      -9.243   4.294  65.117  1.00  0.00    -0.151 A  
ENDBRANCH   7  14
ENDBRANCH   6   7
ENDBRANCH   5   6
ENDBRANCH   4   5
ENDBRANCH   2   4
TORSDOF 6
ENDMDL
MODEL      160
REMARK 921   NORMALIZED FREE ENERGY PREDICTED BY IDOCK:   -3.00 KCAL/MOL
REMARK 922        TOTAL FREE ENERGY PREDICTED BY IDOCK:   -4.97 KCAL/MOL
REMARK 923 INTER-LIGAND FREE ENERGY PREDICTED BY IDOCK:   -4.68 KCAL/MOL
REMARK 924 INTRA-LIGAND FREE ENERGY PREDICTED BY IDOCK:   -0.29 KCAL/MOL
REMARK 927      BINDING AFFINITY PREDICTED BY RF-SCORE:    0.00 PKD
ROOT
HETATM    1  C   UNL     1      -7.662  11.309  68.918  1.00  0.00    -0.125 C  
HETATM    2  N   UNL     1      -7.326  12.357  67.951  1.00  0.00    -0.100 NA 
HETATM    3  C   UNL     1      -6.551  11.777  66.851  1.00  0.00    -0.114 C  
ENDROOT
BRANCH   2   4
HETATM    4  C   UNL     1      -8.556  13.025  67.474  1.00  0.00    -0.192 C  
BRANCH   4   5
HETATM    5  C   UNL     1      -9.202  13.938  68.528  1.00  0.00    -0.154 C  
BRANCH   5   6
HETATM    6  O   UNL     1      -8.997  15.318  68.200  1.00  0.00    -0.169 OA 
BRANCH   6   7
HETATM    7  C   UNL     1     -10.217  15.951  67.762  1.00  0.00    -0.260 C  
BRANCH   7   8
HETATM    8  C   UNL     1      -9.983  17.411  67.385  1.00  0.00    -0.305 A  
HETATM    9  C   UNL     1      -8.717  17.832  66.947  1.00  0.00    -0.262 A  
HETATM   10  C   UNL     1     -11.023  18.352  67.442  1.00  0.00    -0.163 A  
HETATM   11  C   UNL     1      -8.498  19.164  66.590  1.00  0.00    -0.319 A  
HETATM   12  C   UNL     1     -10.798  19.683  67.090  1.00  0.00    -0.526 A  
HETATM   13  C   UNL     1      -9.536  20.090  66.666  1.00  0.00    -0.548 A  
ENDBRANCH   7   8
BRANCH   7  14
HETATM   14  C   UNL     1     -10.833  15.164  66.610  1.00  0.00    -0.318 A  
HETATM   15  C   UNL     1     -12.577  13.672  65.791  1.00  0.00    -0.511 A  
HETATM   16  C   UNL     1     -10.944  14.569  64.250  1.00  0.00     0.046 A  
HETATM   17  C   UNL     1     -11.968  14.366  66.840  1.00  0.00    -0.425 A  
HETATM   18 BR   UNL     1     -12.891  12.847  63.080  1.00  0.00     0.627 Br 
HETATM   19  C   UNL     1     -10.332  15.258  65.300  1.00  0.00    -0.430 A  
HETATM   20  C   UNL     1     -12.062  13.779  64.501  1.00  0.00    -0.428 A  
ENDBRANCH   7  14
ENDBRANCH   6   7
ENDBRANCH   5   6
ENDBRANCH   4   5
ENDBRANCH   2   4
TORSDOF 6
ENDMDL
MODEL      161
REMARK 921   NORMALIZED FREE ENERGY PREDICTED BY IDOCK:   -3.00 KCAL/MOL
REMARK 922        TOTAL FREE ENERGY PREDICTED BY IDOCK:   -4.96 KCAL/MOL
REMARK 923 INTER-LIGAND FREE ENERGY PREDICTED BY IDOCK:   -4.29 KCAL/MOL
REMARK 924 INTRA-LIGAND FREE ENERGY PREDICTED BY IDOCK:   -0.67 KCAL/MOL
REMARK 927      BINDING AFFINITY PREDICTED BY RF-SCORE:    0.00 PKD
ROOT
HETATM    1  C   UNL     1     -11.505  14.254  65.268  1.00  0.00    -0.344 C  
HETATM    2  N   UNL     1     -10.185  14.347  65.896  1.00  0.00    -0.310 NA 
HETATM    3  C   UNL     1     -10.241  15.295  67.013  1.00  0.00    -0.260 C  
ENDROOT
BRANCH   2   4
HETATM    4  C   UNL     1      -9.727  13.008  66.324  1.00  0.00    -0.263 C  
BRANCH   4   5
HETATM    5  C   UNL     1     -10.516  11.858  65.676  1.00  0.00    -0.262 C  
BRANCH   5   6
HETATM    6  O   UNL     1     -10.773  10.819  66.629  1.00  0.00    -0.249 OA 
BRANCH   6   7
HETATM    7  C   UNL     1      -9.652  10.614  67.513  1.00  0.00    -0.161 C  
BRANCH   7   8
HETATM    8  C   UNL     1     -10.101  10.077  68.868  1.00  0.00    -0.200 A  
HETATM    9  C   UNL     1     -10.974  10.831  69.671  1.00  0.00    -0.320 A  
HETATM   10  C   UNL     1      -9.680   8.820  69.329  1.00  0.00    -0.172 A  
HETATM   11  C   UNL     1     -11.399  10.342  70.908  1.00  0.00    -0.376 A  
HETATM   12  C   UNL     1     -10.102   8.338  70.568  1.00  0.00    -0.210 A  
HETATM   13  C   UNL     1     -10.960   9.098  71.359  1.00  0.00    -0.414 A  
ENDBRANCH   7   8
BRANCH   7  14
HETATM   14  C   UNL     1      -8.626   9.696  66.856  1.00  0.00    -0.132 A  
HETATM   15  C   UNL     1      -8.134   7.851  65.342  1.00  0.00    -0.130 A  
HETATM   16  C   UNL     1      -6.321   9.058  66.391  1.00  0.00    -0.065 A  
HETATM   17  C   UNL     1      -9.057   8.675  65.991  1.00  0.00    -0.255 A  
HETATM   18 BR   UNL     1      -5.520   6.940  64.661  1.00  0.00    -0.032 Br 
HETATM   19  C   UNL     1      -7.245   9.878  67.044  1.00  0.00    -0.090 A  
HETATM   20  C   UNL     1      -6.770   8.049  65.546  1.00  0.00    -0.048 A  
ENDBRANCH   7  14
ENDBRANCH   6   7
ENDBRANCH   5   6
ENDBRANCH   4   5
ENDBRANCH   2   4
TORSDOF 6
ENDMDL
MODEL      162
REMARK 921   NORMALIZED FREE ENERGY PREDICTED BY IDOCK:   -2.95 KCAL/MOL
REMARK 922        TOTAL FREE ENERGY PREDICTED BY IDOCK:   -4.90 KCAL/MOL
REMARK 923 INTER-LIGAND FREE ENERGY PREDICTED BY IDOCK:   -5.14 KCAL/MOL
REMARK 924 INTRA-LIGAND FREE ENERGY PREDICTED BY IDOCK:    0.24 KCAL/MOL
REMARK 927      BINDING AFFINITY PREDICTED BY RF-SCORE:    0.00 PKD
ROOT
HETATM    1  C   UNL     1      -9.646   9.524  66.941  1.00  0.00    -0.165 C  
HETATM    2  N   UNL     1      -9.470   8.077  66.799  1.00  0.00    -0.187 NA 
HETATM    3  C   UNL     1      -8.650   7.798  65.616  1.00  0.00    -0.127 C  
ENDROOT
BRANCH   2   4
HETATM    4  C   UNL     1      -8.880   7.511  68.031  1.00  0.00    -0.127 C  
BRANCH   4   5
HETATM    5  C   UNL     1      -9.514   8.061  69.319  1.00  0.00    -0.155 C  
BRANCH   5   6
HETATM    6  O   UNL     1     -10.826   7.517  69.511  1.00  0.00    -0.234 OA 
BRANCH   6   7
HETATM    7  C   UNL     1     -11.281   7.689  70.869  1.00  0.00    -0.268 C  
BRANCH   7   8
HETATM    8  C   UNL     1     -10.170   7.389  71.872  1.00  0.00    -0.213 A  
HETATM    9  C   UNL     1      -9.552   6.128  71.882  1.00  0.00    -0.166 A  
HETATM   10  C   UNL     1      -9.727   8.363  72.780  1.00  0.00    -0.298 A  
HETATM   11  C   UNL     1      -8.527   5.849  72.789  1.00  0.00    -0.122 A  
HETATM   12  C   UNL     1      -8.707   8.078  73.688  1.00  0.00    -0.332 A  
HETATM   13  C   UNL     1      -8.108   6.822  73.695  1.00  0.00    -0.113 A  
ENDBRANCH   7   8
BRANCH   7  14
HETATM   14  C   UNL     1     -11.848   9.091  71.061  1.00  0.00    -0.339 A  
HETATM   15  C   UNL     1     -13.256  10.625  72.327  1.00  0.00    -0.211 A  
HETATM   16  C   UNL     1     -11.935  11.456  70.482  1.00  0.00    -0.451 A  
HETATM   17  C   UNL     1     -12.758   9.338  72.104  1.00  0.00    -0.465 A  
HETATM   18 BR   UNL     1     -13.507  13.419  71.823  1.00  0.00    -0.417 Br 
HETATM   19  C   UNL     1     -11.442  10.169  70.256  1.00  0.00    -0.381 A  
HETATM   20  C   UNL     1     -12.840  11.677  71.515  1.00  0.00    -0.364 A  
ENDBRANCH   7  14
ENDBRANCH   6   7
ENDBRANCH   5   6
ENDBRANCH   4   5
ENDBRANCH   2   4
TORSDOF 6
ENDMDL
MODEL      163
REMARK 921   NORMALIZED FREE ENERGY PREDICTED BY IDOCK:   -2.90 KCAL/MOL
REMARK 922        TOTAL FREE ENERGY PREDICTED BY IDOCK:   -4.83 KCAL/MOL
REMARK 923 INTER-LIGAND FREE ENERGY PREDICTED BY IDOCK:   -4.01 KCAL/MOL
REMARK 924 INTRA-LIGAND FREE ENERGY PREDICTED BY IDOCK:   -0.82 KCAL/MOL
REMARK 927      BINDING AFFINITY PREDICTED BY RF-SCORE:    0.00 PKD
ROOT
HETATM    1  C   UNL     1      -5.815   3.489  67.733  1.00  0.00    -0.023 C  
HETATM    2  N   UNL     1      -5.912   4.902  68.103  1.00  0.00    -0.025 NA 
HETATM    3  C   UNL     1      -5.128   5.709  67.163  1.00  0.00    -0.005 C  
ENDROOT
BRANCH   2   4
HETATM    4  C   UNL     1      -7.329   5.322  68.149  1.00  0.00    -0.072 C  
BRANCH   4   5
HETATM    5  C   UNL     1      -7.513   6.810  68.490  1.00  0.00    -0.092 C  
BRANCH   5   6
HETATM    6  O   UNL     1      -8.904   7.148  68.556  1.00  0.00    -0.126 OA 
BRANCH   6   7
HETATM    7  C   UNL     1      -9.103   8.519  68.958  1.00  0.00    -0.146 C  
BRANCH   7   8
HETATM    8  C   UNL     1      -9.134   9.454  67.753  1.00  0.00    -0.134 A  
HETATM    9  C   UNL     1      -9.926   9.138  66.636  1.00  0.00    -0.343 A  
HETATM   10  C   UNL     1      -8.402  10.651  67.741  1.00  0.00    -0.115 A  
HETATM   11  C   UNL     1      -9.969   9.994  65.533  1.00  0.00    -0.367 A  
HETATM   12  C   UNL     1      -8.443  11.501  66.635  1.00  0.00    -0.172 A  
HETATM   13  C   UNL     1      -9.224  11.173  65.531  1.00  0.00    -0.236 A  
ENDBRANCH   7   8
BRANCH   7  14
HETATM   14  C   UNL     1     -10.369   8.642  69.799  1.00  0.00    -0.212 A  
HETATM   15  C   UNL     1     -12.143   7.570  71.080  1.00  0.00    -0.335 A  
HETATM   16  C   UNL     1     -12.021   9.982  70.987  1.00  0.00    -0.469 A  
HETATM   17  C   UNL     1     -11.008   7.481  70.270  1.00  0.00    -0.264 A  
HETATM   18 BR   UNL     1     -14.172   8.941  72.539  1.00  0.00    -0.226 Br 
HETATM   19  C   UNL     1     -10.889   9.893  70.172  1.00  0.00    -0.356 A  
HETATM   20  C   UNL     1     -12.642   8.821  71.435  1.00  0.00    -0.294 A  
ENDBRANCH   7  14
ENDBRANCH   6   7
ENDBRANCH   5   6
ENDBRANCH   4   5
ENDBRANCH   2   4
TORSDOF 6
ENDMDL
MODEL      164
REMARK 921   NORMALIZED FREE ENERGY PREDICTED BY IDOCK:   -2.89 KCAL/MOL
REMARK 922        TOTAL FREE ENERGY PREDICTED BY IDOCK:   -4.81 KCAL/MOL
REMARK 923 INTER-LIGAND FREE ENERGY PREDICTED BY IDOCK:   -5.62 KCAL/MOL
REMARK 924 INTRA-LIGAND FREE ENERGY PREDICTED BY IDOCK:    0.81 KCAL/MOL
REMARK 927      BINDING AFFINITY PREDICTED BY RF-SCORE:    0.00 PKD
ROOT
HETATM    1  C   UNL     1      -7.014  14.485  69.146  1.00  0.00    -0.131 C  
HETATM    2  N   UNL     1      -7.058  13.536  68.031  1.00  0.00    -0.109 NA 
HETATM    3  C   UNL     1      -6.786  12.184  68.528  1.00  0.00    -0.071 C  
ENDROOT
BRANCH   2   4
HETATM    4  C   UNL     1      -8.362  13.622  67.339  1.00  0.00    -0.192 C  
BRANCH   4   5
HETATM    5  C   UNL     1      -9.565  13.445  68.280  1.00  0.00    -0.220 C  
BRANCH   5   6
HETATM    6  O   UNL     1     -10.796  13.517  67.550  1.00  0.00    -0.259 OA 
BRANCH   6   7
HETATM    7  C   UNL     1     -11.326  12.205  67.267  1.00  0.00    -0.334 C  
BRANCH   7   8
HETATM    8  C   UNL     1     -10.730  11.627  65.988  1.00  0.00    -0.328 A  
HETATM    9  C   UNL     1     -10.144  10.350  65.997  1.00  0.00    -0.307 A  
HETATM   10  C   UNL     1     -10.775  12.337  64.778  1.00  0.00    -0.338 A  
HETATM   11  C   UNL     1      -9.605   9.809  64.828  1.00  0.00    -0.284 A  
HETATM   12  C   UNL     1     -10.231  11.795  63.613  1.00  0.00    -0.461 A  
HETATM   13  C   UNL     1      -9.645  10.533  63.637  1.00  0.00    -0.370 A  
ENDBRANCH   7   8
BRANCH   7  14
HETATM   14  C   UNL     1     -11.105  11.281  68.460  1.00  0.00    -0.288 A  
HETATM   15  C   UNL     1     -11.948  10.275  70.513  1.00  0.00    -0.415 A  
HETATM   16  C   UNL     1      -9.784   9.621  69.658  1.00  0.00    -0.230 A  
HETATM   17  C   UNL     1     -12.109  11.151  69.436  1.00  0.00    -0.396 A  
HETATM   18 BR   UNL     1     -10.572   8.323  72.069  1.00  0.00    -0.393 Br 
HETATM   19  C   UNL     1      -9.943  10.501  68.584  1.00  0.00    -0.188 A  
HETATM   20  C   UNL     1     -10.786   9.514  70.617  1.00  0.00    -0.306 A  
ENDBRANCH   7  14
ENDBRANCH   6   7
ENDBRANCH   5   6
ENDBRANCH   4   5
ENDBRANCH   2   4
TORSDOF 6
ENDMDL
MODEL      165
REMARK 921   NORMALIZED FREE ENERGY PREDICTED BY IDOCK:   -2.66 KCAL/MOL
REMARK 922        TOTAL FREE ENERGY PREDICTED BY IDOCK:   -4.51 KCAL/MOL
REMARK 923 INTER-LIGAND FREE ENERGY PREDICTED BY IDOCK:   -3.56 KCAL/MOL
REMARK 924 INTRA-LIGAND FREE ENERGY PREDICTED BY IDOCK:   -0.95 KCAL/MOL
REMARK 927      BINDING AFFINITY PREDICTED BY RF-SCORE:    0.00 PKD
ROOT
HETATM    1  C   UNL     1      -5.797  13.898  67.837  1.00  0.00    -0.127 C  
HETATM    2  N   UNL     1      -5.657  13.564  69.256  1.00  0.00    -0.076 NA 
HETATM    3  C   UNL     1      -6.059  14.714  70.072  1.00  0.00    -0.151 C  
ENDROOT
BRANCH   2   4
HETATM    4  C   UNL     1      -6.443  12.353  69.576  1.00  0.00    -0.090 C  
BRANCH   4   5
HETATM    5  C   UNL     1      -7.068  11.688  68.339  1.00  0.00    -0.083 C  
BRANCH   5   6
HETATM    6  O   UNL     1      -7.080  10.262  68.481  1.00  0.00    -0.071 OA 
BRANCH   6   7
HETATM    7  C   UNL     1      -8.273   9.679  67.916  1.00  0.00    -0.106 C  
BRANCH   7   8
HETATM    8  C   UNL     1      -8.052   8.218  67.536  1.00  0.00    -0.122 A  
HETATM    9  C   UNL     1      -6.822   7.597  67.806  1.00  0.00    -0.068 A  
HETATM   10  C   UNL     1      -9.071   7.460  66.938  1.00  0.00    -0.164 A  
HETATM   11  C   UNL     1      -6.616   6.257  67.472  1.00  0.00    -0.052 A  
HETATM   12  C   UNL     1      -8.859   6.123  66.600  1.00  0.00    -0.127 A  
HETATM   13  C   UNL     1      -7.632   5.521  66.865  1.00  0.00    -0.092 A  
ENDBRANCH   7   8
BRANCH   7  14
HETATM   14  C   UNL     1      -9.443   9.840  68.880  1.00  0.00    -0.161 A  
HETATM   15  C   UNL     1     -11.731  10.572  69.291  1.00  0.00    -0.281 A  
HETATM   16  C   UNL     1     -10.499   9.446  71.040  1.00  0.00    -0.392 A  
HETATM   17  C   UNL     1     -10.629  10.454  68.440  1.00  0.00    -0.238 A  
HETATM   18 BR   UNL     1     -13.154  10.216  71.736  1.00  0.00    -0.564 Br 
HETATM   19  C   UNL     1      -9.396   9.334  70.191  1.00  0.00    -0.258 A  
HETATM   20  C   UNL     1     -11.660  10.066  70.586  1.00  0.00    -0.340 A  
ENDBRANCH   7  14
ENDBRANCH   6   7
ENDBRANCH   5   6
ENDBRANCH   4   5
ENDBRANCH   2   4
TORSDOF 6
ENDMDL
MODEL      166
REMARK 921   NORMALIZED FREE ENERGY PREDICTED BY IDOCK:   -2.62 KCAL/MOL
REMARK 922        TOTAL FREE ENERGY PREDICTED BY IDOCK:   -4.45 KCAL/MOL
REMARK 923 INTER-LIGAND FREE ENERGY PREDICTED BY IDOCK:   -5.35 KCAL/MOL
REMARK 924 INTRA-LIGAND FREE ENERGY PREDICTED BY IDOCK:    0.89 KCAL/MOL
REMARK 927      BINDING AFFINITY PREDICTED BY RF-SCORE:    0.00 PKD
ROOT
HETATM    1  C   UNL     1     -11.002  15.533  66.457  1.00  0.00    -0.243 C  
HETATM    2  N   UNL     1     -10.671  16.384  67.602  1.00  0.00    -0.326 NA 
HETATM    3  C   UNL     1     -11.281  15.833  68.815  1.00  0.00    -0.342 C  
ENDROOT
BRANCH   2   4
HETATM    4  C   UNL     1      -9.204  16.521  67.730  1.00  0.00    -0.202 C  
BRANCH   4   5
HETATM    5  C   UNL     1      -8.650  17.793  67.070  1.00  0.00    -0.236 C  
BRANCH   5   6
HETATM    6  O   UNL     1      -7.930  17.473  65.873  1.00  0.00    -0.527 OA 
BRANCH   6   7
HETATM    7  C   UNL     1      -6.552  17.892  65.950  1.00  0.00    -0.269 C  
BRANCH   7   8
HETATM    8  C   UNL     1      -6.227  18.936  64.886  1.00  0.00    -0.261 A  
HETATM    9  C   UNL     1      -6.711  20.247  65.014  1.00  0.00    -0.321 A  
HETATM   10  C   UNL     1      -5.422  18.621  63.779  1.00  0.00     0.016 A  
HETATM   11  C   UNL     1      -6.409  21.212  64.050  1.00  0.00    -0.264 A  
HETATM   12  C   UNL     1      -5.128  19.585  62.815  1.00  0.00    -0.313 A  
HETATM   13  C   UNL     1      -5.621  20.880  62.949  1.00  0.00    -0.260 A  
ENDBRANCH   7   8
BRANCH   7  14
HETATM   14  C   UNL     1      -6.234  18.399  67.352  1.00  0.00    -0.187 A  
HETATM   15  C   UNL     1      -6.383  20.167  69.022  1.00  0.00    -0.360 A  
HETATM   16  C   UNL     1      -5.375  18.049  69.605  1.00  0.00    -0.202 A  
HETATM   17  C   UNL     1      -6.623  19.697  67.728  1.00  0.00    -0.260 A  
HETATM   18 BR   UNL     1      -5.444  19.973  71.707  1.00  0.00    -0.400 Br 
HETATM   19  C   UNL     1      -5.610  17.581  68.310  1.00  0.00    -0.147 A  
HETATM   20  C   UNL     1      -5.761  19.340  69.953  1.00  0.00    -0.244 A  
ENDBRANCH   7  14
ENDBRANCH   6   7
ENDBRANCH   5   6
ENDBRANCH   4   5
ENDBRANCH   2   4
TORSDOF 6
ENDMDL
MODEL      167
REMARK 921   NORMALIZED FREE ENERGY PREDICTED BY IDOCK:   -2.57 KCAL/MOL
REMARK 922        TOTAL FREE ENERGY PREDICTED BY IDOCK:   -4.39 KCAL/MOL
REMARK 923 INTER-LIGAND FREE ENERGY PREDICTED BY IDOCK:   -3.70 KCAL/MOL
REMARK 924 INTRA-LIGAND FREE ENERGY PREDICTED BY IDOCK:   -0.69 KCAL/MOL
REMARK 927      BINDING AFFINITY PREDICTED BY RF-SCORE:    0.00 PKD
ROOT
HETATM    1  C   UNL     1     -12.271  12.393  64.149  1.00  0.00    -0.468 C  
HETATM    2  N   UNL     1     -11.214  13.051  64.921  1.00  0.00    -0.294 NA 
HETATM    3  C   UNL     1     -11.660  14.388  65.322  1.00  0.00    -0.353 C  
ENDROOT
BRANCH   2   4
HETATM    4  C   UNL     1     -10.837  12.217  66.083  1.00  0.00    -0.279 C  
BRANCH   4   5
HETATM    5  C   UNL     1     -11.512  12.656  67.393  1.00  0.00    -0.337 C  
BRANCH   5   6
HETATM    6  O   UNL     1     -10.584  12.612  68.483  1.00  0.00    -0.236 OA 
BRANCH   6   7
HETATM    7  C   UNL     1      -9.224  12.471  68.022  1.00  0.00    -0.204 C  
BRANCH   7   8
HETATM    8  C   UNL     1      -8.338  13.598  68.545  1.00  0.00    -0.110 A  
HETATM    9  C   UNL     1      -8.803  14.923  68.535  1.00  0.00    -0.174 A  
HETATM   10  C   UNL     1      -7.062  13.337  69.068  1.00  0.00    -0.044 A  
HETATM   11  C   UNL     1      -8.003  15.959  69.023  1.00  0.00    -0.222 A  
HETATM   12  C   UNL     1      -6.263  14.375  69.549  1.00  0.00    -0.121 A  
HETATM   13  C   UNL     1      -6.732  15.686  69.525  1.00  0.00    -0.185 A  
ENDBRANCH   7   8
BRANCH   7  14
HETATM   14  C   UNL     1      -8.678  11.101  68.407  1.00  0.00    -0.157 A  
HETATM   15  C   UNL     1      -8.515   9.294  70.034  1.00  0.00    -0.185 A  
HETATM   16  C   UNL     1      -7.491   9.045  67.859  1.00  0.00    -0.085 A  
HETATM   17  C   UNL     1      -8.966  10.567  69.676  1.00  0.00     0.035 A  
HETATM   18 BR   UNL     1      -7.178   6.814  69.604  1.00  0.00    -0.083 Br 
HETATM   19  C   UNL     1      -7.937  10.320  67.503  1.00  0.00    -0.106 A  
HETATM   20  C   UNL     1      -7.781   8.540  69.123  1.00  0.00    -0.091 A  
ENDBRANCH   7  14
ENDBRANCH   6   7
ENDBRANCH   5   6
ENDBRANCH   4   5
ENDBRANCH   2   4
TORSDOF 6
ENDMDL
MODEL      168
REMARK 921   NORMALIZED FREE ENERGY PREDICTED BY IDOCK:   -2.57 KCAL/MOL
REMARK 922        TOTAL FREE ENERGY PREDICTED BY IDOCK:   -4.38 KCAL/MOL
REMARK 923 INTER-LIGAND FREE ENERGY PREDICTED BY IDOCK:   -3.69 KCAL/MOL
REMARK 924 INTRA-LIGAND FREE ENERGY PREDICTED BY IDOCK:   -0.70 KCAL/MOL
REMARK 927      BINDING AFFINITY PREDICTED BY RF-SCORE:    0.00 PKD
ROOT
HETATM    1  C   UNL     1     -11.497  14.262  65.278  1.00  0.00    -0.344 C  
HETATM    2  N   UNL     1     -10.159  14.450  65.843  1.00  0.00    -0.310 NA 
HETATM    3  C   UNL     1     -10.206  15.490  66.874  1.00  0.00    -0.279 C  
ENDROOT
BRANCH   2   4
HETATM    4  C   UNL     1      -9.642  13.168  66.368  1.00  0.00    -0.255 C  
BRANCH   4   5
HETATM    5  C   UNL     1     -10.498  12.584  67.503  1.00  0.00    -0.219 C  
BRANCH   5   6
HETATM    6  O   UNL     1      -9.669  12.027  68.530  1.00  0.00    -0.207 OA 
BRANCH   6   7
HETATM    7  C   UNL     1      -8.522  11.345  67.980  1.00  0.00    -0.145 C  
BRANCH   7   8
HETATM    8  C   UNL     1      -7.332  11.401  68.933  1.00  0.00    -0.114 A  
HETATM    9  C   UNL     1      -6.778  12.639  69.297  1.00  0.00    -0.054 A  
HETATM   10  C   UNL     1      -6.784  10.232  69.482  1.00  0.00    -0.073 A  
HETATM   11  C   UNL     1      -5.695  12.700  70.177  1.00  0.00    -0.154 A  
HETATM   12  C   UNL     1      -5.698  10.296  70.356  1.00  0.00    -0.078 A  
HETATM   13  C   UNL     1      -5.152  11.529  70.703  1.00  0.00    -0.110 A  
ENDBRANCH   7   8
BRANCH   7  14
HETATM   14  C   UNL     1      -8.888   9.910  67.620  1.00  0.00    -0.126 A  
HETATM   15  C   UNL     1     -10.220   7.916  68.055  1.00  0.00    -0.256 A  
HETATM   16  C   UNL     1      -8.733   7.973  66.150  1.00  0.00    -0.177 A  
HETATM   17  C   UNL     1      -9.835   9.216  68.393  1.00  0.00    -0.181 A  
HETATM   18 BR   UNL     1     -10.193   5.546  66.471  1.00  0.00    -0.283 Br 
HETATM   19  C   UNL     1      -8.345   9.270  66.491  1.00  0.00    -0.126 A  
HETATM   20  C   UNL     1      -9.667   7.302  66.934  1.00  0.00    -0.194 A  
ENDBRANCH   7  14
ENDBRANCH   6   7
ENDBRANCH   5   6
ENDBRANCH   4   5
ENDBRANCH   2   4
TORSDOF 6
ENDMDL
MODEL      169
REMARK 921   NORMALIZED FREE ENERGY PREDICTED BY IDOCK:   -2.55 KCAL/MOL
REMARK 922        TOTAL FREE ENERGY PREDICTED BY IDOCK:   -4.36 KCAL/MOL
REMARK 923 INTER-LIGAND FREE ENERGY PREDICTED BY IDOCK:   -4.51 KCAL/MOL
REMARK 924 INTRA-LIGAND FREE ENERGY PREDICTED BY IDOCK:    0.15 KCAL/MOL
REMARK 927      BINDING AFFINITY PREDICTED BY RF-SCORE:    0.00 PKD
ROOT
HETATM    1  C   UNL     1      -6.370  10.496  70.502  1.00  0.00    -0.090 C  
HETATM    2  N   UNL     1      -7.371  10.772  69.469  1.00  0.00    -0.138 NA 
HETATM    3  C   UNL     1      -6.746  10.681  68.146  1.00  0.00    -0.064 C  
ENDROOT
BRANCH   2   4
HETATM    4  C   UNL     1      -8.517   9.848  69.608  1.00  0.00    -0.187 C  
BRANCH   4   5
HETATM    5  C   UNL     1      -9.878  10.527  69.385  1.00  0.00    -0.182 C  
BRANCH   5   6
HETATM    6  O   UNL     1     -10.727   9.708  68.572  1.00  0.00    -0.219 OA 
BRANCH   6   7
HETATM    7  C   UNL     1     -10.962  10.302  67.278  1.00  0.00    -0.210 C  
BRANCH   7   8
HETATM    8  C   UNL     1     -10.795  11.818  67.322  1.00  0.00    -0.300 A  
HETATM    9  C   UNL     1     -11.871  12.634  67.709  1.00  0.00    -0.381 A  
HETATM   10  C   UNL     1      -9.570  12.425  67.006  1.00  0.00    -0.211 A  
HETATM   11  C   UNL     1     -11.724  14.022  67.762  1.00  0.00    -0.403 A  
HETATM   12  C   UNL     1      -9.429  13.812  67.054  1.00  0.00    -0.255 A  
HETATM   13  C   UNL     1     -10.505  14.611  67.431  1.00  0.00    -0.255 A  
ENDBRANCH   7   8
BRANCH   7  14
HETATM   14  C   UNL     1     -10.050   9.666  66.234  1.00  0.00    -0.322 A  
HETATM   15  C   UNL     1      -9.039   9.732  64.018  1.00  0.00    -0.280 A  
HETATM   16  C   UNL     1      -8.427   7.977  65.562  1.00  0.00    -0.159 A  
HETATM   17  C   UNL     1      -9.904  10.272  64.974  1.00  0.00    -0.397 A  
HETATM   18 BR   UNL     1      -7.127   7.863  63.029  1.00  0.00    -0.091 Br 
HETATM   19  C   UNL     1      -9.296   8.513  66.516  1.00  0.00    -0.260 A  
HETATM   20  C   UNL     1      -8.305   8.588  64.319  1.00  0.00    -0.105 A  
ENDBRANCH   7  14
ENDBRANCH   6   7
ENDBRANCH   5   6
ENDBRANCH   4   5
ENDBRANCH   2   4
TORSDOF 6
ENDMDL
MODEL      170
REMARK 921   NORMALIZED FREE ENERGY PREDICTED BY IDOCK:   -2.52 KCAL/MOL
REMARK 922        TOTAL FREE ENERGY PREDICTED BY IDOCK:   -4.32 KCAL/MOL
REMARK 923 INTER-LIGAND FREE ENERGY PREDICTED BY IDOCK:   -4.83 KCAL/MOL
REMARK 924 INTRA-LIGAND FREE ENERGY PREDICTED BY IDOCK:    0.51 KCAL/MOL
REMARK 927      BINDING AFFINITY PREDICTED BY RF-SCORE:    0.00 PKD
ROOT
HETATM    1  C   UNL     1     -11.041  15.423  67.511  1.00  0.00    -0.315 C  
HETATM    2  N   UNL     1      -9.664  15.711  67.919  1.00  0.00    -0.211 NA 
HETATM    3  C   UNL     1      -9.566  15.660  69.381  1.00  0.00    -0.287 C  
ENDROOT
BRANCH   2   4
HETATM    4  C   UNL     1      -8.731  14.768  67.266  1.00  0.00    -0.210 C  
BRANCH   4   5
HETATM    5  C   UNL     1      -9.128  13.294  67.444  1.00  0.00    -0.216 C  
BRANCH   5   6
HETATM    6  O   UNL     1      -8.216  12.625  68.323  1.00  0.00    -0.159 OA 
BRANCH   6   7
HETATM    7  C   UNL     1      -8.401  11.194  68.297  1.00  0.00    -0.143 C  
BRANCH   7   8
HETATM    8  C   UNL     1      -9.655  10.781  69.061  1.00  0.00    -0.193 A  
HETATM    9  C   UNL     1      -9.616   9.689  69.942  1.00  0.00    -0.260 A  
HETATM   10  C   UNL     1     -10.858  11.492  68.924  1.00  0.00    -0.263 A  
HETATM   11  C   UNL     1     -10.757   9.311  70.654  1.00  0.00    -0.331 A  
HETATM   12  C   UNL     1     -11.997  11.108  69.632  1.00  0.00    -0.429 A  
HETATM   13  C   UNL     1     -11.948  10.017  70.496  1.00  0.00    -0.357 A  
ENDBRANCH   7   8
BRANCH   7  14
HETATM   14  C   UNL     1      -8.429  10.694  66.857  1.00  0.00    -0.127 A  
HETATM   15  C   UNL     1      -9.712  10.096  64.873  1.00  0.00    -0.392 A  
HETATM   16  C   UNL     1      -7.297  10.055  64.796  1.00  0.00    -0.143 A  
HETATM   17  C   UNL     1      -9.662  10.509  66.207  1.00  0.00    -0.254 A  
HETATM   18 BR   UNL     1      -8.595   9.320  62.368  1.00  0.00    -0.238 Br 
HETATM   19  C   UNL     1      -7.248  10.464  66.131  1.00  0.00    -0.131 A  
HETATM   20  C   UNL     1      -8.528   9.872  64.175  1.00  0.00    -0.175 A  
ENDBRANCH   7  14
ENDBRANCH   6   7
ENDBRANCH   5   6
ENDBRANCH   4   5
ENDBRANCH   2   4
TORSDOF 6
ENDMDL
MODEL      171
REMARK 921   NORMALIZED FREE ENERGY PREDICTED BY IDOCK:   -2.52 KCAL/MOL
REMARK 922        TOTAL FREE ENERGY PREDICTED BY IDOCK:   -4.31 KCAL/MOL
REMARK 923 INTER-LIGAND FREE ENERGY PREDICTED BY IDOCK:   -3.46 KCAL/MOL
REMARK 924 INTRA-LIGAND FREE ENERGY PREDICTED BY IDOCK:   -0.85 KCAL/MOL
REMARK 927      BINDING AFFINITY PREDICTED BY RF-SCORE:    0.00 PKD
ROOT
HETATM    1  C   UNL     1      -6.534   3.719  71.189  1.00  0.00    -0.026 C  
HETATM    2  N   UNL     1      -7.823   3.103  70.864  1.00  0.00    -0.046 NA 
HETATM    3  C   UNL     1      -8.344   2.408  72.045  1.00  0.00    -0.057 C  
ENDROOT
BRANCH   2   4
HETATM    4  C   UNL     1      -8.765   4.125  70.360  1.00  0.00    -0.078 C  
BRANCH   4   5
HETATM    5  C   UNL     1      -8.112   5.137  69.404  1.00  0.00    -0.087 C  
BRANCH   5   6
HETATM    6  O   UNL     1      -9.033   6.179  69.061  1.00  0.00    -0.125 OA 
BRANCH   6   7
HETATM    7  C   UNL     1      -8.703   6.789  67.796  1.00  0.00    -0.120 C  
BRANCH   7   8
HETATM    8  C   UNL     1      -9.055   5.873  66.627  1.00  0.00    -0.138 A  
HETATM    9  C   UNL     1      -8.098   5.594  65.638  1.00  0.00    -0.120 A  
HETATM   10  C   UNL     1     -10.320   5.274  66.527  1.00  0.00    -0.332 A  
HETATM   11  C   UNL     1      -8.408   4.748  64.570  1.00  0.00    -0.128 A  
HETATM   12  C   UNL     1     -10.628   4.435  65.456  1.00  0.00    -0.193 A  
HETATM   13  C   UNL     1      -9.674   4.172  64.477  1.00  0.00    -0.168 A  
ENDBRANCH   7   8
BRANCH   7  14
HETATM   14  C   UNL     1      -9.387   8.146  67.673  1.00  0.00    -0.160 A  
HETATM   15  C   UNL     1      -9.918  10.109  66.329  1.00  0.00    -0.304 A  
HETATM   16  C   UNL     1     -10.853   9.885  68.546  1.00  0.00    -0.257 A  
HETATM   17  C   UNL     1      -9.263   8.884  66.482  1.00  0.00    -0.231 A  
HETATM   18 BR   UNL     1     -11.603  12.255  67.152  1.00  0.00    -0.402 Br 
HETATM   19  C   UNL     1     -10.194   8.663  68.701  1.00  0.00    -0.214 A  
HETATM   20  C   UNL     1     -10.710  10.602  67.362  1.00  0.00    -0.276 A  
ENDBRANCH   7  14
ENDBRANCH   6   7
ENDBRANCH   5   6
ENDBRANCH   4   5
ENDBRANCH   2   4
TORSDOF 6
ENDMDL
MODEL      172
REMARK 921   NORMALIZED FREE ENERGY PREDICTED BY IDOCK:   -2.46 KCAL/MOL
REMARK 922        TOTAL FREE ENERGY PREDICTED BY IDOCK:   -4.24 KCAL/MOL
REMARK 923 INTER-LIGAND FREE ENERGY PREDICTED BY IDOCK:   -4.94 KCAL/MOL
REMARK 924 INTRA-LIGAND FREE ENERGY PREDICTED BY IDOCK:    0.70 KCAL/MOL
REMARK 927      BINDING AFFINITY PREDICTED BY RF-SCORE:    0.00 PKD
ROOT
HETATM    1  C   UNL     1      -9.104   9.467  67.473  1.00  0.00    -0.130 C  
HETATM    2  N   UNL     1      -9.781   8.759  66.384  1.00  0.00    -0.247 NA 
HETATM    3  C   UNL     1      -8.867   8.622  65.246  1.00  0.00    -0.135 C  
ENDROOT
BRANCH   2   4
HETATM    4  C   UNL     1     -10.281   7.451  66.858  1.00  0.00    -0.276 C  
BRANCH   4   5
HETATM    5  C   UNL     1     -10.566   7.418  68.369  1.00  0.00    -0.152 C  
BRANCH   5   6
HETATM    6  O   UNL     1     -11.122   6.155  68.753  1.00  0.00    -0.344 OA 
BRANCH   6   7
HETATM    7  C   UNL     1     -11.403   6.103  70.167  1.00  0.00    -0.363 C  
BRANCH   7   8
HETATM    8  C   UNL     1     -10.215   5.552  70.951  1.00  0.00    -0.293 A  
HETATM    9  C   UNL     1      -9.288   4.705  70.323  1.00  0.00    -0.218 A  
HETATM   10  C   UNL     1     -10.008   5.897  72.296  1.00  0.00    -0.193 A  
HETATM   11  C   UNL     1      -8.191   4.205  71.030  1.00  0.00    -0.079 A  
HETATM   12  C   UNL     1      -8.915   5.391  73.001  1.00  0.00    -0.119 A  
HETATM   13  C   UNL     1      -8.008   4.544  72.369  1.00  0.00    -0.094 A  
ENDBRANCH   7   8
BRANCH   7  14
HETATM   14  C   UNL     1     -11.820   7.480  70.672  1.00  0.00    -0.205 A  
HETATM   15  C   UNL     1     -11.326   9.852  70.932  1.00  0.00    -0.446 A  
HETATM   16  C   UNL     1     -13.468   8.987  71.646  1.00  0.00    -0.442 A  
HETATM   17  C   UNL     1     -10.948   8.572  70.519  1.00  0.00    -0.263 A  
HETATM   18 BR   UNL     1     -13.102  11.786  72.043  1.00  0.00    -0.237 Br 
HETATM   19  C   UNL     1     -13.087   7.707  71.238  1.00  0.00    -0.279 A  
HETATM   20  C   UNL     1     -12.585  10.052  71.492  1.00  0.00    -0.425 A  
ENDBRANCH   7  14
ENDBRANCH   6   7
ENDBRANCH   5   6
ENDBRANCH   4   5
ENDBRANCH   2   4
TORSDOF 6
ENDMDL
MODEL      173
REMARK 921   NORMALIZED FREE ENERGY PREDICTED BY IDOCK:   -2.21 KCAL/MOL
REMARK 922        TOTAL FREE ENERGY PREDICTED BY IDOCK:   -3.90 KCAL/MOL
REMARK 923 INTER-LIGAND FREE ENERGY PREDICTED BY IDOCK:   -4.38 KCAL/MOL
REMARK 924 INTRA-LIGAND FREE ENERGY PREDICTED BY IDOCK:    0.48 KCAL/MOL
REMARK 927      BINDING AFFINITY PREDICTED BY RF-SCORE:    0.00 PKD
ROOT
HETATM    1  C   UNL     1      -5.205  14.282  67.962  1.00  0.00    -0.102 C  
HETATM    2  N   UNL     1      -5.525  15.058  69.163  1.00  0.00    -0.093 NA 
HETATM    3  C   UNL     1      -5.470  16.489  68.849  1.00  0.00    -0.126 C  
ENDROOT
BRANCH   2   4
HETATM    4  C   UNL     1      -6.844  14.655  69.695  1.00  0.00    -0.163 C  
BRANCH   4   5
HETATM    5  C   UNL     1      -7.944  14.599  68.622  1.00  0.00    -0.141 C  
BRANCH   5   6
HETATM    6  O   UNL     1      -8.119  13.260  68.144  1.00  0.00    -0.140 OA 
BRANCH   6   7
HETATM    7  C   UNL     1      -9.513  12.903  68.053  1.00  0.00    -0.213 C  
BRANCH   7   8
HETATM    8  C   UNL     1     -10.199  13.626  66.898  1.00  0.00    -0.261 A  
HETATM    9  C   UNL     1     -11.533  13.331  66.573  1.00  0.00    -0.372 A  
HETATM   10  C   UNL     1      -9.529  14.613  66.157  1.00  0.00    -0.308 A  
HETATM   11  C   UNL     1     -12.172  13.997  65.524  1.00  0.00    -0.455 A  
HETATM   12  C   UNL     1     -10.169  15.272  65.106  1.00  0.00    -0.374 A  
HETATM   13  C   UNL     1     -11.489  14.963  64.788  1.00  0.00    -0.410 A  
ENDBRANCH   7   8
BRANCH   7  14
HETATM   14  C   UNL     1      -9.662  11.389  67.936  1.00  0.00    -0.186 A  
HETATM   15  C   UNL     1     -11.090   9.416  67.998  1.00  0.00    -0.004 A  
HETATM   16  C   UNL     1      -8.755   9.189  67.414  1.00  0.00    -0.118 A  
HETATM   17  C   UNL     1     -10.919  10.795  68.144  1.00  0.00    -0.308 A  
HETATM   18 BR   UNL     1     -10.239   6.756  67.426  1.00  0.00    -0.291 Br 
HETATM   19  C   UNL     1      -8.584  10.567  67.566  1.00  0.00    -0.121 A  
HETATM   20  C   UNL     1     -10.006   8.621  67.633  1.00  0.00    -0.194 A  
ENDBRANCH   7  14
ENDBRANCH   6   7
ENDBRANCH   5   6
ENDBRANCH   4   5
ENDBRANCH   2   4
TORSDOF 6
ENDMDL
MODEL      174
REMARK 921   NORMALIZED FREE ENERGY PREDICTED BY IDOCK:   -2.17 KCAL/MOL
REMARK 922        TOTAL FREE ENERGY PREDICTED BY IDOCK:   -3.85 KCAL/MOL
REMARK 923 INTER-LIGAND FREE ENERGY PREDICTED BY IDOCK:   -3.02 KCAL/MOL
REMARK 924 INTRA-LIGAND FREE ENERGY PREDICTED BY IDOCK:   -0.83 KCAL/MOL
REMARK 927      BINDING AFFINITY PREDICTED BY RF-SCORE:    0.00 PKD
ROOT
HETATM    1  C   UNL     1     -10.849   4.997  66.119  1.00  0.00    -0.095 C  
HETATM    2  N   UNL     1      -9.566   4.291  66.095  1.00  0.00    -0.177 NA 
HETATM    3  C   UNL     1      -8.933   4.471  64.786  1.00  0.00    -0.152 C  
ENDROOT
BRANCH   2   4
HETATM    4  C   UNL     1      -8.704   4.762  67.200  1.00  0.00    -0.103 C  
BRANCH   4   5
HETATM    5  C   UNL     1      -9.194   6.070  67.842  1.00  0.00    -0.111 C  
BRANCH   5   6
HETATM    6  O   UNL     1      -8.375   6.425  68.962  1.00  0.00    -0.116 OA 
BRANCH   6   7
HETATM    7  C   UNL     1      -9.134   7.099  69.987  1.00  0.00    -0.145 C  
BRANCH   7   8
HETATM    8  C   UNL     1      -8.387   7.111  71.317  1.00  0.00    -0.113 A  
HETATM    9  C   UNL     1      -7.096   6.565  71.405  1.00  0.00    -0.077 A  
HETATM   10  C   UNL     1      -8.954   7.684  72.466  1.00  0.00    -0.191 A  
HETATM   11  C   UNL     1      -6.400   6.581  72.616  1.00  0.00    -0.058 A  
HETATM   12  C   UNL     1      -8.259   7.693  73.675  1.00  0.00    -0.218 A  
HETATM   13  C   UNL     1      -6.983   7.140  73.752  1.00  0.00    -0.078 A  
ENDBRANCH   7   8
BRANCH   7  14
HETATM   14  C   UNL     1      -9.495   8.509  69.533  1.00  0.00    -0.165 A  
HETATM   15  C   UNL     1     -11.166  10.267  69.289  1.00  0.00    -0.281 A  
HETATM   16  C   UNL     1      -8.868  10.704  68.681  1.00  0.00    -0.151 A  
HETATM   17  C   UNL     1     -10.820   8.963  69.656  1.00  0.00    -0.186 A  
HETATM   18 BR   UNL     1     -10.652  12.896  68.316  1.00  0.00    -0.268 Br 
HETATM   19  C   UNL     1      -8.524   9.400  69.043  1.00  0.00    -0.129 A  
HETATM   20  C   UNL     1     -10.187  11.130  68.805  1.00  0.00    -0.206 A  
ENDBRANCH   7  14
ENDBRANCH   6   7
ENDBRANCH   5   6
ENDBRANCH   4   5
ENDBRANCH   2   4
TORSDOF 6
ENDMDL
MODEL      175
REMARK 921   NORMALIZED FREE ENERGY PREDICTED BY IDOCK:   -2.16 KCAL/MOL
REMARK 922        TOTAL FREE ENERGY PREDICTED BY IDOCK:   -3.83 KCAL/MOL
REMARK 923 INTER-LIGAND FREE ENERGY PREDICTED BY IDOCK:   -4.43 KCAL/MOL
REMARK 924 INTRA-LIGAND FREE ENERGY PREDICTED BY IDOCK:    0.60 KCAL/MOL
REMARK 927      BINDING AFFINITY PREDICTED BY RF-SCORE:    0.00 PKD
ROOT
HETATM    1  C   UNL     1      -7.570   6.495  74.566  1.00  0.00    -0.099 C  
HETATM    2  N   UNL     1      -6.861   7.553  73.843  1.00  0.00    -0.083 NA 
HETATM    3  C   UNL     1      -5.448   7.550  74.234  1.00  0.00    -0.057 C  
ENDROOT
BRANCH   2   4
HETATM    4  C   UNL     1      -7.035   7.381  72.385  1.00  0.00    -0.063 C  
BRANCH   4   5
HETATM    5  C   UNL     1      -7.403   8.684  71.657  1.00  0.00    -0.093 C  
BRANCH   5   6
HETATM    6  O   UNL     1      -8.738   9.088  71.981  1.00  0.00    -0.367 OA 
BRANCH   6   7
HETATM    7  C   UNL     1      -9.720   8.321  71.255  1.00  0.00    -0.176 C  
BRANCH   7   8
HETATM    8  C   UNL     1     -11.124   8.887  71.448  1.00  0.00    -0.376 A  
HETATM    9  C   UNL     1     -11.414  10.202  71.051  1.00  0.00    -0.436 A  
HETATM   10  C   UNL     1     -12.154   8.108  71.998  1.00  0.00    -0.388 A  
HETATM   11  C   UNL     1     -12.699  10.725  71.214  1.00  0.00    -0.546 A  
HETATM   12  C   UNL     1     -13.435   8.635  72.165  1.00  0.00    -0.434 A  
HETATM   13  C   UNL     1     -13.708   9.944  71.775  1.00  0.00    -0.268 A  
ENDBRANCH   7   8
BRANCH   7  14
HETATM   14  C   UNL     1      -9.342   8.244  69.780  1.00  0.00    -0.158 A  
HETATM   15  C   UNL     1      -8.087   7.161  67.994  1.00  0.00    -0.120 A  
HETATM   16  C   UNL     1      -9.619   8.954  67.466  1.00  0.00    -0.183 A  
HETATM   17  C   UNL     1      -8.415   7.280  69.348  1.00  0.00    -0.133 A  
HETATM   18 BR   UNL     1      -8.256   7.831  65.229  1.00  0.00    -0.130 Br 
HETATM   19  C   UNL     1      -9.942   9.077  68.819  1.00  0.00    -0.194 A  
HETATM   20  C   UNL     1      -8.693   7.998  67.061  1.00  0.00    -0.128 A  
ENDBRANCH   7  14
ENDBRANCH   6   7
ENDBRANCH   5   6
ENDBRANCH   4   5
ENDBRANCH   2   4
TORSDOF 6
ENDMDL
MODEL      176
REMARK 921   NORMALIZED FREE ENERGY PREDICTED BY IDOCK:   -2.14 KCAL/MOL
REMARK 922        TOTAL FREE ENERGY PREDICTED BY IDOCK:   -3.80 KCAL/MOL
REMARK 923 INTER-LIGAND FREE ENERGY PREDICTED BY IDOCK:   -3.84 KCAL/MOL
REMARK 924 INTRA-LIGAND FREE ENERGY PREDICTED BY IDOCK:    0.04 KCAL/MOL
REMARK 927      BINDING AFFINITY PREDICTED BY RF-SCORE:    0.00 PKD
ROOT
HETATM    1  C   UNL     1      -8.053   4.031  68.909  1.00  0.00    -0.070 C  
HETATM    2  N   UNL     1      -7.769   5.468  68.931  1.00  0.00    -0.090 NA 
HETATM    3  C   UNL     1      -6.986   5.830  67.746  1.00  0.00    -0.066 C  
ENDROOT
BRANCH   2   4
HETATM    4  C   UNL     1      -9.028   6.237  69.022  1.00  0.00    -0.123 C  
BRANCH   4   5
HETATM    5  C   UNL     1      -9.057   7.470  68.105  1.00  0.00    -0.128 C  
BRANCH   5   6
HETATM    6  O   UNL     1     -10.348   7.627  67.504  1.00  0.00    -0.212 OA 
BRANCH   6   7
HETATM    7  C   UNL     1     -10.476   8.899  66.836  1.00  0.00    -0.234 C  
BRANCH   7   8
HETATM    8  C   UNL     1     -10.956   9.986  67.794  1.00  0.00    -0.310 A  
HETATM    9  C   UNL     1     -11.441  11.204  67.292  1.00  0.00    -0.218 A  
HETATM   10  C   UNL     1     -10.950   9.785  69.183  1.00  0.00    -0.205 A  
HETATM   11  C   UNL     1     -11.892  12.200  68.161  1.00  0.00    -0.362 A  
HETATM   12  C   UNL     1     -11.396  10.785  70.049  1.00  0.00    -0.397 A  
HETATM   13  C   UNL     1     -11.866  11.992  69.539  1.00  0.00    -0.390 A  
ENDBRANCH   7   8
BRANCH   7  14
HETATM   14  C   UNL     1      -9.158   9.278  66.170  1.00  0.00    -0.224 A  
HETATM   15  C   UNL     1      -7.727   9.257  64.198  1.00  0.00    -0.120 A  
HETATM   16  C   UNL     1      -7.021  10.448  66.179  1.00  0.00    -0.126 A  
HETATM   17  C   UNL     1      -8.908   8.883  64.844  1.00  0.00    -0.161 A  
HETATM   18 BR   UNL     1      -5.196  10.553  63.992  1.00  0.00    -0.148 Br 
HETATM   19  C   UNL     1      -8.199  10.069  66.827  1.00  0.00    -0.121 A  
HETATM   20  C   UNL     1      -6.790  10.039  64.870  1.00  0.00    -0.133 A  
ENDBRANCH   7  14
ENDBRANCH   6   7
ENDBRANCH   5   6
ENDBRANCH   4   5
ENDBRANCH   2   4
TORSDOF 6
ENDMDL
MODEL      177
REMARK 921   NORMALIZED FREE ENERGY PREDICTED BY IDOCK:   -2.05 KCAL/MOL
REMARK 922        TOTAL FREE ENERGY PREDICTED BY IDOCK:   -3.68 KCAL/MOL
REMARK 923 INTER-LIGAND FREE ENERGY PREDICTED BY IDOCK:   -2.81 KCAL/MOL
REMARK 924 INTRA-LIGAND FREE ENERGY PREDICTED BY IDOCK:   -0.87 KCAL/MOL
REMARK 927      BINDING AFFINITY PREDICTED BY RF-SCORE:    0.00 PKD
ROOT
HETATM    1  C   UNL     1      -5.145  11.426  73.591  1.00  0.00     0.468 C  
HETATM    2  N   UNL     1      -5.720  11.443  72.244  1.00  0.00     0.425 NA 
HETATM    3  C   UNL     1      -5.245  12.629  71.524  1.00  0.00    -0.090 C  
ENDROOT
BRANCH   2   4
HETATM    4  C   UNL     1      -5.390  10.191  71.531  1.00  0.00    -0.050 C  
BRANCH   4   5
HETATM    5  C   UNL     1      -6.383   9.847  70.410  1.00  0.00    -0.106 C  
BRANCH   5   6
HETATM    6  O   UNL     1      -7.682   9.571  70.949  1.00  0.00    -0.287 OA 
BRANCH   6   7
HETATM    7  C   UNL     1      -8.582   9.065  69.942  1.00  0.00    -0.140 C  
BRANCH   7   8
HETATM    8  C   UNL     1      -9.795   8.385  70.570  1.00  0.00    -0.204 A  
HETATM    9  C   UNL     1     -10.103   8.601  71.923  1.00  0.00    -0.398 A  
HETATM   10  C   UNL     1     -10.638   7.557  69.812  1.00  0.00    -0.245 A  
HETATM   11  C   UNL     1     -11.218   7.991  72.503  1.00  0.00    -0.452 A  
HETATM   12  C   UNL     1     -11.748   6.944  70.396  1.00  0.00    -0.377 A  
HETATM   13  C   UNL     1     -12.037   7.160  71.741  1.00  0.00    -0.363 A  
ENDBRANCH   7   8
BRANCH   7  14
HETATM   14  C   UNL     1      -8.994  10.186  68.993  1.00  0.00    -0.168 A  
HETATM   15  C   UNL     1      -9.026  11.116  66.741  1.00  0.00    -0.169 A  
HETATM   16  C   UNL     1     -10.201  12.249  68.523  1.00  0.00    -0.213 A  
HETATM   17  C   UNL     1      -8.622  10.124  67.639  1.00  0.00    -0.118 A  
HETATM   18 BR   UNL     1     -10.369  13.510  65.973  1.00  0.00    -0.312 Br 
HETATM   19  C   UNL     1      -9.792  11.261  69.421  1.00  0.00     0.186 A  
HETATM   20  C   UNL     1      -9.815  12.173  67.189  1.00  0.00    -0.197 A  
ENDBRANCH   7  14
ENDBRANCH   6   7
ENDBRANCH   5   6
ENDBRANCH   4   5
ENDBRANCH   2   4
TORSDOF 6
ENDMDL
MODEL      178
REMARK 921   NORMALIZED FREE ENERGY PREDICTED BY IDOCK:   -2.03 KCAL/MOL
REMARK 922        TOTAL FREE ENERGY PREDICTED BY IDOCK:   -3.66 KCAL/MOL
REMARK 923 INTER-LIGAND FREE ENERGY PREDICTED BY IDOCK:   -2.71 KCAL/MOL
REMARK 924 INTRA-LIGAND FREE ENERGY PREDICTED BY IDOCK:   -0.95 KCAL/MOL
REMARK 927      BINDING AFFINITY PREDICTED BY RF-SCORE:    0.00 PKD
ROOT
HETATM    1  C   UNL     1      -5.501  10.724  73.072  1.00  0.00     0.819 C  
HETATM    2  N   UNL     1      -5.846  10.750  71.649  1.00  0.00    -0.234 NA 
HETATM    3  C   UNL     1      -5.177  11.883  71.004  1.00  0.00    -0.128 C  
ENDROOT
BRANCH   2   4
HETATM    4  C   UNL     1      -5.494   9.461  71.014  1.00  0.00    -0.051 C  
BRANCH   4   5
HETATM    5  C   UNL     1      -6.175   9.246  69.653  1.00  0.00    -0.039 C  
BRANCH   5   6
HETATM    6  O   UNL     1      -7.595   9.399  69.766  1.00  0.00    -0.074 OA 
BRANCH   6   7
HETATM    7  C   UNL     1      -8.242   8.157  70.112  1.00  0.00    -0.119 C  
BRANCH   7   8
HETATM    8  C   UNL     1      -9.583   8.399  70.797  1.00  0.00    -0.203 A  
HETATM    9  C   UNL     1     -10.211   9.651  70.696  1.00  0.00    -0.346 A  
HETATM   10  C   UNL     1     -10.229   7.379  71.513  1.00  0.00    -0.205 A  
HETATM   11  C   UNL     1     -11.444   9.878  71.310  1.00  0.00    -0.435 A  
HETATM   12  C   UNL     1     -11.458   7.611  72.131  1.00  0.00    -0.345 A  
HETATM   13  C   UNL     1     -12.066   8.860  72.031  1.00  0.00    -0.442 A  
ENDBRANCH   7   8
BRANCH   7  14
HETATM   14  C   UNL     1      -8.391   7.279  68.874  1.00  0.00    -0.126 A  
HETATM   15  C   UNL     1      -7.879   5.202  67.707  1.00  0.00    -0.091 A  
HETATM   16  C   UNL     1      -9.396   6.797  66.708  1.00  0.00    -0.189 A  
HETATM   17  C   UNL     1      -7.721   6.044  68.810  1.00  0.00    -0.095 A  
HETATM   18 BR   UNL     1      -8.939   4.440  65.172  1.00  0.00    -0.149 Br 
HETATM   19  C   UNL     1      -9.233   7.641  67.809  1.00  0.00    -0.141 A  
HETATM   20  C   UNL     1      -8.717   5.584  66.662  1.00  0.00    -0.116 A  
ENDBRANCH   7  14
ENDBRANCH   6   7
ENDBRANCH   5   6
ENDBRANCH   4   5
ENDBRANCH   2   4
TORSDOF 6
ENDMDL
MODEL      179
REMARK 921   NORMALIZED FREE ENERGY PREDICTED BY IDOCK:   -2.02 KCAL/MOL
REMARK 922        TOTAL FREE ENERGY PREDICTED BY IDOCK:   -3.64 KCAL/MOL
REMARK 923 INTER-LIGAND FREE ENERGY PREDICTED BY IDOCK:   -3.98 KCAL/MOL
REMARK 924 INTRA-LIGAND FREE ENERGY PREDICTED BY IDOCK:    0.35 KCAL/MOL
REMARK 927      BINDING AFFINITY PREDICTED BY RF-SCORE:    0.00 PKD
ROOT
HETATM    1  C   UNL     1      -8.598   3.083  67.208  1.00  0.00    -0.106 C  
HETATM    2  N   UNL     1      -8.477   3.260  68.657  1.00  0.00    -0.076 NA 
HETATM    3  C   UNL     1      -7.364   4.168  68.948  1.00  0.00    -0.055 C  
ENDROOT
BRANCH   2   4
HETATM    4  C   UNL     1      -9.754   3.747  69.221  1.00  0.00    -0.050 C  
BRANCH   4   5
HETATM    5  C   UNL     1      -9.681   5.193  69.736  1.00  0.00    -0.193 C  
BRANCH   5   6
HETATM    6  O   UNL     1     -10.994   5.717  69.968  1.00  0.00    -0.336 OA 
BRANCH   6   7
HETATM    7  C   UNL     1     -10.965   7.135  70.234  1.00  0.00    -0.263 C  
BRANCH   7   8
HETATM    8  C   UNL     1     -10.033   7.464  71.396  1.00  0.00    -0.195 A  
HETATM    9  C   UNL     1      -8.802   8.096  71.156  1.00  0.00    -0.171 A  
HETATM   10  C   UNL     1     -10.391   7.170  72.721  1.00  0.00    -0.261 A  
HETATM   11  C   UNL     1      -7.949   8.411  72.216  1.00  0.00    -0.172 A  
HETATM   12  C   UNL     1      -9.533   7.481  73.777  1.00  0.00    -0.330 A  
HETATM   13  C   UNL     1      -8.311   8.100  73.525  1.00  0.00    -0.299 A  
ENDBRANCH   7   8
BRANCH   7  14
HETATM   14  C   UNL     1     -10.581   7.899  68.971  1.00  0.00    -0.177 A  
HETATM   15  C   UNL     1     -10.577   9.981  67.704  1.00  0.00    -0.323 A  
HETATM   16  C   UNL     1      -9.422   8.044  66.833  1.00  0.00    -0.244 A  
HETATM   17  C   UNL     1     -10.956   9.247  68.832  1.00  0.00    -0.050 A  
HETATM   18 BR   UNL     1      -9.290  10.370  65.191  1.00  0.00    -0.300 Br 
HETATM   19  C   UNL     1      -9.806   7.310  67.958  1.00  0.00    -0.167 A  
HETATM   20  C   UNL     1      -9.810   9.375  66.712  1.00  0.00    -0.218 A  
ENDBRANCH   7  14
ENDBRANCH   6   7
ENDBRANCH   5   6
ENDBRANCH   4   5
ENDBRANCH   2   4
TORSDOF 6
ENDMDL
MODEL      180
REMARK 921   NORMALIZED FREE ENERGY PREDICTED BY IDOCK:   -1.95 KCAL/MOL
REMARK 922        TOTAL FREE ENERGY PREDICTED BY IDOCK:   -3.56 KCAL/MOL
REMARK 923 INTER-LIGAND FREE ENERGY PREDICTED BY IDOCK:   -3.48 KCAL/MOL
REMARK 924 INTRA-LIGAND FREE ENERGY PREDICTED BY IDOCK:   -0.08 KCAL/MOL
REMARK 927      BINDING AFFINITY PREDICTED BY RF-SCORE:    0.00 PKD
ROOT
HETATM    1  C   UNL     1      -6.283   3.680  71.907  1.00  0.00    -0.014 C  
HETATM    2  N   UNL     1      -7.427   3.153  71.160  1.00  0.00    -0.033 NA 
HETATM    3  C   UNL     1      -8.060   2.077  71.928  1.00  0.00    -0.048 C  
ENDROOT
BRANCH   2   4
HETATM    4  C   UNL     1      -8.376   4.242  70.842  1.00  0.00    -0.079 C  
BRANCH   4   5
HETATM    5  C   UNL     1      -7.712   5.448  70.158  1.00  0.00    -0.077 C  
BRANCH   5   6
HETATM    6  O   UNL     1      -7.946   6.648  70.904  1.00  0.00    -0.107 OA 
BRANCH   6   7
HETATM    7  C   UNL     1      -8.549   7.675  70.090  1.00  0.00    -0.140 C  
BRANCH   7   8
HETATM    8  C   UNL     1      -8.584   7.271  68.619  1.00  0.00    -0.128 A  
HETATM    9  C   UNL     1      -7.494   7.559  67.783  1.00  0.00    -0.101 A  
HETATM   10  C   UNL     1      -9.684   6.586  68.079  1.00  0.00    -0.119 A  
HETATM   11  C   UNL     1      -7.513   7.183  66.437  1.00  0.00    -0.087 A  
HETATM   12  C   UNL     1      -9.702   6.218  66.733  1.00  0.00    -0.193 A  
HETATM   13  C   UNL     1      -8.619   6.517  65.912  1.00  0.00    -0.153 A  
ENDBRANCH   7   8
BRANCH   7  14
HETATM   14  C   UNL     1      -9.940   8.012  70.615  1.00  0.00    -0.198 A  
HETATM   15  C   UNL     1     -11.920   7.351  71.872  1.00  0.00    -0.337 A  
HETATM   16  C   UNL     1     -11.761   9.590  70.977  1.00  0.00    -0.419 A  
HETATM   17  C   UNL     1     -10.663   7.050  71.342  1.00  0.00    -0.241 A  
HETATM   18 BR   UNL     1     -14.159   9.031  72.411  1.00  0.00    -0.371 Br 
HETATM   19  C   UNL     1     -10.506   9.287  70.442  1.00  0.00    -0.296 A  
HETATM   20  C   UNL     1     -12.462   8.621  71.687  1.00  0.00    -0.335 A  
ENDBRANCH   7  14
ENDBRANCH   6   7
ENDBRANCH   5   6
ENDBRANCH   4   5
ENDBRANCH   2   4
TORSDOF 6
ENDMDL
MODEL      181
REMARK 921   NORMALIZED FREE ENERGY PREDICTED BY IDOCK:   -1.94 KCAL/MOL
REMARK 922        TOTAL FREE ENERGY PREDICTED BY IDOCK:   -3.53 KCAL/MOL
REMARK 923 INTER-LIGAND FREE ENERGY PREDICTED BY IDOCK:   -2.93 KCAL/MOL
REMARK 924 INTRA-LIGAND FREE ENERGY PREDICTED BY IDOCK:   -0.60 KCAL/MOL
REMARK 927      BINDING AFFINITY PREDICTED BY RF-SCORE:    0.00 PKD
ROOT
HETATM    1  C   UNL     1      -5.962  14.049  68.546  1.00  0.00    -0.092 C  
HETATM    2  N   UNL     1      -5.340  13.396  69.700  1.00  0.00    -0.086 NA 
HETATM    3  C   UNL     1      -5.420  14.281  70.865  1.00  0.00    -0.165 C  
ENDROOT
BRANCH   2   4
HETATM    4  C   UNL     1      -5.979  12.086  69.951  1.00  0.00    -0.149 C  
BRANCH   4   5
HETATM    5  C   UNL     1      -7.144  11.783  68.995  1.00  0.00    -0.100 C  
BRANCH   5   6
HETATM    6  O   UNL     1      -7.058  10.442  68.499  1.00  0.00    -0.071 OA 
BRANCH   6   7
HETATM    7  C   UNL     1      -8.326   9.975  67.995  1.00  0.00    -0.117 C  
BRANCH   7   8
HETATM    8  C   UNL     1      -8.177   9.330  66.620  1.00  0.00    -0.115 A  
HETATM    9  C   UNL     1      -8.221   7.933  66.489  1.00  0.00    -0.113 A  
HETATM   10  C   UNL     1      -8.020  10.110  65.464  1.00  0.00    -0.146 A  
HETATM   11  C   UNL     1      -8.097   7.334  65.233  1.00  0.00    -0.134 A  
HETATM   12  C   UNL     1      -7.889   9.508  64.211  1.00  0.00    -0.129 A  
HETATM   13  C   UNL     1      -7.926   8.121  64.095  1.00  0.00    -0.142 A  
ENDBRANCH   7   8
BRANCH   7  14
HETATM   14  C   UNL     1      -8.972   9.024  68.996  1.00  0.00    -0.140 A  
HETATM   15  C   UNL     1     -10.988   8.124  70.029  1.00  0.00    -0.199 A  
HETATM   16  C   UNL     1      -8.829   7.203  70.608  1.00  0.00    -0.149 A  
HETATM   17  C   UNL     1     -10.370   9.019  69.151  1.00  0.00    -0.229 A  
HETATM   18 BR   UNL     1     -11.050   6.004  71.933  1.00  0.00    -0.336 Br 
HETATM   19  C   UNL     1      -8.212   8.101  69.735  1.00  0.00    -0.122 A  
HETATM   20  C   UNL     1     -10.213   7.220  70.752  1.00  0.00    -0.197 A  
ENDBRANCH   7  14
ENDBRANCH   6   7
ENDBRANCH   5   6
ENDBRANCH   4   5
ENDBRANCH   2   4
TORSDOF 6
ENDMDL
MODEL      182
REMARK 921   NORMALIZED FREE ENERGY PREDICTED BY IDOCK:   -1.92 KCAL/MOL
REMARK 922        TOTAL FREE ENERGY PREDICTED BY IDOCK:   -3.51 KCAL/MOL
REMARK 923 INTER-LIGAND FREE ENERGY PREDICTED BY IDOCK:   -2.67 KCAL/MOL
REMARK 924 INTRA-LIGAND FREE ENERGY PREDICTED BY IDOCK:   -0.84 KCAL/MOL
REMARK 927      BINDING AFFINITY PREDICTED BY RF-SCORE:    0.00 PKD
ROOT
HETATM    1  C   UNL     1      -6.633   3.834  71.212  1.00  0.00    -0.026 C  
HETATM    2  N   UNL     1      -8.034   3.425  71.085  1.00  0.00    -0.058 NA 
HETATM    3  C   UNL     1      -8.488   2.837  72.348  1.00  0.00    -0.073 C  
ENDROOT
BRANCH   2   4
HETATM    4  C   UNL     1      -8.866   4.577  70.676  1.00  0.00    -0.100 C  
BRANCH   4   5
HETATM    5  C   UNL     1      -8.249   5.401  69.535  1.00  0.00    -0.096 C  
BRANCH   5   6
HETATM    6  O   UNL     1      -9.081   6.520  69.208  1.00  0.00    -0.137 OA 
BRANCH   6   7
HETATM    7  C   UNL     1      -8.305   7.654  68.769  1.00  0.00    -0.129 C  
BRANCH   7   8
HETATM    8  C   UNL     1      -7.794   7.461  67.344  1.00  0.00    -0.111 A  
HETATM    9  C   UNL     1      -8.699   7.216  66.298  1.00  0.00    -0.156 A  
HETATM   10  C   UNL     1      -6.426   7.548  67.043  1.00  0.00    -0.060 A  
HETATM   11  C   UNL     1      -8.240   7.049  64.989  1.00  0.00    -0.091 A  
HETATM   12  C   UNL     1      -5.971   7.375  65.736  1.00  0.00    -0.037 A  
HETATM   13  C   UNL     1      -6.877   7.123  64.709  1.00  0.00    -0.050 A  
ENDBRANCH   7   8
BRANCH   7  14
HETATM   14  C   UNL     1      -9.121   8.935  68.905  1.00  0.00    -0.140 A  
HETATM   15  C   UNL     1      -9.369  11.317  68.455  1.00  0.00    -0.181 A  
HETATM   16  C   UNL     1     -11.150  10.113  69.560  1.00  0.00    -0.295 A  
HETATM   17  C   UNL     1      -8.619  10.140  68.382  1.00  0.00    -0.119 A  
HETATM   18 BR   UNL     1     -11.649  12.887  69.133  1.00  0.00    -0.391 Br 
HETATM   19  C   UNL     1     -10.398   8.938  69.492  1.00  0.00    -0.213 A  
HETATM   20  C   UNL     1     -10.631  11.296  69.042  1.00  0.00    -0.208 A  
ENDBRANCH   7  14
ENDBRANCH   6   7
ENDBRANCH   5   6
ENDBRANCH   4   5
ENDBRANCH   2   4
TORSDOF 6
ENDMDL
MODEL      183
REMARK 921   NORMALIZED FREE ENERGY PREDICTED BY IDOCK:   -1.64 KCAL/MOL
REMARK 922        TOTAL FREE ENERGY PREDICTED BY IDOCK:   -3.13 KCAL/MOL
REMARK 923 INTER-LIGAND FREE ENERGY PREDICTED BY IDOCK:   -2.39 KCAL/MOL
REMARK 924 INTRA-LIGAND FREE ENERGY PREDICTED BY IDOCK:   -0.73 KCAL/MOL
REMARK 927      BINDING AFFINITY PREDICTED BY RF-SCORE:    0.00 PKD
ROOT
HETATM    1  C   UNL     1     -10.439   5.886  66.151  1.00  0.00     0.098 C  
HETATM    2  N   UNL     1      -9.345   5.068  65.621  1.00  0.00    -0.160 NA 
HETATM    3  C   UNL     1      -8.599   5.837  64.621  1.00  0.00     0.002 C  
ENDROOT
BRANCH   2   4
HETATM    4  C   UNL     1      -8.478   4.599  66.723  1.00  0.00    -0.105 C  
BRANCH   4   5
HETATM    5  C   UNL     1      -8.608   5.440  68.003  1.00  0.00    -0.100 C  
BRANCH   5   6
HETATM    6  O   UNL     1      -8.480   4.617  69.168  1.00  0.00    -0.079 OA 
BRANCH   6   7
HETATM    7  C   UNL     1      -9.065   5.240  70.330  1.00  0.00    -0.139 C  
BRANCH   7   8
HETATM    8  C   UNL     1      -9.495   4.202  71.362  1.00  0.00    -0.229 A  
HETATM    9  C   UNL     1     -10.192   4.600  72.514  1.00  0.00    -0.243 A  
HETATM   10  C   UNL     1      -9.230   2.836  71.174  1.00  0.00    -0.197 A  
HETATM   11  C   UNL     1     -10.600   3.655  73.459  1.00  0.00    -0.282 A  
HETATM   12  C   UNL     1      -9.634   1.896  72.123  1.00  0.00    -0.177 A  
HETATM   13  C   UNL     1     -10.316   2.304  73.266  1.00  0.00    -0.212 A  
ENDBRANCH   7   8
BRANCH   7  14
HETATM   14  C   UNL     1      -8.096   6.256  70.924  1.00  0.00    -0.124 A  
HETATM   15  C   UNL     1      -7.445   8.581  71.259  1.00  0.00    -0.107 A  
HETATM   16  C   UNL     1      -6.190   6.818  72.336  1.00  0.00    -0.045 A  
HETATM   17  C   UNL     1      -8.292   7.628  70.687  1.00  0.00    -0.125 A  
HETATM   18 BR   UNL     1      -5.257   9.458  72.861  1.00  0.00    -0.036 Br 
HETATM   19  C   UNL     1      -7.035   5.865  71.760  1.00  0.00    -0.073 A  
HETATM   20  C   UNL     1      -6.399   8.169  72.081  1.00  0.00    -0.057 A  
ENDBRANCH   7  14
ENDBRANCH   6   7
ENDBRANCH   5   6
ENDBRANCH   4   5
ENDBRANCH   2   4
TORSDOF 6
ENDMDL
MODEL      184
REMARK 921   NORMALIZED FREE ENERGY PREDICTED BY IDOCK:   -1.59 KCAL/MOL
REMARK 922        TOTAL FREE ENERGY PREDICTED BY IDOCK:   -3.06 KCAL/MOL
REMARK 923 INTER-LIGAND FREE ENERGY PREDICTED BY IDOCK:   -2.76 KCAL/MOL
REMARK 924 INTRA-LIGAND FREE ENERGY PREDICTED BY IDOCK:   -0.30 KCAL/MOL
REMARK 927      BINDING AFFINITY PREDICTED BY RF-SCORE:    0.00 PKD
ROOT
HETATM    1  C   UNL     1      -9.789   9.727  70.199  1.00  0.00    -0.255 C  
HETATM    2  N   UNL     1     -10.091  10.625  69.081  1.00  0.00    -0.215 NA 
HETATM    3  C   UNL     1      -8.843  11.171  68.541  1.00  0.00    -0.161 C  
ENDROOT
BRANCH   2   4
HETATM    4  C   UNL     1     -10.878   9.911  68.052  1.00  0.00    -0.243 C  
BRANCH   4   5
HETATM    5  C   UNL     1     -10.678   8.387  68.078  1.00  0.00    -0.055 C  
BRANCH   5   6
HETATM    6  O   UNL     1     -10.641   7.856  66.748  1.00  0.00    -0.326 OA 
BRANCH   6   7
HETATM    7  C   UNL     1      -9.423   7.125  66.498  1.00  0.00    -0.156 C  
BRANCH   7   8
HETATM    8  C   UNL     1      -8.579   7.802  65.422  1.00  0.00    -0.092 A  
HETATM    9  C   UNL     1      -8.743   9.170  65.153  1.00  0.00    -0.228 A  
HETATM   10  C   UNL     1      -7.610   7.086  64.700  1.00  0.00    -0.106 A  
HETATM   11  C   UNL     1      -7.966   9.799  64.177  1.00  0.00    -0.143 A  
HETATM   12  C   UNL     1      -6.841   7.716  63.722  1.00  0.00    -0.058 A  
HETATM   13  C   UNL     1      -7.019   9.072  63.458  1.00  0.00    -0.089 A  
ENDBRANCH   7   8
BRANCH   7  14
HETATM   14  C   UNL     1      -8.642   6.945  67.795  1.00  0.00    -0.122 A  
HETATM   15  C   UNL     1      -8.279   5.714  69.866  1.00  0.00    -0.109 A  
HETATM   16  C   UNL     1      -6.787   7.518  69.267  1.00  0.00    -0.056 A  
HETATM   17  C   UNL     1      -9.008   5.928  68.693  1.00  0.00    -0.116 A  
HETATM   18 BR   UNL     1      -6.180   6.216  71.728  1.00  0.00    -0.042 Br 
HETATM   19  C   UNL     1      -7.519   7.735  68.098  1.00  0.00    -0.108 A  
HETATM   20  C   UNL     1      -7.171   6.510  70.146  1.00  0.00    -0.080 A  
ENDBRANCH   7  14
ENDBRANCH   6   7
ENDBRANCH   5   6
ENDBRANCH   4   5
ENDBRANCH   2   4
TORSDOF 6
ENDMDL
MODEL      185
REMARK 921   NORMALIZED FREE ENERGY PREDICTED BY IDOCK:   -1.49 KCAL/MOL
REMARK 922        TOTAL FREE ENERGY PREDICTED BY IDOCK:   -2.93 KCAL/MOL
REMARK 923 INTER-LIGAND FREE ENERGY PREDICTED BY IDOCK:   -3.06 KCAL/MOL
REMARK 924 INTRA-LIGAND FREE ENERGY PREDICTED BY IDOCK:    0.12 KCAL/MOL
REMARK 927      BINDING AFFINITY PREDICTED BY RF-SCORE:    0.00 PKD
ROOT
HETATM    1  C   UNL     1      -9.858  10.117  69.762  1.00  0.00    -0.208 C  
HETATM    2  N   UNL     1     -10.232  11.174  68.820  1.00  0.00    -0.201 NA 
HETATM    3  C   UNL     1      -9.032  11.903  68.400  1.00  0.00    -0.163 C  
ENDROOT
BRANCH   2   4
HETATM    4  C   UNL     1     -10.965  10.599  67.671  1.00  0.00    -0.310 C  
BRANCH   4   5
HETATM    5  C   UNL     1     -10.608   9.130  67.395  1.00  0.00    -0.244 C  
BRANCH   5   6
HETATM    6  O   UNL     1     -10.132   8.966  66.053  1.00  0.00    -0.260 OA 
BRANCH   6   7
HETATM    7  C   UNL     1      -9.063   8.001  65.979  1.00  0.00    -0.142 C  
BRANCH   7   8
HETATM    8  C   UNL     1      -7.697   8.679  66.013  1.00  0.00    -0.100 A  
HETATM    9  C   UNL     1      -7.598  10.073  65.874  1.00  0.00    -0.114 A  
HETATM   10  C   UNL     1      -6.521   7.937  66.209  1.00  0.00    -0.047 A  
HETATM   11  C   UNL     1      -6.352  10.703  65.916  1.00  0.00    -0.128 A  
HETATM   12  C   UNL     1      -5.278   8.569  66.243  1.00  0.00    -0.031 A  
HETATM   13  C   UNL     1      -5.192   9.951  66.095  1.00  0.00    -0.039 A  
ENDBRANCH   7   8
BRANCH   7  14
HETATM   14  C   UNL     1      -9.208   6.969  67.093  1.00  0.00    -0.153 A  
HETATM   15  C   UNL     1     -10.039   4.807  67.848  1.00  0.00    -0.119 A  
HETATM   16  C   UNL     1      -8.687   6.156  69.330  1.00  0.00    -0.122 A  
HETATM   17  C   UNL     1      -9.931   5.787  66.858  1.00  0.00    -0.200 A  
HETATM   18 BR   UNL     1      -9.553   3.667  70.415  1.00  0.00    -0.213 Br 
HETATM   19  C   UNL     1      -8.585   7.138  68.342  1.00  0.00    -0.123 A  
HETATM   20  C   UNL     1      -9.415   4.997  69.078  1.00  0.00    -0.137 A  
ENDBRANCH   7  14
ENDBRANCH   6   7
ENDBRANCH   5   6
ENDBRANCH   4   5
ENDBRANCH   2   4
TORSDOF 6
ENDMDL
MODEL      186
REMARK 921   NORMALIZED FREE ENERGY PREDICTED BY IDOCK:    1.24 KCAL/MOL
REMARK 922        TOTAL FREE ENERGY PREDICTED BY IDOCK:    0.75 KCAL/MOL
REMARK 923 INTER-LIGAND FREE ENERGY PREDICTED BY IDOCK:    1.42 KCAL/MOL
REMARK 924 INTRA-LIGAND FREE ENERGY PREDICTED BY IDOCK:   -0.66 KCAL/MOL
REMARK 927      BINDING AFFINITY PREDICTED BY RF-SCORE:    0.00 PKD
ROOT
HETATM    1  C   UNL     1     -12.466  12.540  65.829  1.00  0.00     0.038 C  
HETATM    2  N   UNL     1     -11.878  13.256  64.694  1.00  0.00    -0.360 NA 
HETATM    3  C   UNL     1     -11.667  14.660  65.058  1.00  0.00    -0.385 C  
ENDROOT
BRANCH   2   4
HETATM    4  C   UNL     1     -10.624  12.597  64.268  1.00  0.00    -0.384 C  
BRANCH   4   5
HETATM    5  C   UNL     1      -9.374  13.464  64.488  1.00  0.00     1.393 C  
BRANCH   5   6
HETATM    6  O   UNL     1      -8.450  12.810  65.365  1.00  0.00     1.368 OA 
BRANCH   6   7
HETATM    7  C   UNL     1      -8.813  12.984  66.750  1.00  0.00    -0.137 C  
BRANCH   7   8
HETATM    8  C   UNL     1      -8.587  11.704  67.551  1.00  0.00    -0.149 A  
HETATM    9  C   UNL     1      -8.590  10.458  66.904  1.00  0.00    -0.127 A  
HETATM   10  C   UNL     1      -8.346  11.744  68.933  1.00  0.00     0.073 A  
HETATM   11  C   UNL     1      -8.372   9.283  67.627  1.00  0.00    -0.116 A  
HETATM   12  C   UNL     1      -8.136  10.568  69.653  1.00  0.00    -0.058 A  
HETATM   13  C   UNL     1      -8.150   9.337  69.002  1.00  0.00    -0.106 A  
ENDBRANCH   7   8
BRANCH   7  14
HETATM   14  C   UNL     1      -8.054  14.163  67.349  1.00  0.00    -0.205 A  
HETATM   15  C   UNL     1      -6.198  15.737  67.227  1.00  0.00    -0.068 A  
HETATM   16  C   UNL     1      -7.842  15.956  68.985  1.00  0.00    -0.216 A  
HETATM   17  C   UNL     1      -6.884  14.629  66.723  1.00  0.00     1.367 A  
HETATM   18 BR   UNL     1      -5.757  17.899  69.031  1.00  0.00    -0.208 Br 
HETATM   19  C   UNL     1      -8.525  14.845  68.485  1.00  0.00    -0.163 A  
HETATM   20  C   UNL     1      -6.682  16.395  68.355  1.00  0.00    -0.141 A  
ENDBRANCH   7  14
ENDBRANCH   6   7
ENDBRANCH   5   6
ENDBRANCH   4   5
ENDBRANCH   2   4
TORSDOF 6
ENDMDL
MODEL      187
REMARK 921   NORMALIZED FREE ENERGY PREDICTED BY IDOCK:    1.72 KCAL/MOL
REMARK 922        TOTAL FREE ENERGY PREDICTED BY IDOCK:    1.41 KCAL/MOL
REMARK 923 INTER-LIGAND FREE ENERGY PREDICTED BY IDOCK:   -3.64 KCAL/MOL
REMARK 924 INTRA-LIGAND FREE ENERGY PREDICTED BY IDOCK:    5.05 KCAL/MOL
REMARK 927      BINDING AFFINITY PREDICTED BY RF-SCORE:    0.00 PKD
ROOT
HETATM    1  C   UNL     1     -11.507  16.655  64.166  1.00  0.00     0.662 C  
HETATM    2  N   UNL     1     -10.564  16.944  65.249  1.00  0.00    -0.650 NA 
HETATM    3  C   UNL     1     -10.579  18.381  65.540  1.00  0.00     0.048 C  
ENDROOT
BRANCH   2   4
HETATM    4  C   UNL     1     -10.889  16.131  66.440  1.00  0.00    -0.131 C  
BRANCH   4   5
HETATM    5  C   UNL     1     -11.560  14.790  66.099  1.00  0.00    -0.292 C  
BRANCH   5   6
HETATM    6  O   UNL     1     -11.276  13.810  67.104  1.00  0.00    -0.295 OA 
BRANCH   6   7
HETATM    7  C   UNL     1     -10.024  13.138  66.857  1.00  0.00    -0.245 C  
BRANCH   7   8
HETATM    8  C   UNL     1      -9.998  12.500  65.471  1.00  0.00    -0.248 A  
HETATM    9  C   UNL     1      -9.161  11.402  65.216  1.00  0.00    -0.087 A  
HETATM   10  C   UNL     1     -10.819  12.974  64.437  1.00  0.00    -0.409 A  
HETATM   11  C   UNL     1      -9.139  10.805  63.953  1.00  0.00    -0.207 A  
HETATM   12  C   UNL     1     -10.790  12.380  63.175  1.00  0.00    -0.090 A  
HETATM   13  C   UNL     1      -9.949  11.297  62.932  1.00  0.00    -0.282 A  
ENDBRANCH   7   8
BRANCH   7  14
HETATM   14  C   UNL     1      -8.861  14.104  67.055  1.00  0.00    -0.237 A  
HETATM   15  C   UNL     1      -6.690  14.590  68.049  1.00  0.00    -0.153 A  
HETATM   16  C   UNL     1      -7.697  16.180  66.532  1.00  0.00    -0.219 A  
HETATM   17  C   UNL     1      -7.788  13.741  67.889  1.00  0.00    -0.159 A  
HETATM   18 BR   UNL     1      -5.161  16.950  67.578  1.00  0.00    -0.151 Br 
HETATM   19  C   UNL     1      -8.798  15.333  66.376  1.00  0.00    -0.311 A  
HETATM   20  C   UNL     1      -6.651  15.805  67.368  1.00  0.00    -0.180 A  
ENDBRANCH   7  14
ENDBRANCH   6   7
ENDBRANCH   5   6
ENDBRANCH   4   5
ENDBRANCH   2   4
TORSDOF 6
ENDMDL
MODEL      188
REMARK 921   NORMALIZED FREE ENERGY PREDICTED BY IDOCK:    6.47 KCAL/MOL
REMARK 922        TOTAL FREE ENERGY PREDICTED BY IDOCK:    7.82 KCAL/MOL
REMARK 923 INTER-LIGAND FREE ENERGY PREDICTED BY IDOCK:   -0.94 KCAL/MOL
REMARK 924 INTRA-LIGAND FREE ENERGY PREDICTED BY IDOCK:    8.76 KCAL/MOL
REMARK 927      BINDING AFFINITY PREDICTED BY RF-SCORE:    0.00 PKD
ROOT
HETATM    1  C   UNL     1     -13.873  15.897  71.580  1.00  0.00     0.268 C  
HETATM    2  N   UNL     1     -13.061  14.860  70.939  1.00  0.00    -0.374 NA 
HETATM    3  C   UNL     1     -13.866  14.161  69.933  1.00  0.00     2.575 C  
ENDROOT
BRANCH   2   4
HETATM    4  C   UNL     1     -11.838  15.454  70.359  1.00  0.00    -0.335 C  
BRANCH   4   5
HETATM    5  C   UNL     1     -12.121  16.418  69.196  1.00  0.00     0.413 C  
BRANCH   5   6
HETATM    6  O   UNL     1     -10.922  17.088  68.788  1.00  0.00    -0.289 OA 
BRANCH   6   7
HETATM    7  C   UNL     1      -9.754  16.265  68.991  1.00  0.00    -0.252 C  
BRANCH   7   8
HETATM    8  C   UNL     1     -10.060  14.792  68.736  1.00  0.00    -0.237 A  
HETATM    9  C   UNL     1     -11.038  14.133  69.497  1.00  0.00    -0.222 A  
HETATM   10  C   UNL     1      -9.395  14.075  67.728  1.00  0.00    -0.205 A  
HETATM   11  C   UNL     1     -11.332  12.787  69.263  1.00  0.00    -0.307 A  
HETATM   12  C   UNL     1      -9.687  12.730  67.501  1.00  0.00    -0.201 A  
HETATM   13  C   UNL     1     -10.653  12.085  68.268  1.00  0.00    -0.233 A  
ENDBRANCH   7   8
BRANCH   7  14
HETATM   14  C   UNL     1      -8.604  16.760  68.121  1.00  0.00    -0.218 A  
HETATM   15  C   UNL     1      -7.804  17.548  65.958  1.00  0.00    -0.213 A  
HETATM   16  C   UNL     1      -6.299  17.499  67.848  1.00  0.00    -0.170 A  
HETATM   17  C   UNL     1      -8.831  17.049  66.764  1.00  0.00    -0.267 A  
HETATM   18 BR   UNL     1      -5.156  18.454  65.418  1.00  0.00    -0.220 Br 
HETATM   19  C   UNL     1      -7.324  16.996  68.652  1.00  0.00    -0.229 A  
HETATM   20  C   UNL     1      -6.544  17.771  66.506  1.00  0.00    -0.221 A  
ENDBRANCH   7  14
ENDBRANCH   6   7
ENDBRANCH   5   6
ENDBRANCH   4   5
ENDBRANCH   2   4
TORSDOF 6
ENDMDL
