MODEL        1
REMARK 921   NORMALIZED FREE ENERGY PREDICTED BY IDOCK:   -4.21 KCAL/MOL
REMARK 922        TOTAL FREE ENERGY PREDICTED BY IDOCK:   -5.34 KCAL/MOL
REMARK 923 INTER-LIGAND FREE ENERGY PREDICTED BY IDOCK:   -4.70 KCAL/MOL
REMARK 924 INTRA-LIGAND FREE ENERGY PREDICTED BY IDOCK:   -0.63 KCAL/MOL
REMARK 927      BINDING AFFINITY PREDICTED BY RF-SCORE:    0.00 PKD
ROOT
HETATM    1  O   UNL     1     -11.336  12.822  62.885  1.00  0.00    -0.666 OA 
HETATM    2  H   UNL     1     -10.904  12.274  62.241  1.00  0.00     0.000 HD 
HETATM    3  C   UNL     1     -10.581  12.918  64.095  1.00  0.00    -0.416 C  
ENDROOT
BRANCH   3   4
HETATM    4  C   UNL     1     -11.276  13.801  65.131  1.00  0.00    -0.316 C  
HETATM    5  N   UNL     1     -12.770  13.532  65.128  1.00  0.00    -0.438 N  
HETATM    6  O   UNL     1     -13.530  14.480  65.379  1.00  0.00    -0.379 OA 
HETATM    7 BR   UNL     1     -10.688  13.265  66.937  1.00  0.00    -0.283 Br 
HETATM    8  O   UNL     1     -13.150  12.368  64.929  1.00  0.00    -0.765 OA 
BRANCH   4   9
HETATM    9  C   UNL     1     -11.009  15.295  64.946  1.00  0.00    -0.430 C  
HETATM   10  O   UNL     1     -11.672  15.821  63.784  1.00  0.00    -1.009 OA 
HETATM   11  H   UNL     1     -11.507  16.749  63.669  1.00  0.00     0.000 HD 
ENDBRANCH   4   9
ENDBRANCH   3   4
TORSDOF 2
ENDMDL
MODEL        2
REMARK 921   NORMALIZED FREE ENERGY PREDICTED BY IDOCK:   -3.93 KCAL/MOL
REMARK 922        TOTAL FREE ENERGY PREDICTED BY IDOCK:   -5.03 KCAL/MOL
REMARK 923 INTER-LIGAND FREE ENERGY PREDICTED BY IDOCK:   -4.58 KCAL/MOL
REMARK 924 INTRA-LIGAND FREE ENERGY PREDICTED BY IDOCK:   -0.45 KCAL/MOL
REMARK 927      BINDING AFFINITY PREDICTED BY RF-SCORE:    0.00 PKD
ROOT
HETATM    1  O   UNL     1     -11.706  12.848  67.302  1.00  0.00    -0.341 OA 
HETATM    2  H   UNL     1     -11.890  12.285  68.045  1.00  0.00     0.000 HD 
HETATM    3  C   UNL     1     -11.496  12.097  66.104  1.00  0.00    -0.371 C  
ENDROOT
BRANCH   3   4
HETATM    4  C   UNL     1     -11.201  13.002  64.908  1.00  0.00    -0.302 C  
HETATM    5  N   UNL     1     -12.470  13.703  64.459  1.00  0.00    -0.327 N  
HETATM    6  O   UNL     1     -12.602  13.943  63.249  1.00  0.00    -0.824 OA 
HETATM    7 BR   UNL     1     -10.011  14.468  65.482  1.00  0.00    -0.333 Br 
HETATM    8  O   UNL     1     -13.282  14.048  65.330  1.00  0.00    -0.782 OA 
BRANCH   4   9
HETATM    9  C   UNL     1     -10.555  12.273  63.728  1.00  0.00    -0.451 C  
HETATM   10  O   UNL     1     -11.437  11.296  63.151  1.00  0.00    -0.850 OA 
HETATM   11  H   UNL     1     -11.037  10.843  62.419  1.00  0.00     0.000 HD 
ENDBRANCH   4   9
ENDBRANCH   3   4
TORSDOF 2
ENDMDL
MODEL        3
REMARK 921   NORMALIZED FREE ENERGY PREDICTED BY IDOCK:   -3.92 KCAL/MOL
REMARK 922        TOTAL FREE ENERGY PREDICTED BY IDOCK:   -5.01 KCAL/MOL
REMARK 923 INTER-LIGAND FREE ENERGY PREDICTED BY IDOCK:   -4.80 KCAL/MOL
REMARK 924 INTRA-LIGAND FREE ENERGY PREDICTED BY IDOCK:   -0.22 KCAL/MOL
REMARK 927      BINDING AFFINITY PREDICTED BY RF-SCORE:    0.00 PKD
ROOT
HETATM    1  O   UNL     1     -12.457  13.899  63.326  1.00  0.00    -1.113 OA 
HETATM    2  H   UNL     1     -13.266  13.592  62.934  1.00  0.00     0.000 HD 
HETATM    3  C   UNL     1     -12.608  14.160  64.723  1.00  0.00    -0.302 C  
ENDROOT
BRANCH   3   4
HETATM    4  C   UNL     1     -11.306  14.652  65.354  1.00  0.00    -0.344 C  
HETATM    5  N   UNL     1     -11.490  14.840  66.849  1.00  0.00    -0.358 N  
HETATM    6  O   UNL     1     -10.854  15.752  67.401  1.00  0.00    -0.315 OA 
HETATM    7 BR   UNL     1      -9.937  13.239  65.206  1.00  0.00    -0.133 Br 
HETATM    8  O   UNL     1     -12.222  14.040  67.450  1.00  0.00    -0.384 OA 
BRANCH   4   9
HETATM    9  C   UNL     1     -10.763  15.936  64.725  1.00  0.00    -0.229 C  
HETATM   10  O   UNL     1     -11.659  16.474  63.739  1.00  0.00    -1.617 OA 
HETATM   11  H   UNL     1     -11.323  17.271  63.348  1.00  0.00     0.000 HD 
ENDBRANCH   4   9
ENDBRANCH   3   4
TORSDOF 2
ENDMDL
MODEL        4
REMARK 921   NORMALIZED FREE ENERGY PREDICTED BY IDOCK:   -3.92 KCAL/MOL
REMARK 922        TOTAL FREE ENERGY PREDICTED BY IDOCK:   -5.01 KCAL/MOL
REMARK 923 INTER-LIGAND FREE ENERGY PREDICTED BY IDOCK:   -4.32 KCAL/MOL
REMARK 924 INTRA-LIGAND FREE ENERGY PREDICTED BY IDOCK:   -0.69 KCAL/MOL
REMARK 927      BINDING AFFINITY PREDICTED BY RF-SCORE:    0.00 PKD
ROOT
HETATM    1  O   UNL     1     -11.109  14.992  65.873  1.00  0.00    -0.336 OA 
HETATM    2  H   UNL     1     -10.647  15.805  66.040  1.00  0.00     0.000 HD 
HETATM    3  C   UNL     1     -10.353  14.112  65.038  1.00  0.00    -0.418 C  
ENDROOT
BRANCH   3   4
HETATM    4  C   UNL     1     -11.096  12.804  64.769  1.00  0.00    -0.302 C  
HETATM    5  N   UNL     1     -12.452  13.092  64.151  1.00  0.00    -0.330 N  
HETATM    6  O   UNL     1     -13.388  12.325  64.425  1.00  0.00    -0.786 OA 
HETATM    7 BR   UNL     1     -10.134  11.786  63.380  1.00  0.00    -0.463 Br 
HETATM    8  O   UNL     1     -12.541  14.045  63.363  1.00  0.00    -0.845 OA 
BRANCH   4   9
HETATM    9  C   UNL     1     -11.258  11.921  66.008  1.00  0.00    -0.324 C  
HETATM   10  O   UNL     1     -12.143  12.509  66.976  1.00  0.00    -0.521 OA 
HETATM   11  H   UNL     1     -12.244  11.961  67.745  1.00  0.00     0.000 HD 
ENDBRANCH   4   9
ENDBRANCH   3   4
TORSDOF 2
ENDMDL
MODEL        5
REMARK 921   NORMALIZED FREE ENERGY PREDICTED BY IDOCK:   -3.85 KCAL/MOL
REMARK 922        TOTAL FREE ENERGY PREDICTED BY IDOCK:   -4.93 KCAL/MOL
REMARK 923 INTER-LIGAND FREE ENERGY PREDICTED BY IDOCK:   -4.53 KCAL/MOL
REMARK 924 INTRA-LIGAND FREE ENERGY PREDICTED BY IDOCK:   -0.40 KCAL/MOL
REMARK 927      BINDING AFFINITY PREDICTED BY RF-SCORE:    0.00 PKD
ROOT
HETATM    1  O   UNL     1     -12.390  14.436  63.290  1.00  0.00    -1.079 OA 
HETATM    2  H   UNL     1     -12.717  15.256  62.939  1.00  0.00     0.000 HD 
HETATM    3  C   UNL     1     -11.546  14.641  64.425  1.00  0.00    -0.305 C  
ENDROOT
BRANCH   3   4
HETATM    4  C   UNL     1     -11.020  13.321  64.989  1.00  0.00    -0.313 C  
HETATM    5  N   UNL     1     -12.159  12.525  65.600  1.00  0.00    -0.434 N  
HETATM    6  O   UNL     1     -11.906  11.816  66.587  1.00  0.00    -0.569 OA 
HETATM    7 BR   UNL     1     -10.377  12.191  63.505  1.00  0.00    -0.444 Br 
HETATM    8  O   UNL     1     -13.269  12.581  65.050  1.00  0.00    -0.700 OA 
BRANCH   4   9
HETATM    9  C   UNL     1      -9.892  13.493  66.007  1.00  0.00    -0.265 C  
HETATM   10  O   UNL     1      -8.969  12.391  65.980  1.00  0.00    -0.421 OA 
HETATM   11  H   UNL     1      -8.269  12.497  66.612  1.00  0.00     0.000 HD 
ENDBRANCH   4   9
ENDBRANCH   3   4
TORSDOF 2
ENDMDL
MODEL        6
REMARK 921   NORMALIZED FREE ENERGY PREDICTED BY IDOCK:   -3.84 KCAL/MOL
REMARK 922        TOTAL FREE ENERGY PREDICTED BY IDOCK:   -4.92 KCAL/MOL
REMARK 923 INTER-LIGAND FREE ENERGY PREDICTED BY IDOCK:   -4.52 KCAL/MOL
REMARK 924 INTRA-LIGAND FREE ENERGY PREDICTED BY IDOCK:   -0.40 KCAL/MOL
REMARK 927      BINDING AFFINITY PREDICTED BY RF-SCORE:    0.00 PKD
ROOT
HETATM    1  O   UNL     1     -11.378  16.504  64.295  1.00  0.00    -1.249 OA 
HETATM    2  H   UNL     1     -10.913  17.214  63.868  1.00  0.00     0.000 HD 
HETATM    3  C   UNL     1     -10.481  15.530  64.833  1.00  0.00    -0.268 C  
ENDROOT
BRANCH   3   4
HETATM    4  C   UNL     1     -11.228  14.387  65.521  1.00  0.00    -0.330 C  
HETATM    5  N   UNL     1     -12.503  14.067  64.763  1.00  0.00    -0.394 N  
HETATM    6  O   UNL     1     -13.484  13.678  65.417  1.00  0.00    -0.550 OA 
HETATM    7 BR   UNL     1     -10.154  12.737  65.387  1.00  0.00    -0.244 Br 
HETATM    8  O   UNL     1     -12.483  14.156  63.526  1.00  0.00    -0.817 OA 
BRANCH   4   9
HETATM    9  C   UNL     1     -11.543  14.655  66.993  1.00  0.00    -0.371 C  
HETATM   10  O   UNL     1     -11.088  15.952  67.414  1.00  0.00    -0.301 OA 
HETATM   11  H   UNL     1     -11.284  16.119  68.328  1.00  0.00     0.000 HD 
ENDBRANCH   4   9
ENDBRANCH   3   4
TORSDOF 2
ENDMDL
MODEL        7
REMARK 921   NORMALIZED FREE ENERGY PREDICTED BY IDOCK:   -3.76 KCAL/MOL
REMARK 922        TOTAL FREE ENERGY PREDICTED BY IDOCK:   -4.83 KCAL/MOL
REMARK 923 INTER-LIGAND FREE ENERGY PREDICTED BY IDOCK:   -4.44 KCAL/MOL
REMARK 924 INTRA-LIGAND FREE ENERGY PREDICTED BY IDOCK:   -0.40 KCAL/MOL
REMARK 927      BINDING AFFINITY PREDICTED BY RF-SCORE:    0.00 PKD
ROOT
HETATM    1  O   UNL     1     -11.635  16.437  63.801  1.00  0.00    -1.605 OA 
HETATM    2  H   UNL     1     -11.390  17.323  63.563  1.00  0.00     0.000 HD 
HETATM    3  C   UNL     1     -11.089  16.055  65.065  1.00  0.00    -0.336 C  
ENDROOT
BRANCH   3   4
HETATM    4  C   UNL     1     -11.485  14.629  65.449  1.00  0.00    -0.352 C  
HETATM    5  N   UNL     1     -10.313  13.688  65.237  1.00  0.00    -0.337 N  
HETATM    6  O   UNL     1     -10.561  12.523  64.890  1.00  0.00    -0.282 OA 
HETATM    7 BR   UNL     1     -11.829  14.551  67.390  1.00  0.00    -0.369 Br 
HETATM    8  O   UNL     1      -9.174  14.115  65.477  1.00  0.00     0.154 OA 
BRANCH   4   9
HETATM    9  C   UNL     1     -12.718  14.110  64.706  1.00  0.00    -0.195 C  
HETATM   10  O   UNL     1     -12.473  13.956  63.298  1.00  0.00    -1.113 OA 
HETATM   11  H   UNL     1     -13.237  13.634  62.836  1.00  0.00     0.000 HD 
ENDBRANCH   4   9
ENDBRANCH   3   4
TORSDOF 2
ENDMDL
MODEL        8
REMARK 921   NORMALIZED FREE ENERGY PREDICTED BY IDOCK:   -3.72 KCAL/MOL
REMARK 922        TOTAL FREE ENERGY PREDICTED BY IDOCK:   -4.79 KCAL/MOL
REMARK 923 INTER-LIGAND FREE ENERGY PREDICTED BY IDOCK:   -4.15 KCAL/MOL
REMARK 924 INTRA-LIGAND FREE ENERGY PREDICTED BY IDOCK:   -0.64 KCAL/MOL
REMARK 927      BINDING AFFINITY PREDICTED BY RF-SCORE:    0.00 PKD
ROOT
HETATM    1  O   UNL     1     -11.059  11.201  63.263  1.00  0.00    -0.771 OA 
HETATM    2  H   UNL     1     -10.670  10.938  62.437  1.00  0.00     0.000 HD 
HETATM    3  C   UNL     1     -10.465  12.395  63.775  1.00  0.00    -0.443 C  
ENDROOT
BRANCH   3   4
HETATM    4  C   UNL     1     -11.092  12.819  65.104  1.00  0.00    -0.291 C  
HETATM    5  N   UNL     1     -10.950  11.705  66.126  1.00  0.00    -0.293 N  
HETATM    6  O   UNL     1     -11.853  11.572  66.966  1.00  0.00    -0.568 OA 
HETATM    7 BR   UNL     1     -10.052  14.313  65.864  1.00  0.00    -0.355 Br 
HETATM    8  O   UNL     1      -9.915  11.023  66.103  1.00  0.00    -0.215 OA 
BRANCH   4   9
HETATM    9  C   UNL     1     -12.557  13.243  64.986  1.00  0.00    -0.423 C  
HETATM   10  O   UNL     1     -13.362  12.230  64.360  1.00  0.00    -0.786 OA 
HETATM   11  H   UNL     1     -14.272  12.493  64.287  1.00  0.00     0.000 HD 
ENDBRANCH   4   9
ENDBRANCH   3   4
TORSDOF 2
ENDMDL
MODEL        9
REMARK 921   NORMALIZED FREE ENERGY PREDICTED BY IDOCK:   -3.70 KCAL/MOL
REMARK 922        TOTAL FREE ENERGY PREDICTED BY IDOCK:   -4.77 KCAL/MOL
REMARK 923 INTER-LIGAND FREE ENERGY PREDICTED BY IDOCK:   -4.20 KCAL/MOL
REMARK 924 INTRA-LIGAND FREE ENERGY PREDICTED BY IDOCK:   -0.57 KCAL/MOL
REMARK 927      BINDING AFFINITY PREDICTED BY RF-SCORE:    0.00 PKD
ROOT
HETATM    1  O   UNL     1     -10.099  10.238  65.192  1.00  0.00    -0.310 OA 
HETATM    2  H   UNL     1      -9.446   9.648  65.551  1.00  0.00     0.000 HD 
HETATM    3  C   UNL     1      -9.774  11.607  65.440  1.00  0.00    -0.229 C  
ENDROOT
BRANCH   3   4
HETATM    4  C   UNL     1     -10.824  12.555  64.862  1.00  0.00    -0.293 C  
HETATM    5  N   UNL     1     -12.136  12.398  65.609  1.00  0.00    -0.398 N  
HETATM    6  O   UNL     1     -13.189  12.558  64.972  1.00  0.00    -0.700 OA 
HETATM    7 BR   UNL     1     -10.282  14.418  65.217  1.00  0.00    -0.394 Br 
HETATM    8  O   UNL     1     -12.088  12.173  66.828  1.00  0.00    -0.609 OA 
BRANCH   4   9
HETATM    9  C   UNL     1     -11.051  12.382  63.359  1.00  0.00    -0.402 C  
HETATM   10  O   UNL     1     -11.853  11.227  63.064  1.00  0.00    -0.864 OA 
HETATM   11  H   UNL     1     -11.993  11.119  62.131  1.00  0.00     0.000 HD 
ENDBRANCH   4   9
ENDBRANCH   3   4
TORSDOF 2
ENDMDL
MODEL       10
REMARK 921   NORMALIZED FREE ENERGY PREDICTED BY IDOCK:   -3.68 KCAL/MOL
REMARK 922        TOTAL FREE ENERGY PREDICTED BY IDOCK:   -4.75 KCAL/MOL
REMARK 923 INTER-LIGAND FREE ENERGY PREDICTED BY IDOCK:   -4.32 KCAL/MOL
REMARK 924 INTRA-LIGAND FREE ENERGY PREDICTED BY IDOCK:   -0.43 KCAL/MOL
REMARK 927      BINDING AFFINITY PREDICTED BY RF-SCORE:    0.00 PKD
ROOT
HETATM    1  O   UNL     1     -12.200  14.120  67.753  1.00  0.00    -0.548 OA 
HETATM    2  H   UNL     1     -12.488  13.906  68.632  1.00  0.00     0.000 HD 
HETATM    3  C   UNL     1     -11.784  12.958  67.032  1.00  0.00    -0.385 C  
ENDROOT
BRANCH   3   4
HETATM    4  C   UNL     1     -11.321  13.301  65.616  1.00  0.00    -0.304 C  
HETATM    5  N   UNL     1     -12.520  13.603  64.735  1.00  0.00    -0.374 N  
HETATM    6  O   UNL     1     -12.450  13.294  63.536  1.00  0.00    -0.728 OA 
HETATM    7 BR   UNL     1     -10.308  14.993  65.657  1.00  0.00    -0.409 Br 
HETATM    8  O   UNL     1     -13.484  14.191  65.247  1.00  0.00    -0.606 OA 
BRANCH   4   9
HETATM    9  C   UNL     1     -10.454  12.218  64.972  1.00  0.00    -0.290 C  
HETATM   10  O   UNL     1      -9.751  12.707  63.818  1.00  0.00    -0.678 OA 
HETATM   11  H   UNL     1      -9.212  12.036  63.417  1.00  0.00     0.000 HD 
ENDBRANCH   4   9
ENDBRANCH   3   4
TORSDOF 2
ENDMDL
MODEL       11
REMARK 921   NORMALIZED FREE ENERGY PREDICTED BY IDOCK:   -3.68 KCAL/MOL
REMARK 922        TOTAL FREE ENERGY PREDICTED BY IDOCK:   -4.74 KCAL/MOL
REMARK 923 INTER-LIGAND FREE ENERGY PREDICTED BY IDOCK:   -4.27 KCAL/MOL
REMARK 924 INTRA-LIGAND FREE ENERGY PREDICTED BY IDOCK:   -0.47 KCAL/MOL
REMARK 927      BINDING AFFINITY PREDICTED BY RF-SCORE:    0.00 PKD
ROOT
HETATM    1  O   UNL     1      -9.988  13.009  63.650  1.00  0.00    -0.717 OA 
HETATM    2  H   UNL     1      -9.685  12.140  63.416  1.00  0.00     0.000 HD 
HETATM    3  C   UNL     1     -10.404  13.078  65.015  1.00  0.00    -0.318 C  
ENDROOT
BRANCH   3   4
HETATM    4  C   UNL     1     -10.890  14.478  65.392  1.00  0.00    -0.354 C  
HETATM    5  N   UNL     1     -11.799  15.024  64.306  1.00  0.00    -0.345 N  
HETATM    6  O   UNL     1     -11.783  16.247  64.098  1.00  0.00    -0.837 OA 
HETATM    7 BR   UNL     1     -12.051  14.354  66.983  1.00  0.00    -0.268 Br 
HETATM    8  O   UNL     1     -12.549  14.228  63.721  1.00  0.00    -0.821 OA 
BRANCH   4   9
HETATM    9  C   UNL     1      -9.759  15.467  65.679  1.00  0.00    -0.331 C  
HETATM   10  O   UNL     1     -10.199  16.568  66.491  1.00  0.00    -0.281 OA 
HETATM   11  H   UNL     1      -9.498  17.182  66.670  1.00  0.00     0.000 HD 
ENDBRANCH   4   9
ENDBRANCH   3   4
TORSDOF 2
ENDMDL
MODEL       12
REMARK 921   NORMALIZED FREE ENERGY PREDICTED BY IDOCK:   -3.65 KCAL/MOL
REMARK 922        TOTAL FREE ENERGY PREDICTED BY IDOCK:   -4.71 KCAL/MOL
REMARK 923 INTER-LIGAND FREE ENERGY PREDICTED BY IDOCK:   -4.25 KCAL/MOL
REMARK 924 INTRA-LIGAND FREE ENERGY PREDICTED BY IDOCK:   -0.46 KCAL/MOL
REMARK 927      BINDING AFFINITY PREDICTED BY RF-SCORE:    0.00 PKD
ROOT
HETATM    1  O   UNL     1     -12.330  14.807  67.936  1.00  0.00    -0.582 OA 
HETATM    2  H   UNL     1     -12.518  14.542  68.828  1.00  0.00     0.000 HD 
HETATM    3  C   UNL     1     -11.838  13.721  67.149  1.00  0.00    -0.406 C  
ENDROOT
BRANCH   3   4
HETATM    4  C   UNL     1     -11.537  14.147  65.713  1.00  0.00    -0.343 C  
HETATM    5  N   UNL     1     -10.720  15.427  65.709  1.00  0.00    -0.335 N  
HETATM    6  O   UNL     1     -10.900  16.226  64.778  1.00  0.00    -0.671 OA 
HETATM    7 BR   UNL     1     -10.353  12.811  64.873  1.00  0.00    -0.325 Br 
HETATM    8  O   UNL     1      -9.877  15.580  66.606  1.00  0.00    -0.238 OA 
BRANCH   4   9
HETATM    9  C   UNL     1     -12.786  14.318  64.846  1.00  0.00    -0.225 C  
HETATM   10  O   UNL     1     -12.471  14.324  63.443  1.00  0.00    -1.125 OA 
HETATM   11  H   UNL     1     -13.246  14.430  62.905  1.00  0.00     0.000 HD 
ENDBRANCH   4   9
ENDBRANCH   3   4
TORSDOF 2
ENDMDL
MODEL       13
REMARK 921   NORMALIZED FREE ENERGY PREDICTED BY IDOCK:   -3.64 KCAL/MOL
REMARK 922        TOTAL FREE ENERGY PREDICTED BY IDOCK:   -4.70 KCAL/MOL
REMARK 923 INTER-LIGAND FREE ENERGY PREDICTED BY IDOCK:   -4.07 KCAL/MOL
REMARK 924 INTRA-LIGAND FREE ENERGY PREDICTED BY IDOCK:   -0.64 KCAL/MOL
REMARK 927      BINDING AFFINITY PREDICTED BY RF-SCORE:    0.00 PKD
ROOT
HETATM    1  O   UNL     1     -12.658  12.635  63.086  1.00  0.00    -0.705 OA 
HETATM    2  H   UNL     1     -13.243  12.017  62.664  1.00  0.00     0.000 HD 
HETATM    3  C   UNL     1     -12.535  12.382  64.487  1.00  0.00    -0.435 C  
ENDROOT
BRANCH   3   4
HETATM    4  C   UNL     1     -11.593  13.376  65.165  1.00  0.00    -0.308 C  
HETATM    5  N   UNL     1     -11.758  14.754  64.549  1.00  0.00    -0.409 N  
HETATM    6  O   UNL     1     -10.756  15.483  64.484  1.00  0.00    -0.321 OA 
HETATM    7 BR   UNL     1     -12.145  13.614  67.044  1.00  0.00    -0.387 Br 
HETATM    8  O   UNL     1     -12.894  15.099  64.192  1.00  0.00    -0.604 OA 
BRANCH   4   9
HETATM    9  C   UNL     1     -10.123  12.956  65.129  1.00  0.00    -0.223 C  
HETATM   10  O   UNL     1      -9.667  12.702  63.790  1.00  0.00    -0.678 OA 
HETATM   11  H   UNL     1      -8.755  12.441  63.767  1.00  0.00     0.000 HD 
ENDBRANCH   4   9
ENDBRANCH   3   4
TORSDOF 2
ENDMDL
MODEL       14
REMARK 921   NORMALIZED FREE ENERGY PREDICTED BY IDOCK:   -3.61 KCAL/MOL
REMARK 922        TOTAL FREE ENERGY PREDICTED BY IDOCK:   -4.67 KCAL/MOL
REMARK 923 INTER-LIGAND FREE ENERGY PREDICTED BY IDOCK:   -4.41 KCAL/MOL
REMARK 924 INTRA-LIGAND FREE ENERGY PREDICTED BY IDOCK:   -0.25 KCAL/MOL
REMARK 927      BINDING AFFINITY PREDICTED BY RF-SCORE:    0.00 PKD
ROOT
HETATM    1  O   UNL     1      -9.146  14.008  66.038  1.00  0.00    -0.490 OA 
HETATM    2  H   UNL     1      -8.330  14.458  66.225  1.00  0.00     0.000 HD 
HETATM    3  C   UNL     1     -10.056  14.836  65.312  1.00  0.00    -0.354 C  
ENDROOT
BRANCH   3   4
HETATM    4  C   UNL     1     -11.368  14.113  65.011  1.00  0.00    -0.350 C  
HETATM    5  N   UNL     1     -11.139  13.024  63.978  1.00  0.00    -0.396 N  
HETATM    6  O   UNL     1     -12.059  12.777  63.183  1.00  0.00    -0.505 OA 
HETATM    7 BR   UNL     1     -11.956  13.139  66.623  1.00  0.00    -0.425 Br 
HETATM    8  O   UNL     1     -10.067  12.402  64.018  1.00  0.00    -0.352 OA 
BRANCH   4   9
HETATM    9  C   UNL     1     -12.494  15.043  64.555  1.00  0.00    -0.146 C  
HETATM   10  O   UNL     1     -12.007  16.117  63.733  1.00  0.00    -1.394 OA 
HETATM   11  H   UNL     1     -12.705  16.694  63.450  1.00  0.00     0.000 HD 
ENDBRANCH   4   9
ENDBRANCH   3   4
TORSDOF 2
ENDMDL
MODEL       15
REMARK 921   NORMALIZED FREE ENERGY PREDICTED BY IDOCK:   -3.58 KCAL/MOL
REMARK 922        TOTAL FREE ENERGY PREDICTED BY IDOCK:   -4.64 KCAL/MOL
REMARK 923 INTER-LIGAND FREE ENERGY PREDICTED BY IDOCK:   -3.94 KCAL/MOL
REMARK 924 INTRA-LIGAND FREE ENERGY PREDICTED BY IDOCK:   -0.69 KCAL/MOL
REMARK 927      BINDING AFFINITY PREDICTED BY RF-SCORE:    0.00 PKD
ROOT
HETATM    1  O   UNL     1      -9.213  11.597  65.834  1.00  0.00    -0.224 OA 
HETATM    2  H   UNL     1      -8.429  11.155  66.137  1.00  0.00     0.000 HD 
HETATM    3  C   UNL     1      -9.518  12.744  66.630  1.00  0.00    -0.249 C  
ENDROOT
BRANCH   3   4
HETATM    4  C   UNL     1     -10.779  13.457  66.143  1.00  0.00    -0.284 C  
HETATM    5  N   UNL     1     -11.940  12.480  66.083  1.00  0.00    -0.406 N  
HETATM    6  O   UNL     1     -12.792  12.646  65.197  1.00  0.00    -0.721 OA 
HETATM    7 BR   UNL     1     -11.332  14.789  67.488  1.00  0.00    -0.367 Br 
HETATM    8  O   UNL     1     -12.005  11.601  66.956  1.00  0.00    -0.593 OA 
BRANCH   4   9
HETATM    9  C   UNL     1     -10.610  14.156  64.793  1.00  0.00    -0.418 C  
HETATM   10  O   UNL     1     -10.281  13.229  63.744  1.00  0.00    -0.681 OA 
HETATM   11  H   UNL     1     -10.176  13.663  62.905  1.00  0.00     0.000 HD 
ENDBRANCH   4   9
ENDBRANCH   3   4
TORSDOF 2
ENDMDL
MODEL       16
REMARK 921   NORMALIZED FREE ENERGY PREDICTED BY IDOCK:   -3.55 KCAL/MOL
REMARK 922        TOTAL FREE ENERGY PREDICTED BY IDOCK:   -4.60 KCAL/MOL
REMARK 923 INTER-LIGAND FREE ENERGY PREDICTED BY IDOCK:   -3.91 KCAL/MOL
REMARK 924 INTRA-LIGAND FREE ENERGY PREDICTED BY IDOCK:   -0.69 KCAL/MOL
REMARK 927      BINDING AFFINITY PREDICTED BY RF-SCORE:    0.00 PKD
ROOT
HETATM    1  O   UNL     1     -12.223  14.429  67.265  1.00  0.00    -0.582 OA 
HETATM    2  H   UNL     1     -12.881  15.013  67.624  1.00  0.00     0.000 HD 
HETATM    3  C   UNL     1     -12.512  14.067  65.914  1.00  0.00    -0.481 C  
ENDROOT
BRANCH   3   4
HETATM    4  C   UNL     1     -11.453  13.128  65.336  1.00  0.00    -0.304 C  
HETATM    5  N   UNL     1     -11.109  12.048  66.346  1.00  0.00    -0.303 N  
HETATM    6  O   UNL     1      -9.944  11.621  66.362  1.00  0.00    -0.198 OA 
HETATM    7 BR   UNL     1     -12.223  12.142  63.811  1.00  0.00    -0.639 Br 
HETATM    8  O   UNL     1     -12.021  11.610  67.063  1.00  0.00    -0.593 OA 
BRANCH   4   9
HETATM    9  C   UNL     1     -10.182  13.842  64.875  1.00  0.00    -0.351 C  
HETATM   10  O   UNL     1      -9.527  14.529  65.955  1.00  0.00    -0.461 OA 
HETATM   11  H   UNL     1      -8.738  14.973  65.669  1.00  0.00     0.000 HD 
ENDBRANCH   4   9
ENDBRANCH   3   4
TORSDOF 2
ENDMDL
MODEL       17
REMARK 921   NORMALIZED FREE ENERGY PREDICTED BY IDOCK:   -3.50 KCAL/MOL
REMARK 922        TOTAL FREE ENERGY PREDICTED BY IDOCK:   -4.55 KCAL/MOL
REMARK 923 INTER-LIGAND FREE ENERGY PREDICTED BY IDOCK:   -3.85 KCAL/MOL
REMARK 924 INTRA-LIGAND FREE ENERGY PREDICTED BY IDOCK:   -0.70 KCAL/MOL
REMARK 927      BINDING AFFINITY PREDICTED BY RF-SCORE:    0.00 PKD
ROOT
HETATM    1  O   UNL     1     -13.231  12.521  64.748  1.00  0.00    -0.839 OA 
HETATM    2  H   UNL     1     -14.033  12.610  64.247  1.00  0.00     0.000 HD 
HETATM    3  C   UNL     1     -12.761  13.782  65.228  1.00  0.00    -0.439 C  
ENDROOT
BRANCH   3   4
HETATM    4  C   UNL     1     -11.470  13.639  66.034  1.00  0.00    -0.324 C  
HETATM    5  N   UNL     1     -10.454  12.826  65.252  1.00  0.00    -0.287 N  
HETATM    6  O   UNL     1      -9.675  12.103  65.892  1.00  0.00    -0.241 OA 
HETATM    7 BR   UNL     1     -10.627  15.412  66.230  1.00  0.00    -0.321 Br 
HETATM    8  O   UNL     1     -10.420  12.968  64.021  1.00  0.00    -0.418 OA 
BRANCH   4   9
HETATM    9  C   UNL     1     -11.675  13.032  67.423  1.00  0.00    -0.374 C  
HETATM   10  O   UNL     1     -12.096  11.659  67.354  1.00  0.00    -0.605 OA 
HETATM   11  H   UNL     1     -12.223  11.281  68.215  1.00  0.00     0.000 HD 
ENDBRANCH   4   9
ENDBRANCH   3   4
TORSDOF 2
ENDMDL
MODEL       18
REMARK 921   NORMALIZED FREE ENERGY PREDICTED BY IDOCK:   -3.46 KCAL/MOL
REMARK 922        TOTAL FREE ENERGY PREDICTED BY IDOCK:   -4.50 KCAL/MOL
REMARK 923 INTER-LIGAND FREE ENERGY PREDICTED BY IDOCK:   -3.83 KCAL/MOL
REMARK 924 INTRA-LIGAND FREE ENERGY PREDICTED BY IDOCK:   -0.67 KCAL/MOL
REMARK 927      BINDING AFFINITY PREDICTED BY RF-SCORE:    0.00 PKD
ROOT
HETATM    1  O   UNL     1     -12.441  13.873  63.414  1.00  0.00    -1.068 OA 
HETATM    2  H   UNL     1     -13.219  13.812  62.873  1.00  0.00     0.000 HD 
HETATM    3  C   UNL     1     -12.549  13.075  64.594  1.00  0.00    -0.362 C  
ENDROOT
BRANCH   3   4
HETATM    4  C   UNL     1     -11.296  13.173  65.464  1.00  0.00    -0.299 C  
HETATM    5  N   UNL     1     -10.809  14.610  65.517  1.00  0.00    -0.325 N  
HETATM    6  O   UNL     1      -9.587  14.804  65.604  1.00  0.00    -0.312 OA 
HETATM    7 BR   UNL     1     -11.769  12.749  67.332  1.00  0.00    -0.411 Br 
HETATM    8  O   UNL     1     -11.660  15.512  65.528  1.00  0.00    -0.090 OA 
BRANCH   4   9
HETATM    9  C   UNL     1     -10.162  12.249  65.018  1.00  0.00    -0.285 C  
HETATM   10  O   UNL     1      -9.647  12.613  63.726  1.00  0.00    -0.672 OA 
HETATM   11  H   UNL     1      -8.943  12.039  63.449  1.00  0.00     0.000 HD 
ENDBRANCH   4   9
ENDBRANCH   3   4
TORSDOF 2
ENDMDL
MODEL       19
REMARK 921   NORMALIZED FREE ENERGY PREDICTED BY IDOCK:   -3.36 KCAL/MOL
REMARK 922        TOTAL FREE ENERGY PREDICTED BY IDOCK:   -4.39 KCAL/MOL
REMARK 923 INTER-LIGAND FREE ENERGY PREDICTED BY IDOCK:   -3.69 KCAL/MOL
REMARK 924 INTRA-LIGAND FREE ENERGY PREDICTED BY IDOCK:   -0.69 KCAL/MOL
REMARK 927      BINDING AFFINITY PREDICTED BY RF-SCORE:    0.00 PKD
ROOT
HETATM    1  O   UNL     1     -12.288  14.107  67.935  1.00  0.00    -0.553 OA 
HETATM    2  H   UNL     1     -12.626  14.085  68.822  1.00  0.00     0.000 HD 
HETATM    3  C   UNL     1     -11.823  12.824  67.511  1.00  0.00    -0.343 C  
ENDROOT
BRANCH   3   4
HETATM    4  C   UNL     1     -11.279  12.859  66.083  1.00  0.00    -0.292 C  
HETATM    5  N   UNL     1     -10.340  14.040  65.911  1.00  0.00    -0.308 N  
HETATM    6  O   UNL     1     -10.302  14.592  64.801  1.00  0.00    -0.396 OA 
HETATM    7 BR   UNL     1     -10.134  11.279  65.787  1.00  0.00    -0.309 Br 
HETATM    8  O   UNL     1      -9.622  14.355  66.871  1.00  0.00    -0.237 OA 
BRANCH   4   9
HETATM    9  C   UNL     1     -12.367  12.891  65.009  1.00  0.00    -0.485 C  
HETATM   10  O   UNL     1     -13.250  14.014  65.170  1.00  0.00    -0.768 OA 
HETATM   11  H   UNL     1     -13.926  14.034  64.503  1.00  0.00     0.000 HD 
ENDBRANCH   4   9
ENDBRANCH   3   4
TORSDOF 2
ENDMDL
MODEL       20
REMARK 921   NORMALIZED FREE ENERGY PREDICTED BY IDOCK:   -3.34 KCAL/MOL
REMARK 922        TOTAL FREE ENERGY PREDICTED BY IDOCK:   -4.37 KCAL/MOL
REMARK 923 INTER-LIGAND FREE ENERGY PREDICTED BY IDOCK:   -3.92 KCAL/MOL
REMARK 924 INTRA-LIGAND FREE ENERGY PREDICTED BY IDOCK:   -0.45 KCAL/MOL
REMARK 927      BINDING AFFINITY PREDICTED BY RF-SCORE:    0.00 PKD
ROOT
HETATM    1  O   UNL     1     -13.367  14.063  65.356  1.00  0.00    -0.721 OA 
HETATM    2  H   UNL     1     -14.255  14.139  65.027  1.00  0.00     0.000 HD 
HETATM    3  C   UNL     1     -12.612  13.092  64.629  1.00  0.00    -0.322 C  
ENDROOT
BRANCH   3   4
HETATM    4  C   UNL     1     -11.183  12.971  65.157  1.00  0.00    -0.293 C  
HETATM    5  N   UNL     1     -11.201  12.572  66.622  1.00  0.00    -0.290 N  
HETATM    6  O   UNL     1     -10.296  13.007  67.352  1.00  0.00    -0.232 OA 
HETATM    7 BR   UNL     1     -10.283  11.465  64.254  1.00  0.00    -0.401 Br 
HETATM    8  O   UNL     1     -12.085  11.790  67.001  1.00  0.00    -0.575 OA 
BRANCH   4   9
HETATM    9  C   UNL     1     -10.345  14.236  64.966  1.00  0.00    -0.421 C  
HETATM   10  O   UNL     1     -11.089  15.283  64.321  1.00  0.00    -0.665 OA 
HETATM   11  H   UNL     1     -10.570  16.069  64.202  1.00  0.00     0.000 HD 
ENDBRANCH   4   9
ENDBRANCH   3   4
TORSDOF 2
ENDMDL
MODEL       21
REMARK 921   NORMALIZED FREE ENERGY PREDICTED BY IDOCK:   -3.32 KCAL/MOL
REMARK 922        TOTAL FREE ENERGY PREDICTED BY IDOCK:   -4.35 KCAL/MOL
REMARK 923 INTER-LIGAND FREE ENERGY PREDICTED BY IDOCK:   -3.88 KCAL/MOL
REMARK 924 INTRA-LIGAND FREE ENERGY PREDICTED BY IDOCK:   -0.47 KCAL/MOL
REMARK 927      BINDING AFFINITY PREDICTED BY RF-SCORE:    0.00 PKD
ROOT
HETATM    1  O   UNL     1     -10.148  20.322  65.480  1.00  0.00    -0.502 OA 
HETATM    2  H   UNL     1     -10.679  21.109  65.435  1.00  0.00     0.000 HD 
HETATM    3  C   UNL     1     -10.554  19.467  66.550  1.00  0.00    -0.458 C  
ENDROOT
BRANCH   3   4
HETATM    4  C   UNL     1      -9.701  18.200  66.623  1.00  0.00    -0.334 C  
HETATM    5  N   UNL     1      -8.254  18.527  66.302  1.00  0.00    -0.258 N  
HETATM    6  O   UNL     1      -7.580  17.664  65.719  1.00  0.00    -0.530 OA 
HETATM    7 BR   UNL     1      -9.654  17.555  68.486  1.00  0.00    -0.313 Br 
HETATM    8  O   UNL     1      -7.805  19.617  66.690  1.00  0.00    -0.260 OA 
BRANCH   4   9
HETATM    9  C   UNL     1     -10.198  17.070  65.719  1.00  0.00    -0.245 C  
HETATM   10  O   UNL     1     -11.047  17.556  64.666  1.00  0.00    -0.978 OA 
HETATM   11  H   UNL     1     -11.356  16.855  64.105  1.00  0.00     0.000 HD 
ENDBRANCH   4   9
ENDBRANCH   3   4
TORSDOF 2
ENDMDL
MODEL       22
REMARK 921   NORMALIZED FREE ENERGY PREDICTED BY IDOCK:   -3.32 KCAL/MOL
REMARK 922        TOTAL FREE ENERGY PREDICTED BY IDOCK:   -4.34 KCAL/MOL
REMARK 923 INTER-LIGAND FREE ENERGY PREDICTED BY IDOCK:   -4.08 KCAL/MOL
REMARK 924 INTRA-LIGAND FREE ENERGY PREDICTED BY IDOCK:   -0.26 KCAL/MOL
REMARK 927      BINDING AFFINITY PREDICTED BY RF-SCORE:    0.00 PKD
ROOT
HETATM    1  O   UNL     1     -11.532  15.151  64.147  1.00  0.00    -0.660 OA 
HETATM    2  H   UNL     1     -11.196  16.016  63.946  1.00  0.00     0.000 HD 
HETATM    3  C   UNL     1     -10.546  14.330  64.775  1.00  0.00    -0.412 C  
ENDROOT
BRANCH   3   4
HETATM    4  C   UNL     1     -11.087  12.938  65.100  1.00  0.00    -0.292 C  
HETATM    5  N   UNL     1     -12.010  13.004  66.304  1.00  0.00    -0.410 N  
HETATM    6  O   UNL     1     -12.039  12.026  67.067  1.00  0.00    -0.603 OA 
HETATM    7 BR   UNL     1     -12.252  12.334  63.626  1.00  0.00    -0.673 Br 
HETATM    8  O   UNL     1     -12.726  14.008  66.432  1.00  0.00    -0.369 OA 
BRANCH   4   9
HETATM    9  C   UNL     1      -9.996  11.890  65.330  1.00  0.00    -0.252 C  
HETATM   10  O   UNL     1      -8.815  12.463  65.916  1.00  0.00    -0.409 OA 
HETATM   11  H   UNL     1      -8.137  11.814  66.059  1.00  0.00     0.000 HD 
ENDBRANCH   4   9
ENDBRANCH   3   4
TORSDOF 2
ENDMDL
MODEL       23
REMARK 921   NORMALIZED FREE ENERGY PREDICTED BY IDOCK:   -3.30 KCAL/MOL
REMARK 922        TOTAL FREE ENERGY PREDICTED BY IDOCK:   -4.32 KCAL/MOL
REMARK 923 INTER-LIGAND FREE ENERGY PREDICTED BY IDOCK:   -3.83 KCAL/MOL
REMARK 924 INTRA-LIGAND FREE ENERGY PREDICTED BY IDOCK:   -0.50 KCAL/MOL
REMARK 927      BINDING AFFINITY PREDICTED BY RF-SCORE:    0.00 PKD
ROOT
HETATM    1  O   UNL     1      -7.725  18.230  65.921  1.00  0.00    -0.475 OA 
HETATM    2  H   UNL     1      -6.810  18.314  66.163  1.00  0.00     0.000 HD 
HETATM    3  C   UNL     1      -8.561  18.034  67.063  1.00  0.00    -0.245 C  
ENDROOT
BRANCH   3   4
HETATM    4  C   UNL     1     -10.034  17.900  66.675  1.00  0.00    -0.355 C  
HETATM    5  N   UNL     1     -10.174  16.987  65.469  1.00  0.00    -0.163 N  
HETATM    6  O   UNL     1     -11.087  17.227  64.665  1.00  0.00    -1.052 OA 
HETATM    7 BR   UNL     1     -11.001  16.958  68.114  1.00  0.00    -0.200 Br 
HETATM    8  O   UNL     1      -9.404  16.019  65.381  1.00  0.00    -0.339 OA 
BRANCH   4   9
HETATM    9  C   UNL     1     -10.725  19.237  66.406  1.00  0.00    -0.386 C  
HETATM   10  O   UNL     1      -9.785  20.274  66.078  1.00  0.00    -0.611 OA 
HETATM   11  H   UNL     1     -10.213  21.104  65.911  1.00  0.00     0.000 HD 
ENDBRANCH   4   9
ENDBRANCH   3   4
TORSDOF 2
ENDMDL
MODEL       24
REMARK 921   NORMALIZED FREE ENERGY PREDICTED BY IDOCK:   -3.29 KCAL/MOL
REMARK 922        TOTAL FREE ENERGY PREDICTED BY IDOCK:   -4.31 KCAL/MOL
REMARK 923 INTER-LIGAND FREE ENERGY PREDICTED BY IDOCK:   -3.87 KCAL/MOL
REMARK 924 INTRA-LIGAND FREE ENERGY PREDICTED BY IDOCK:   -0.44 KCAL/MOL
REMARK 927      BINDING AFFINITY PREDICTED BY RF-SCORE:    0.00 PKD
ROOT
HETATM    1  O   UNL     1     -12.079  12.340  67.583  1.00  0.00    -0.502 OA 
HETATM    2  H   UNL     1     -12.220  11.635  68.203  1.00  0.00     0.000 HD 
HETATM    3  C   UNL     1     -11.520  11.866  66.356  1.00  0.00    -0.304 C  
ENDROOT
BRANCH   3   4
HETATM    4  C   UNL     1     -11.294  13.000  65.357  1.00  0.00    -0.297 C  
HETATM    5  N   UNL     1     -10.295  13.997  65.916  1.00  0.00    -0.308 N  
HETATM    6  O   UNL     1     -10.437  15.192  65.614  1.00  0.00    -0.309 OA 
HETATM    7 BR   UNL     1     -10.414  12.279  63.745  1.00  0.00    -0.492 Br 
HETATM    8  O   UNL     1      -9.357  13.558  66.600  1.00  0.00    -0.255 OA 
BRANCH   4   9
HETATM    9  C   UNL     1     -12.578  13.720  64.940  1.00  0.00    -0.341 C  
HETATM   10  O   UNL     1     -12.437  14.383  63.673  1.00  0.00    -1.066 OA 
HETATM   11  H   UNL     1     -13.234  14.830  63.414  1.00  0.00     0.000 HD 
ENDBRANCH   4   9
ENDBRANCH   3   4
TORSDOF 2
ENDMDL
MODEL       25
REMARK 921   NORMALIZED FREE ENERGY PREDICTED BY IDOCK:   -3.27 KCAL/MOL
REMARK 922        TOTAL FREE ENERGY PREDICTED BY IDOCK:   -4.29 KCAL/MOL
REMARK 923 INTER-LIGAND FREE ENERGY PREDICTED BY IDOCK:   -3.82 KCAL/MOL
REMARK 924 INTRA-LIGAND FREE ENERGY PREDICTED BY IDOCK:   -0.46 KCAL/MOL
REMARK 927      BINDING AFFINITY PREDICTED BY RF-SCORE:    0.00 PKD
ROOT
HETATM    1  O   UNL     1     -13.515   8.943  73.082  1.00  0.00    -0.968 OA 
HETATM    2  H   UNL     1     -14.366   8.809  73.483  1.00  0.00     0.000 HD 
HETATM    3  C   UNL     1     -13.251   7.980  72.060  1.00  0.00    -0.253 C  
ENDROOT
BRANCH   3   4
HETATM    4  C   UNL     1     -11.882   8.196  71.414  1.00  0.00    -0.295 C  
HETATM    5  N   UNL     1     -10.791   8.126  72.468  1.00  0.00    -0.340 N  
HETATM    6  O   UNL     1      -9.790   8.841  72.313  1.00  0.00    -0.307 OA 
HETATM    7 BR   UNL     1     -11.490   6.687  70.205  1.00  0.00    -0.449 Br 
HETATM    8  O   UNL     1     -10.933   7.318  73.398  1.00  0.00    -0.358 OA 
BRANCH   4   9
HETATM    9  C   UNL     1     -11.771   9.503  70.628  1.00  0.00    -0.262 C  
HETATM   10  O   UNL     1     -13.056  10.104  70.398  1.00  0.00    -0.590 OA 
HETATM   11  H   UNL     1     -12.988  10.916  69.909  1.00  0.00     0.000 HD 
ENDBRANCH   4   9
ENDBRANCH   3   4
TORSDOF 2
ENDMDL
MODEL       26
REMARK 921   NORMALIZED FREE ENERGY PREDICTED BY IDOCK:   -3.27 KCAL/MOL
REMARK 922        TOTAL FREE ENERGY PREDICTED BY IDOCK:   -4.28 KCAL/MOL
REMARK 923 INTER-LIGAND FREE ENERGY PREDICTED BY IDOCK:   -4.02 KCAL/MOL
REMARK 924 INTRA-LIGAND FREE ENERGY PREDICTED BY IDOCK:   -0.26 KCAL/MOL
REMARK 927      BINDING AFFINITY PREDICTED BY RF-SCORE:    0.00 PKD
ROOT
HETATM    1  O   UNL     1      -9.915  12.973  63.738  1.00  0.00    -0.744 OA 
HETATM    2  H   UNL     1      -9.271  12.484  63.240  1.00  0.00     0.000 HD 
HETATM    3  C   UNL     1     -10.109  12.425  65.043  1.00  0.00    -0.247 C  
ENDROOT
BRANCH   3   4
HETATM    4  C   UNL     1     -11.145  13.213  65.844  1.00  0.00    -0.278 C  
HETATM    5  N   UNL     1     -12.472  13.229  65.106  1.00  0.00    -0.462 N  
HETATM    6  O   UNL     1     -13.186  14.238  65.219  1.00  0.00    -0.704 OA 
HETATM    7 BR   UNL     1     -11.534  12.253  67.523  1.00  0.00    -0.428 Br 
HETATM    8  O   UNL     1     -12.798  12.213  64.474  1.00  0.00    -0.596 OA 
BRANCH   4   9
HETATM    9  C   UNL     1     -10.711  14.641  66.177  1.00  0.00    -0.314 C  
HETATM   10  O   UNL     1     -10.477  14.818  67.584  1.00  0.00    -0.250 OA 
HETATM   11  H   UNL     1     -10.208  15.705  67.792  1.00  0.00     0.000 HD 
ENDBRANCH   4   9
ENDBRANCH   3   4
TORSDOF 2
ENDMDL
MODEL       27
REMARK 921   NORMALIZED FREE ENERGY PREDICTED BY IDOCK:   -3.25 KCAL/MOL
REMARK 922        TOTAL FREE ENERGY PREDICTED BY IDOCK:   -4.27 KCAL/MOL
REMARK 923 INTER-LIGAND FREE ENERGY PREDICTED BY IDOCK:   -3.65 KCAL/MOL
REMARK 924 INTRA-LIGAND FREE ENERGY PREDICTED BY IDOCK:   -0.62 KCAL/MOL
REMARK 927      BINDING AFFINITY PREDICTED BY RF-SCORE:    0.00 PKD
ROOT
HETATM    1  O   UNL     1     -13.816   8.935  73.282  1.00  0.00    -1.163 OA 
HETATM    2  H   UNL     1     -14.415   9.569  73.657  1.00  0.00     0.000 HD 
HETATM    3  C   UNL     1     -12.848   9.554  72.433  1.00  0.00    -0.285 C  
ENDROOT
BRANCH   3   4
HETATM    4  C   UNL     1     -11.882   8.534  71.830  1.00  0.00    -0.341 C  
HETATM    5  N   UNL     1     -12.629   7.266  71.459  1.00  0.00    -0.363 N  
HETATM    6  O   UNL     1     -12.024   6.187  71.557  1.00  0.00    -0.249 OA 
HETATM    7 BR   UNL     1     -11.203   9.221  70.110  1.00  0.00    -0.201 Br 
HETATM    8  O   UNL     1     -13.785   7.379  71.024  1.00  0.00    -0.238 OA 
BRANCH   4   9
HETATM    9  C   UNL     1     -10.694   8.200  72.734  1.00  0.00    -0.321 C  
HETATM   10  O   UNL     1     -11.089   7.422  73.876  1.00  0.00    -0.488 OA 
HETATM   11  H   UNL     1     -10.352   7.214  74.438  1.00  0.00     0.000 HD 
ENDBRANCH   4   9
ENDBRANCH   3   4
TORSDOF 2
ENDMDL
MODEL       28
REMARK 921   NORMALIZED FREE ENERGY PREDICTED BY IDOCK:   -3.24 KCAL/MOL
REMARK 922        TOTAL FREE ENERGY PREDICTED BY IDOCK:   -4.25 KCAL/MOL
REMARK 923 INTER-LIGAND FREE ENERGY PREDICTED BY IDOCK:   -3.81 KCAL/MOL
REMARK 924 INTRA-LIGAND FREE ENERGY PREDICTED BY IDOCK:   -0.44 KCAL/MOL
REMARK 927      BINDING AFFINITY PREDICTED BY RF-SCORE:    0.00 PKD
ROOT
HETATM    1  O   UNL     1     -12.211  13.983  68.570  1.00  0.00    -0.507 OA 
HETATM    2  H   UNL     1     -12.413  14.650  69.215  1.00  0.00     0.000 HD 
HETATM    3  C   UNL     1     -11.849  14.552  67.311  1.00  0.00    -0.392 C  
ENDROOT
BRANCH   3   4
HETATM    4  C   UNL     1     -11.523  13.478  66.273  1.00  0.00    -0.326 C  
HETATM    5  N   UNL     1     -12.714  13.261  65.356  1.00  0.00    -0.467 N  
HETATM    6  O   UNL     1     -12.904  12.117  64.914  1.00  0.00    -0.496 OA 
HETATM    7 BR   UNL     1     -10.102  14.142  65.076  1.00  0.00    -0.226 Br 
HETATM    8  O   UNL     1     -13.402  14.247  65.054  1.00  0.00    -0.509 OA 
BRANCH   4   9
HETATM    9  C   UNL     1     -11.077  12.147  66.881  1.00  0.00    -0.297 C  
HETATM   10  O   UNL     1     -12.161  11.462  67.531  1.00  0.00    -0.592 OA 
HETATM   11  H   UNL     1     -11.885  10.636  67.909  1.00  0.00     0.000 HD 
ENDBRANCH   4   9
ENDBRANCH   3   4
TORSDOF 2
ENDMDL
MODEL       29
REMARK 921   NORMALIZED FREE ENERGY PREDICTED BY IDOCK:   -3.19 KCAL/MOL
REMARK 922        TOTAL FREE ENERGY PREDICTED BY IDOCK:   -4.20 KCAL/MOL
REMARK 923 INTER-LIGAND FREE ENERGY PREDICTED BY IDOCK:   -3.76 KCAL/MOL
REMARK 924 INTRA-LIGAND FREE ENERGY PREDICTED BY IDOCK:   -0.43 KCAL/MOL
REMARK 927      BINDING AFFINITY PREDICTED BY RF-SCORE:    0.00 PKD
ROOT
HETATM    1  O   UNL     1      -9.970  17.909  68.076  1.00  0.00    -0.300 OA 
HETATM    2  H   UNL     1     -10.180  18.309  68.912  1.00  0.00     0.000 HD 
HETATM    3  C   UNL     1     -10.864  16.842  67.756  1.00  0.00    -0.285 C  
ENDROOT
BRANCH   3   4
HETATM    4  C   UNL     1     -10.526  16.199  66.411  1.00  0.00    -0.301 C  
HETATM    5  N   UNL     1     -10.906  17.134  65.276  1.00  0.00    -0.176 N  
HETATM    6  O   UNL     1     -11.294  16.626  64.213  1.00  0.00    -1.116 OA 
HETATM    7 BR   UNL     1      -8.568  16.013  66.254  1.00  0.00    -0.310 Br 
HETATM    8  O   UNL     1     -10.756  18.352  65.452  1.00  0.00    -0.594 OA 
BRANCH   4   9
HETATM    9  C   UNL     1     -11.173  14.829  66.203  1.00  0.00    -0.337 C  
HETATM   10  O   UNL     1     -10.408  14.002  65.309  1.00  0.00    -0.342 OA 
HETATM   11  H   UNL     1     -10.809  13.151  65.179  1.00  0.00     0.000 HD 
ENDBRANCH   4   9
ENDBRANCH   3   4
TORSDOF 2
ENDMDL
MODEL       30
REMARK 921   NORMALIZED FREE ENERGY PREDICTED BY IDOCK:   -3.19 KCAL/MOL
REMARK 922        TOTAL FREE ENERGY PREDICTED BY IDOCK:   -4.19 KCAL/MOL
REMARK 923 INTER-LIGAND FREE ENERGY PREDICTED BY IDOCK:   -3.50 KCAL/MOL
REMARK 924 INTRA-LIGAND FREE ENERGY PREDICTED BY IDOCK:   -0.69 KCAL/MOL
REMARK 927      BINDING AFFINITY PREDICTED BY RF-SCORE:    0.00 PKD
ROOT
HETATM    1  O   UNL     1     -12.116  12.124  66.716  1.00  0.00    -0.609 OA 
HETATM    2  H   UNL     1     -12.556  11.966  67.543  1.00  0.00     0.000 HD 
HETATM    3  C   UNL     1     -12.271  13.476  66.281  1.00  0.00    -0.416 C  
ENDROOT
BRANCH   3   4
HETATM    4  C   UNL     1     -11.563  13.731  64.951  1.00  0.00    -0.351 C  
HETATM    5  N   UNL     1     -12.001  12.705  63.921  1.00  0.00    -0.437 N  
HETATM    6  O   UNL     1     -11.171  12.344  63.073  1.00  0.00    -0.272 OA 
HETATM    7 BR   UNL     1     -12.173  15.455  64.210  1.00  0.00     0.073 Br 
HETATM    8  O   UNL     1     -13.181  12.322  63.948  1.00  0.00    -0.766 OA 
BRANCH   4   9
HETATM    9  C   UNL     1     -10.037  13.749  65.058  1.00  0.00    -0.283 C  
HETATM   10  O   UNL     1      -9.501  12.447  65.344  1.00  0.00    -0.440 OA 
HETATM   11  H   UNL     1      -8.554  12.458  65.411  1.00  0.00     0.000 HD 
ENDBRANCH   4   9
ENDBRANCH   3   4
TORSDOF 2
ENDMDL
MODEL       31
REMARK 921   NORMALIZED FREE ENERGY PREDICTED BY IDOCK:   -3.17 KCAL/MOL
REMARK 922        TOTAL FREE ENERGY PREDICTED BY IDOCK:   -4.17 KCAL/MOL
REMARK 923 INTER-LIGAND FREE ENERGY PREDICTED BY IDOCK:   -3.73 KCAL/MOL
REMARK 924 INTRA-LIGAND FREE ENERGY PREDICTED BY IDOCK:   -0.44 KCAL/MOL
REMARK 927      BINDING AFFINITY PREDICTED BY RF-SCORE:    0.00 PKD
ROOT
HETATM    1  O   UNL     1     -14.292   7.854  70.876  1.00  0.00    -0.656 OA 
HETATM    2  H   UNL     1     -15.110   7.381  70.972  1.00  0.00     0.000 HD 
HETATM    3  C   UNL     1     -13.224   7.220  71.582  1.00  0.00    -0.366 C  
ENDROOT
BRANCH   3   4
HETATM    4  C   UNL     1     -11.907   7.981  71.427  1.00  0.00    -0.295 C  
HETATM    5  N   UNL     1     -12.156   9.476  71.513  1.00  0.00    -0.364 N  
HETATM    6  O   UNL     1     -11.433  10.223  70.836  1.00  0.00    -0.338 OA 
HETATM    7 BR   UNL     1     -10.747   7.591  72.974  1.00  0.00    -0.454 Br 
HETATM    8  O   UNL     1     -13.031   9.875  72.296  1.00  0.00    -0.391 OA 
BRANCH   4   9
HETATM    9  C   UNL     1     -11.149   7.646  70.142  1.00  0.00    -0.218 C  
HETATM   10  O   UNL     1     -11.845   6.673  69.344  1.00  0.00    -0.651 OA 
HETATM   11  H   UNL     1     -11.374   6.465  68.546  1.00  0.00     0.000 HD 
ENDBRANCH   4   9
ENDBRANCH   3   4
TORSDOF 2
ENDMDL
MODEL       32
REMARK 921   NORMALIZED FREE ENERGY PREDICTED BY IDOCK:   -3.10 KCAL/MOL
REMARK 922        TOTAL FREE ENERGY PREDICTED BY IDOCK:   -4.10 KCAL/MOL
REMARK 923 INTER-LIGAND FREE ENERGY PREDICTED BY IDOCK:   -3.40 KCAL/MOL
REMARK 924 INTRA-LIGAND FREE ENERGY PREDICTED BY IDOCK:   -0.70 KCAL/MOL
REMARK 927      BINDING AFFINITY PREDICTED BY RF-SCORE:    0.00 PKD
ROOT
HETATM    1  O   UNL     1     -10.646  18.956  65.697  1.00  0.00    -0.575 OA 
HETATM    2  H   UNL     1     -11.215  19.238  64.991  1.00  0.00     0.000 HD 
HETATM    3  C   UNL     1      -9.744  19.989  66.098  1.00  0.00    -0.409 C  
ENDROOT
BRANCH   3   4
HETATM    4  C   UNL     1      -8.827  19.536  67.234  1.00  0.00    -0.303 C  
HETATM    5  N   UNL     1      -8.206  18.192  66.899  1.00  0.00    -0.236 N  
HETATM    6  O   UNL     1      -7.980  17.409  67.834  1.00  0.00    -0.208 OA 
HETATM    7 BR   UNL     1      -7.290  20.766  67.358  1.00  0.00    -0.350 Br 
HETATM    8  O   UNL     1      -7.907  17.969  65.716  1.00  0.00    -0.534 OA 
BRANCH   4   9
HETATM    9  C   UNL     1      -9.521  19.470  68.596  1.00  0.00    -0.397 C  
HETATM   10  O   UNL     1     -10.528  18.446  68.639  1.00  0.00    -0.385 OA 
HETATM   11  H   UNL     1     -10.958  18.404  69.485  1.00  0.00     0.000 HD 
ENDBRANCH   4   9
ENDBRANCH   3   4
TORSDOF 2
ENDMDL
MODEL       33
REMARK 921   NORMALIZED FREE ENERGY PREDICTED BY IDOCK:   -3.08 KCAL/MOL
REMARK 922        TOTAL FREE ENERGY PREDICTED BY IDOCK:   -4.07 KCAL/MOL
REMARK 923 INTER-LIGAND FREE ENERGY PREDICTED BY IDOCK:   -3.62 KCAL/MOL
REMARK 924 INTRA-LIGAND FREE ENERGY PREDICTED BY IDOCK:   -0.46 KCAL/MOL
REMARK 927      BINDING AFFINITY PREDICTED BY RF-SCORE:    0.00 PKD
ROOT
HETATM    1  O   UNL     1     -13.375   8.682  73.093  1.00  0.00    -0.865 OA 
HETATM    2  H   UNL     1     -14.292   8.850  73.277  1.00  0.00     0.000 HD 
HETATM    3  C   UNL     1     -13.202   7.945  71.881  1.00  0.00    -0.285 C  
ENDROOT
BRANCH   3   4
HETATM    4  C   UNL     1     -11.727   7.675  71.585  1.00  0.00    -0.281 C  
HETATM    5  N   UNL     1     -11.080   8.913  70.991  1.00  0.00    -0.258 N  
HETATM    6  O   UNL     1     -10.175   8.751  70.157  1.00  0.00    -0.181 OA 
HETATM    7 BR   UNL     1     -10.765   7.390  73.284  1.00  0.00    -0.403 Br 
HETATM    8  O   UNL     1     -11.450  10.020  71.409  1.00  0.00    -0.360 OA 
BRANCH   4   9
HETATM    9  C   UNL     1     -11.491   6.469  70.674  1.00  0.00    -0.374 C  
HETATM   10  O   UNL     1     -11.967   6.702  69.338  1.00  0.00    -0.611 OA 
HETATM   11  H   UNL     1     -11.821   5.954  68.772  1.00  0.00     0.000 HD 
ENDBRANCH   4   9
ENDBRANCH   3   4
TORSDOF 2
ENDMDL
MODEL       34
REMARK 921   NORMALIZED FREE ENERGY PREDICTED BY IDOCK:   -3.07 KCAL/MOL
REMARK 922        TOTAL FREE ENERGY PREDICTED BY IDOCK:   -4.07 KCAL/MOL
REMARK 923 INTER-LIGAND FREE ENERGY PREDICTED BY IDOCK:   -3.37 KCAL/MOL
REMARK 924 INTRA-LIGAND FREE ENERGY PREDICTED BY IDOCK:   -0.70 KCAL/MOL
REMARK 927      BINDING AFFINITY PREDICTED BY RF-SCORE:    0.00 PKD
ROOT
HETATM    1  O   UNL     1     -10.408  18.285  69.091  1.00  0.00    -0.464 OA 
HETATM    2  H   UNL     1     -10.510  18.554  69.996  1.00  0.00     0.000 HD 
HETATM    3  C   UNL     1      -9.244  18.860  68.494  1.00  0.00    -0.361 C  
ENDROOT
BRANCH   3   4
HETATM    4  C   UNL     1      -9.078  18.426  67.037  1.00  0.00    -0.274 C  
HETATM    5  N   UNL     1     -10.344  18.727  66.256  1.00  0.00    -0.430 N  
HETATM    6  O   UNL     1     -10.653  17.956  65.334  1.00  0.00    -0.656 OA 
HETATM    7 BR   UNL     1      -7.699  19.547  66.180  1.00  0.00    -0.330 Br 
HETATM    8  O   UNL     1     -10.973  19.756  66.543  1.00  0.00    -0.399 OA 
BRANCH   4   9
HETATM    9  C   UNL     1      -8.694  16.955  66.872  1.00  0.00    -0.223 C  
HETATM   10  O   UNL     1      -9.728  16.073  67.340  1.00  0.00    -0.229 OA 
HETATM   11  H   UNL     1      -9.490  15.159  67.238  1.00  0.00     0.000 HD 
ENDBRANCH   4   9
ENDBRANCH   3   4
TORSDOF 2
ENDMDL
MODEL       35
REMARK 921   NORMALIZED FREE ENERGY PREDICTED BY IDOCK:   -3.04 KCAL/MOL
REMARK 922        TOTAL FREE ENERGY PREDICTED BY IDOCK:   -4.03 KCAL/MOL
REMARK 923 INTER-LIGAND FREE ENERGY PREDICTED BY IDOCK:   -3.79 KCAL/MOL
REMARK 924 INTRA-LIGAND FREE ENERGY PREDICTED BY IDOCK:   -0.24 KCAL/MOL
REMARK 927      BINDING AFFINITY PREDICTED BY RF-SCORE:    0.00 PKD
ROOT
HETATM    1  O   UNL     1     -10.755  18.600  65.458  1.00  0.00    -0.577 OA 
HETATM    2  H   UNL     1     -11.565  18.880  65.046  1.00  0.00     0.000 HD 
HETATM    3  C   UNL     1     -10.129  19.664  66.177  1.00  0.00    -0.480 C  
ENDROOT
BRANCH   3   4
HETATM    4  C   UNL     1      -8.827  19.214  66.840  1.00  0.00    -0.305 C  
HETATM    5  N   UNL     1      -8.923  19.388  68.346  1.00  0.00    -0.345 N  
HETATM    6  O   UNL     1      -7.886  19.681  68.962  1.00  0.00    -0.342 OA 
HETATM    7 BR   UNL     1      -8.608  17.270  66.587  1.00  0.00    -0.306 Br 
HETATM    8  O   UNL     1     -10.017  19.173  68.887  1.00  0.00    -0.418 OA 
BRANCH   4   9
HETATM    9  C   UNL     1      -7.584  19.928  66.306  1.00  0.00    -0.310 C  
HETATM   10  O   UNL     1      -7.486  21.276  66.794  1.00  0.00    -0.702 OA 
HETATM   11  H   UNL     1      -6.714  21.719  66.462  1.00  0.00     0.000 HD 
ENDBRANCH   4   9
ENDBRANCH   3   4
TORSDOF 2
ENDMDL
MODEL       36
REMARK 921   NORMALIZED FREE ENERGY PREDICTED BY IDOCK:   -3.04 KCAL/MOL
REMARK 922        TOTAL FREE ENERGY PREDICTED BY IDOCK:   -4.02 KCAL/MOL
REMARK 923 INTER-LIGAND FREE ENERGY PREDICTED BY IDOCK:   -3.60 KCAL/MOL
REMARK 924 INTRA-LIGAND FREE ENERGY PREDICTED BY IDOCK:   -0.42 KCAL/MOL
REMARK 927      BINDING AFFINITY PREDICTED BY RF-SCORE:    0.00 PKD
ROOT
HETATM    1  O   UNL     1     -10.805  17.516  68.012  1.00  0.00    -0.378 OA 
HETATM    2  H   UNL     1     -11.183  16.928  68.655  1.00  0.00     0.000 HD 
HETATM    3  C   UNL     1      -9.458  17.865  68.336  1.00  0.00    -0.303 C  
ENDROOT
BRANCH   3   4
HETATM    4  C   UNL     1      -8.850  18.812  67.301  1.00  0.00    -0.274 C  
HETATM    5  N   UNL     1      -8.153  18.016  66.212  1.00  0.00    -0.249 N  
HETATM    6  O   UNL     1      -7.144  18.512  65.688  1.00  0.00    -0.446 OA 
HETATM    7 BR   UNL     1     -10.301  19.761  66.358  1.00  0.00    -0.637 Br 
HETATM    8  O   UNL     1      -8.660  16.939  65.865  1.00  0.00    -0.514 OA 
BRANCH   4   9
HETATM    9  C   UNL     1      -7.889  19.842  67.897  1.00  0.00    -0.292 C  
HETATM   10  O   UNL     1      -7.641  20.933  66.994  1.00  0.00    -0.510 OA 
HETATM   11  H   UNL     1      -7.045  21.573  67.364  1.00  0.00     0.000 HD 
ENDBRANCH   4   9
ENDBRANCH   3   4
TORSDOF 2
ENDMDL
MODEL       37
REMARK 921   NORMALIZED FREE ENERGY PREDICTED BY IDOCK:   -3.03 KCAL/MOL
REMARK 922        TOTAL FREE ENERGY PREDICTED BY IDOCK:   -4.02 KCAL/MOL
REMARK 923 INTER-LIGAND FREE ENERGY PREDICTED BY IDOCK:   -3.58 KCAL/MOL
REMARK 924 INTRA-LIGAND FREE ENERGY PREDICTED BY IDOCK:   -0.44 KCAL/MOL
REMARK 927      BINDING AFFINITY PREDICTED BY RF-SCORE:    0.00 PKD
ROOT
HETATM    1  O   UNL     1     -13.416   8.746  73.099  1.00  0.00    -0.953 OA 
HETATM    2  H   UNL     1     -14.355   8.773  73.242  1.00  0.00     0.000 HD 
HETATM    3  C   UNL     1     -13.082   8.088  71.876  1.00  0.00    -0.311 C  
ENDROOT
BRANCH   3   4
HETATM    4  C   UNL     1     -11.572   8.045  71.645  1.00  0.00    -0.275 C  
HETATM    5  N   UNL     1     -11.211   6.858  70.770  1.00  0.00    -0.277 N  
HETATM    6  O   UNL     1     -10.120   6.302  70.969  1.00  0.00    -0.181 OA 
HETATM    7 BR   UNL     1     -11.034   9.617  70.581  1.00  0.00    -0.414 Br 
HETATM    8  O   UNL     1     -11.999   6.542  69.867  1.00  0.00    -0.319 OA 
BRANCH   4   9
HETATM    9  C   UNL     1     -10.752   8.016  72.936  1.00  0.00    -0.333 C  
HETATM   10  O   UNL     1     -11.030   6.847  73.725  1.00  0.00    -0.519 OA 
HETATM   11  H   UNL     1     -10.521   6.829  74.526  1.00  0.00     0.000 HD 
ENDBRANCH   4   9
ENDBRANCH   3   4
TORSDOF 2
ENDMDL
MODEL       38
REMARK 921   NORMALIZED FREE ENERGY PREDICTED BY IDOCK:   -3.03 KCAL/MOL
REMARK 922        TOTAL FREE ENERGY PREDICTED BY IDOCK:   -4.01 KCAL/MOL
REMARK 923 INTER-LIGAND FREE ENERGY PREDICTED BY IDOCK:   -3.33 KCAL/MOL
REMARK 924 INTRA-LIGAND FREE ENERGY PREDICTED BY IDOCK:   -0.69 KCAL/MOL
REMARK 927      BINDING AFFINITY PREDICTED BY RF-SCORE:    0.00 PKD
ROOT
HETATM    1  O   UNL     1     -11.801   6.505  69.216  1.00  0.00    -0.608 OA 
HETATM    2  H   UNL     1     -11.647   5.691  68.752  1.00  0.00     0.000 HD 
HETATM    3  C   UNL     1     -11.146   6.524  70.486  1.00  0.00    -0.319 C  
ENDROOT
BRANCH   3   4
HETATM    4  C   UNL     1     -11.392   7.835  71.234  1.00  0.00    -0.264 C  
HETATM    5  N   UNL     1     -12.883   8.063  71.410  1.00  0.00    -0.301 N  
HETATM    6  O   UNL     1     -13.295   9.233  71.397  1.00  0.00    -0.354 OA 
HETATM    7 BR   UNL     1     -10.704   7.670  73.076  1.00  0.00    -0.444 Br 
HETATM    8  O   UNL     1     -13.602   7.073  71.612  1.00  0.00    -0.358 OA 
BRANCH   4   9
HETATM    9  C   UNL     1     -10.748   9.053  70.571  1.00  0.00    -0.239 C  
HETATM   10  O   UNL     1     -11.325   9.336  69.286  1.00  0.00    -0.440 OA 
HETATM   11  H   UNL     1     -10.926  10.092  68.874  1.00  0.00     0.000 HD 
ENDBRANCH   4   9
ENDBRANCH   3   4
TORSDOF 2
ENDMDL
MODEL       39
REMARK 921   NORMALIZED FREE ENERGY PREDICTED BY IDOCK:   -3.02 KCAL/MOL
REMARK 922        TOTAL FREE ENERGY PREDICTED BY IDOCK:   -4.01 KCAL/MOL
REMARK 923 INTER-LIGAND FREE ENERGY PREDICTED BY IDOCK:   -3.32 KCAL/MOL
REMARK 924 INTRA-LIGAND FREE ENERGY PREDICTED BY IDOCK:   -0.69 KCAL/MOL
REMARK 927      BINDING AFFINITY PREDICTED BY RF-SCORE:    0.00 PKD
ROOT
HETATM    1  O   UNL     1      -8.091  16.378  68.332  1.00  0.00    -0.172 OA 
HETATM    2  H   UNL     1      -7.663  15.994  69.088  1.00  0.00     0.000 HD 
HETATM    3  C   UNL     1      -8.475  17.734  68.570  1.00  0.00    -0.296 C  
ENDROOT
BRANCH   3   4
HETATM    4  C   UNL     1      -9.163  18.352  67.353  1.00  0.00    -0.271 C  
HETATM    5  N   UNL     1     -10.163  17.373  66.765  1.00  0.00    -0.311 N  
HETATM    6  O   UNL     1     -10.338  17.390  65.537  1.00  0.00    -0.621 OA 
HETATM    7 BR   UNL     1     -10.265  19.881  67.938  1.00  0.00    -0.557 Br 
HETATM    8  O   UNL     1     -10.793  16.646  67.548  1.00  0.00    -0.305 OA 
BRANCH   4   9
HETATM    9  C   UNL     1      -8.192  18.827  66.270  1.00  0.00    -0.252 C  
HETATM   10  O   UNL     1      -7.445  17.738  65.702  1.00  0.00    -0.533 OA 
HETATM   11  H   UNL     1      -6.842  18.032  65.030  1.00  0.00     0.000 HD 
ENDBRANCH   4   9
ENDBRANCH   3   4
TORSDOF 2
ENDMDL
MODEL       40
REMARK 921   NORMALIZED FREE ENERGY PREDICTED BY IDOCK:   -3.02 KCAL/MOL
REMARK 922        TOTAL FREE ENERGY PREDICTED BY IDOCK:   -4.01 KCAL/MOL
REMARK 923 INTER-LIGAND FREE ENERGY PREDICTED BY IDOCK:   -3.76 KCAL/MOL
REMARK 924 INTRA-LIGAND FREE ENERGY PREDICTED BY IDOCK:   -0.24 KCAL/MOL
REMARK 927      BINDING AFFINITY PREDICTED BY RF-SCORE:    0.00 PKD
ROOT
HETATM    1  O   UNL     1     -13.663   8.934  73.100  1.00  0.00    -1.009 OA 
HETATM    2  H   UNL     1     -14.250   9.608  73.423  1.00  0.00     0.000 HD 
HETATM    3  C   UNL     1     -12.807   9.424  72.066  1.00  0.00    -0.414 C  
ENDROOT
BRANCH   3   4
HETATM    4  C   UNL     1     -11.863   8.340  71.547  1.00  0.00    -0.293 C  
HETATM    5  N   UNL     1     -11.074   8.861  70.359  1.00  0.00    -0.242 N  
HETATM    6  O   UNL     1     -10.769   8.054  69.467  1.00  0.00    -0.230 OA 
HETATM    7 BR   UNL     1     -10.493   7.963  72.915  1.00  0.00    -0.400 Br 
HETATM    8  O   UNL     1     -10.727  10.052  70.369  1.00  0.00    -0.287 OA 
BRANCH   4   9
HETATM    9  C   UNL     1     -12.568   7.033  71.178  1.00  0.00    -0.339 C  
HETATM   10  O   UNL     1     -12.854   6.230  72.335  1.00  0.00    -0.546 OA 
HETATM   11  H   UNL     1     -13.291   5.419  72.107  1.00  0.00     0.000 HD 
ENDBRANCH   4   9
ENDBRANCH   3   4
TORSDOF 2
ENDMDL
MODEL       41
REMARK 921   NORMALIZED FREE ENERGY PREDICTED BY IDOCK:   -2.95 KCAL/MOL
REMARK 922        TOTAL FREE ENERGY PREDICTED BY IDOCK:   -3.93 KCAL/MOL
REMARK 923 INTER-LIGAND FREE ENERGY PREDICTED BY IDOCK:   -3.48 KCAL/MOL
REMARK 924 INTRA-LIGAND FREE ENERGY PREDICTED BY IDOCK:   -0.46 KCAL/MOL
REMARK 927      BINDING AFFINITY PREDICTED BY RF-SCORE:    0.00 PKD
ROOT
HETATM    1  O   UNL     1     -12.111  10.893  68.170  1.00  0.00    -0.785 OA 
HETATM    2  H   UNL     1     -12.654  10.868  68.949  1.00  0.00     0.000 HD 
HETATM    3  C   UNL     1     -11.783  12.232  67.794  1.00  0.00    -0.337 C  
ENDROOT
BRANCH   3   4
HETATM    4  C   UNL     1     -10.907  12.274  66.542  1.00  0.00    -0.259 C  
HETATM    5  N   UNL     1     -11.774  12.198  65.298  1.00  0.00    -0.337 N  
HETATM    6  O   UNL     1     -11.311  11.617  64.304  1.00  0.00    -0.332 OA 
HETATM    7 BR   UNL     1     -10.034  14.039  66.420  1.00  0.00    -0.312 Br 
HETATM    8  O   UNL     1     -12.875  12.768  65.321  1.00  0.00    -0.674 OA 
BRANCH   4   9
HETATM    9  C   UNL     1      -9.834  11.186  66.503  1.00  0.00    -0.208 C  
HETATM   10  O   UNL     1     -10.384   9.898  66.180  1.00  0.00    -0.230 OA 
HETATM   11  H   UNL     1      -9.718   9.221  66.156  1.00  0.00     0.000 HD 
ENDBRANCH   4   9
ENDBRANCH   3   4
TORSDOF 2
ENDMDL
MODEL       42
REMARK 921   NORMALIZED FREE ENERGY PREDICTED BY IDOCK:   -2.94 KCAL/MOL
REMARK 922        TOTAL FREE ENERGY PREDICTED BY IDOCK:   -3.92 KCAL/MOL
REMARK 923 INTER-LIGAND FREE ENERGY PREDICTED BY IDOCK:   -3.72 KCAL/MOL
REMARK 924 INTRA-LIGAND FREE ENERGY PREDICTED BY IDOCK:   -0.21 KCAL/MOL
REMARK 927      BINDING AFFINITY PREDICTED BY RF-SCORE:    0.00 PKD
ROOT
HETATM    1  O   UNL     1     -12.274  12.555  66.410  1.00  0.00    -0.584 OA 
HETATM    2  H   UNL     1     -13.031  12.208  66.868  1.00  0.00     0.000 HD 
HETATM    3  C   UNL     1     -11.962  13.885  66.828  1.00  0.00    -0.438 C  
ENDROOT
BRANCH   3   4
HETATM    4  C   UNL     1     -10.744  14.443  66.092  1.00  0.00    -0.304 C  
HETATM    5  N   UNL     1     -10.634  15.939  66.325  1.00  0.00    -0.308 N  
HETATM    6  O   UNL     1     -10.173  16.636  65.408  1.00  0.00    -0.585 OA 
HETATM    7 BR   UNL     1      -9.103  13.701  66.898  1.00  0.00    -0.228 Br 
HETATM    8  O   UNL     1     -10.958  16.379  67.438  1.00  0.00    -0.263 OA 
BRANCH   4   9
HETATM    9  C   UNL     1     -10.739  14.142  64.592  1.00  0.00    -0.389 C  
HETATM   10  O   UNL     1      -9.966  12.971  64.280  1.00  0.00    -0.616 OA 
HETATM   11  H   UNL     1      -9.963  12.784  63.349  1.00  0.00     0.000 HD 
ENDBRANCH   4   9
ENDBRANCH   3   4
TORSDOF 2
ENDMDL
MODEL       43
REMARK 921   NORMALIZED FREE ENERGY PREDICTED BY IDOCK:   -2.93 KCAL/MOL
REMARK 922        TOTAL FREE ENERGY PREDICTED BY IDOCK:   -3.90 KCAL/MOL
REMARK 923 INTER-LIGAND FREE ENERGY PREDICTED BY IDOCK:   -3.63 KCAL/MOL
REMARK 924 INTRA-LIGAND FREE ENERGY PREDICTED BY IDOCK:   -0.27 KCAL/MOL
REMARK 927      BINDING AFFINITY PREDICTED BY RF-SCORE:    0.00 PKD
ROOT
HETATM    1  O   UNL     1     -10.114  19.792  68.084  1.00  0.00    -0.408 OA 
HETATM    2  H   UNL     1     -10.538  20.639  68.152  1.00  0.00     0.000 HD 
HETATM    3  C   UNL     1     -10.717  18.973  67.080  1.00  0.00    -0.432 C  
ENDROOT
BRANCH   3   4
HETATM    4  C   UNL     1     -10.034  17.610  66.969  1.00  0.00    -0.320 C  
HETATM    5  N   UNL     1     -10.658  16.804  65.845  1.00  0.00    -0.296 N  
HETATM    6  O   UNL     1     -10.716  15.572  65.979  1.00  0.00    -0.316 OA 
HETATM    7 BR   UNL     1      -8.161  17.867  66.404  1.00  0.00    -0.265 Br 
HETATM    8  O   UNL     1     -11.027  17.412  64.829  1.00  0.00    -0.964 OA 
BRANCH   4   9
HETATM    9  C   UNL     1     -10.053  16.804  68.269  1.00  0.00    -0.274 C  
HETATM   10  O   UNL     1     -11.389  16.451  68.664  1.00  0.00    -0.355 OA 
HETATM   11  H   UNL     1     -11.402  15.951  69.471  1.00  0.00     0.000 HD 
ENDBRANCH   4   9
ENDBRANCH   3   4
TORSDOF 2
ENDMDL
MODEL       44
REMARK 921   NORMALIZED FREE ENERGY PREDICTED BY IDOCK:   -2.92 KCAL/MOL
REMARK 922        TOTAL FREE ENERGY PREDICTED BY IDOCK:   -3.90 KCAL/MOL
REMARK 923 INTER-LIGAND FREE ENERGY PREDICTED BY IDOCK:   -3.44 KCAL/MOL
REMARK 924 INTRA-LIGAND FREE ENERGY PREDICTED BY IDOCK:   -0.45 KCAL/MOL
REMARK 927      BINDING AFFINITY PREDICTED BY RF-SCORE:    0.00 PKD
ROOT
HETATM    1  O   UNL     1     -10.547  17.467  65.081  1.00  0.00    -0.657 OA 
HETATM    2  H   UNL     1     -11.060  17.818  64.363  1.00  0.00     0.000 HD 
HETATM    3  C   UNL     1     -10.510  18.361  66.195  1.00  0.00    -0.395 C  
ENDROOT
BRANCH   3   4
HETATM    4  C   UNL     1      -9.685  17.796  67.351  1.00  0.00    -0.284 C  
HETATM    5  N   UNL     1     -10.465  16.706  68.065  1.00  0.00    -0.306 N  
HETATM    6  O   UNL     1     -10.296  16.578  69.287  1.00  0.00    -0.283 OA 
HETATM    7 BR   UNL     1      -8.102  16.867  66.626  1.00  0.00    -0.327 Br 
HETATM    8  O   UNL     1     -11.187  15.966  67.381  1.00  0.00    -0.259 OA 
BRANCH   4   9
HETATM    9  C   UNL     1      -9.222  18.854  68.354  1.00  0.00    -0.347 C  
HETATM   10  O   UNL     1     -10.330  19.525  68.978  1.00  0.00    -0.587 OA 
HETATM   11  H   UNL     1     -10.043  20.182  69.601  1.00  0.00     0.000 HD 
ENDBRANCH   4   9
ENDBRANCH   3   4
TORSDOF 2
ENDMDL
MODEL       45
REMARK 921   NORMALIZED FREE ENERGY PREDICTED BY IDOCK:   -2.90 KCAL/MOL
REMARK 922        TOTAL FREE ENERGY PREDICTED BY IDOCK:   -3.88 KCAL/MOL
REMARK 923 INTER-LIGAND FREE ENERGY PREDICTED BY IDOCK:   -3.42 KCAL/MOL
REMARK 924 INTRA-LIGAND FREE ENERGY PREDICTED BY IDOCK:   -0.46 KCAL/MOL
REMARK 927      BINDING AFFINITY PREDICTED BY RF-SCORE:    0.00 PKD
ROOT
HETATM    1  O   UNL     1     -10.278  15.526  68.221  1.00  0.00    -0.219 OA 
HETATM    2  H   UNL     1     -10.909  14.928  68.602  1.00  0.00     0.000 HD 
HETATM    3  C   UNL     1     -10.765  16.869  68.195  1.00  0.00    -0.375 C  
ENDROOT
BRANCH   3   4
HETATM    4  C   UNL     1      -9.749  17.832  67.582  1.00  0.00    -0.282 C  
HETATM    5  N   UNL     1      -9.267  17.300  66.244  1.00  0.00    -0.242 N  
HETATM    6  O   UNL     1      -8.096  17.541  65.913  1.00  0.00    -0.536 OA 
HETATM    7 BR   UNL     1     -10.651  19.529  67.134  1.00  0.00    -0.602 Br 
HETATM    8  O   UNL     1     -10.084  16.700  65.529  1.00  0.00    -0.553 OA 
BRANCH   4   9
HETATM    9  C   UNL     1      -8.555  18.130  68.491  1.00  0.00    -0.294 C  
HETATM   10  O   UNL     1      -8.056  19.465  68.305  1.00  0.00    -0.313 OA 
HETATM   11  H   UNL     1      -7.315  19.650  68.869  1.00  0.00     0.000 HD 
ENDBRANCH   4   9
ENDBRANCH   3   4
TORSDOF 2
ENDMDL
MODEL       46
REMARK 921   NORMALIZED FREE ENERGY PREDICTED BY IDOCK:   -2.87 KCAL/MOL
REMARK 922        TOTAL FREE ENERGY PREDICTED BY IDOCK:   -3.84 KCAL/MOL
REMARK 923 INTER-LIGAND FREE ENERGY PREDICTED BY IDOCK:   -3.17 KCAL/MOL
REMARK 924 INTRA-LIGAND FREE ENERGY PREDICTED BY IDOCK:   -0.67 KCAL/MOL
REMARK 927      BINDING AFFINITY PREDICTED BY RF-SCORE:    0.00 PKD
ROOT
HETATM    1  O   UNL     1     -10.989  13.737  69.679  1.00  0.00    -0.446 OA 
HETATM    2  H   UNL     1     -11.336  14.063  70.501  1.00  0.00     0.000 HD 
HETATM    3  C   UNL     1     -11.807  14.113  68.569  1.00  0.00    -0.355 C  
ENDROOT
BRANCH   3   4
HETATM    4  C   UNL     1     -11.250  13.588  67.246  1.00  0.00    -0.298 C  
HETATM    5  N   UNL     1     -11.184  12.071  67.273  1.00  0.00    -0.291 N  
HETATM    6  O   UNL     1     -10.262  11.520  66.652  1.00  0.00    -0.209 OA 
HETATM    7 BR   UNL     1     -12.525  13.995  65.797  1.00  0.00    -0.496 Br 
HETATM    8  O   UNL     1     -12.086  11.461  67.867  1.00  0.00    -0.646 OA 
BRANCH   4   9
HETATM    9  C   UNL     1      -9.882  14.167  66.881  1.00  0.00    -0.265 C  
HETATM   10  O   UNL     1      -8.860  13.764  67.808  1.00  0.00    -0.168 OA 
HETATM   11  H   UNL     1      -8.011  14.123  67.582  1.00  0.00     0.000 HD 
ENDBRANCH   4   9
ENDBRANCH   3   4
TORSDOF 2
ENDMDL
MODEL       47
REMARK 921   NORMALIZED FREE ENERGY PREDICTED BY IDOCK:   -2.87 KCAL/MOL
REMARK 922        TOTAL FREE ENERGY PREDICTED BY IDOCK:   -3.84 KCAL/MOL
REMARK 923 INTER-LIGAND FREE ENERGY PREDICTED BY IDOCK:   -3.75 KCAL/MOL
REMARK 924 INTRA-LIGAND FREE ENERGY PREDICTED BY IDOCK:   -0.08 KCAL/MOL
REMARK 927      BINDING AFFINITY PREDICTED BY RF-SCORE:    0.00 PKD
ROOT
HETATM    1  O   UNL     1     -11.960  11.502  68.066  1.00  0.00    -0.595 OA 
HETATM    2  H   UNL     1     -12.026  10.600  68.356  1.00  0.00     0.000 HD 
HETATM    3  C   UNL     1     -11.358  11.601  66.773  1.00  0.00    -0.286 C  
ENDROOT
BRANCH   3   4
HETATM    4  C   UNL     1     -11.251  13.053  66.305  1.00  0.00    -0.301 C  
HETATM    5  N   UNL     1     -12.135  13.275  65.091  1.00  0.00    -0.387 N  
HETATM    6  O   UNL     1     -11.754  14.092  64.239  1.00  0.00    -0.389 OA 
HETATM    7 BR   UNL     1     -12.013  14.238  67.687  1.00  0.00    -0.347 Br 
HETATM    8  O   UNL     1     -13.217  12.671  65.041  1.00  0.00    -0.753 OA 
BRANCH   4   9
HETATM    9  C   UNL     1      -9.820  13.499  66.004  1.00  0.00    -0.265 C  
HETATM   10  O   UNL     1      -8.929  12.383  65.843  1.00  0.00    -0.427 OA 
HETATM   11  H   UNL     1      -8.040  12.659  65.656  1.00  0.00     0.000 HD 
ENDBRANCH   4   9
ENDBRANCH   3   4
TORSDOF 2
ENDMDL
MODEL       48
REMARK 921   NORMALIZED FREE ENERGY PREDICTED BY IDOCK:   -2.86 KCAL/MOL
REMARK 922        TOTAL FREE ENERGY PREDICTED BY IDOCK:   -3.83 KCAL/MOL
REMARK 923 INTER-LIGAND FREE ENERGY PREDICTED BY IDOCK:   -3.13 KCAL/MOL
REMARK 924 INTRA-LIGAND FREE ENERGY PREDICTED BY IDOCK:   -0.70 KCAL/MOL
REMARK 927      BINDING AFFINITY PREDICTED BY RF-SCORE:    0.00 PKD
ROOT
HETATM    1  O   UNL     1     -11.660   6.471  68.894  1.00  0.00    -0.606 OA 
HETATM    2  H   UNL     1     -11.472   6.485  67.963  1.00  0.00     0.000 HD 
HETATM    3  C   UNL     1     -10.819   7.370  69.620  1.00  0.00    -0.210 C  
ENDROOT
BRANCH   3   4
HETATM    4  C   UNL     1     -11.122   7.349  71.118  1.00  0.00    -0.252 C  
HETATM    5  N   UNL     1     -11.080   5.924  71.639  1.00  0.00    -0.270 N  
HETATM    6  O   UNL     1     -11.850   5.622  72.564  1.00  0.00    -0.282 OA 
HETATM    7 BR   UNL     1      -9.667   8.264  72.087  1.00  0.00    -0.374 Br 
HETATM    8  O   UNL     1     -10.242   5.151  71.151  1.00  0.00    -0.210 OA 
BRANCH   4   9
HETATM    9  C   UNL     1     -12.453   8.006  71.487  1.00  0.00    -0.310 C  
HETATM   10  O   UNL     1     -13.567   7.361  70.849  1.00  0.00    -0.621 OA 
HETATM   11  H   UNL     1     -14.394   7.768  71.078  1.00  0.00     0.000 HD 
ENDBRANCH   4   9
ENDBRANCH   3   4
TORSDOF 2
ENDMDL
MODEL       49
REMARK 921   NORMALIZED FREE ENERGY PREDICTED BY IDOCK:   -2.84 KCAL/MOL
REMARK 922        TOTAL FREE ENERGY PREDICTED BY IDOCK:   -3.81 KCAL/MOL
REMARK 923 INTER-LIGAND FREE ENERGY PREDICTED BY IDOCK:   -3.34 KCAL/MOL
REMARK 924 INTRA-LIGAND FREE ENERGY PREDICTED BY IDOCK:   -0.47 KCAL/MOL
REMARK 927      BINDING AFFINITY PREDICTED BY RF-SCORE:    0.00 PKD
ROOT
HETATM    1  O   UNL     1     -11.679  10.034  69.004  1.00  0.00    -0.488 OA 
HETATM    2  H   UNL     1     -11.458  10.756  68.426  1.00  0.00     0.000 HD 
HETATM    3  C   UNL     1     -10.725   9.886  70.057  1.00  0.00    -0.292 C  
ENDROOT
BRANCH   3   4
HETATM    4  C   UNL     1     -11.079   8.726  70.987  1.00  0.00    -0.270 C  
HETATM    5  N   UNL     1     -11.256   7.449  70.185  1.00  0.00    -0.251 N  
HETATM    6  O   UNL     1     -12.092   6.624  70.585  1.00  0.00    -0.394 OA 
HETATM    7 BR   UNL     1      -9.545   8.350  72.170  1.00  0.00    -0.389 Br 
HETATM    8  O   UNL     1     -10.517   7.273  69.204  1.00  0.00    -0.207 OA 
BRANCH   4   9
HETATM    9  C   UNL     1     -12.318   8.982  71.848  1.00  0.00    -0.384 C  
HETATM   10  O   UNL     1     -12.353   8.134  73.008  1.00  0.00    -0.666 OA 
HETATM   11  H   UNL     1     -13.121   8.292  73.542  1.00  0.00     0.000 HD 
ENDBRANCH   4   9
ENDBRANCH   3   4
TORSDOF 2
ENDMDL
MODEL       50
REMARK 921   NORMALIZED FREE ENERGY PREDICTED BY IDOCK:   -2.82 KCAL/MOL
REMARK 922        TOTAL FREE ENERGY PREDICTED BY IDOCK:   -3.78 KCAL/MOL
REMARK 923 INTER-LIGAND FREE ENERGY PREDICTED BY IDOCK:   -3.33 KCAL/MOL
REMARK 924 INTRA-LIGAND FREE ENERGY PREDICTED BY IDOCK:   -0.46 KCAL/MOL
REMARK 927      BINDING AFFINITY PREDICTED BY RF-SCORE:    0.00 PKD
ROOT
HETATM    1  O   UNL     1     -12.610  14.121  66.387  1.00  0.00    -0.521 OA 
HETATM    2  H   UNL     1     -13.147  13.410  66.057  1.00  0.00     0.000 HD 
HETATM    3  C   UNL     1     -11.220  13.791  66.369  1.00  0.00    -0.316 C  
ENDROOT
BRANCH   3   4
HETATM    4  C   UNL     1     -10.356  14.935  66.900  1.00  0.00    -0.264 C  
HETATM    5  N   UNL     1     -10.035  15.909  65.780  1.00  0.00    -0.341 N  
HETATM    6  O   UNL     1      -8.937  16.486  65.811  1.00  0.00    -0.481 OA 
HETATM    7 BR   UNL     1     -11.407  15.999  68.185  1.00  0.00    -0.232 Br 
HETATM    8  O   UNL     1     -10.907  16.118  64.924  1.00  0.00    -0.582 OA 
BRANCH   4   9
HETATM    9  C   UNL     1      -9.066  14.469  67.578  1.00  0.00    -0.193 C  
HETATM   10  O   UNL     1      -8.230  13.714  66.686  1.00  0.00    -0.397 OA 
HETATM   11  H   UNL     1      -7.430  13.425  67.107  1.00  0.00     0.000 HD 
ENDBRANCH   4   9
ENDBRANCH   3   4
TORSDOF 2
ENDMDL
MODEL       51
REMARK 921   NORMALIZED FREE ENERGY PREDICTED BY IDOCK:   -2.81 KCAL/MOL
REMARK 922        TOTAL FREE ENERGY PREDICTED BY IDOCK:   -3.77 KCAL/MOL
REMARK 923 INTER-LIGAND FREE ENERGY PREDICTED BY IDOCK:   -3.53 KCAL/MOL
REMARK 924 INTRA-LIGAND FREE ENERGY PREDICTED BY IDOCK:   -0.24 KCAL/MOL
REMARK 927      BINDING AFFINITY PREDICTED BY RF-SCORE:    0.00 PKD
ROOT
HETATM    1  O   UNL     1      -9.918  13.456  64.537  1.00  0.00    -0.630 OA 
HETATM    2  H   UNL     1      -9.176  13.035  64.120  1.00  0.00     0.000 HD 
HETATM    3  C   UNL     1      -9.975  13.171  65.936  1.00  0.00    -0.269 C  
ENDROOT
BRANCH   3   4
HETATM    4  C   UNL     1     -11.169  13.849  66.608  1.00  0.00    -0.320 C  
HETATM    5  N   UNL     1     -10.864  15.315  66.856  1.00  0.00    -0.315 N  
HETATM    6  O   UNL     1     -11.357  15.847  67.863  1.00  0.00    -0.330 OA 
HETATM    7 BR   UNL     1     -12.692  13.874  65.353  1.00  0.00    -0.455 Br 
HETATM    8  O   UNL     1     -10.185  15.918  66.013  1.00  0.00    -0.292 OA 
BRANCH   4   9
HETATM    9  C   UNL     1     -11.610  13.175  67.908  1.00  0.00    -0.336 C  
HETATM   10  O   UNL     1     -11.955  11.794  67.709  1.00  0.00    -0.586 OA 
HETATM   11  H   UNL     1     -12.228  11.375  68.516  1.00  0.00     0.000 HD 
ENDBRANCH   4   9
ENDBRANCH   3   4
TORSDOF 2
ENDMDL
MODEL       52
REMARK 921   NORMALIZED FREE ENERGY PREDICTED BY IDOCK:   -2.81 KCAL/MOL
REMARK 922        TOTAL FREE ENERGY PREDICTED BY IDOCK:   -3.77 KCAL/MOL
REMARK 923 INTER-LIGAND FREE ENERGY PREDICTED BY IDOCK:   -3.33 KCAL/MOL
REMARK 924 INTRA-LIGAND FREE ENERGY PREDICTED BY IDOCK:   -0.44 KCAL/MOL
REMARK 927      BINDING AFFINITY PREDICTED BY RF-SCORE:    0.00 PKD
ROOT
HETATM    1  O   UNL     1     -11.051   7.535  73.788  1.00  0.00    -0.522 OA 
HETATM    2  H   UNL     1     -10.334   7.403  74.397  1.00  0.00     0.000 HD 
HETATM    3  C   UNL     1     -10.589   7.970  72.508  1.00  0.00    -0.329 C  
ENDROOT
BRANCH   3   4
HETATM    4  C   UNL     1     -11.743   8.182  71.527  1.00  0.00    -0.286 C  
HETATM    5  N   UNL     1     -11.579   9.508  70.807  1.00  0.00    -0.291 N  
HETATM    6  O   UNL     1     -12.606  10.127  70.492  1.00  0.00    -0.281 OA 
HETATM    7 BR   UNL     1     -11.631   6.831  70.093  1.00  0.00    -0.364 Br 
HETATM    8  O   UNL     1     -10.429   9.876  70.522  1.00  0.00    -0.284 OA 
BRANCH   4   9
HETATM    9  C   UNL     1     -13.126   8.103  72.176  1.00  0.00    -0.243 C  
HETATM   10  O   UNL     1     -13.410   9.259  72.982  1.00  0.00    -0.733 OA 
HETATM   11  H   UNL     1     -14.268   9.210  73.385  1.00  0.00     0.000 HD 
ENDBRANCH   4   9
ENDBRANCH   3   4
TORSDOF 2
ENDMDL
MODEL       53
REMARK 921   NORMALIZED FREE ENERGY PREDICTED BY IDOCK:   -2.80 KCAL/MOL
REMARK 922        TOTAL FREE ENERGY PREDICTED BY IDOCK:   -3.76 KCAL/MOL
REMARK 923 INTER-LIGAND FREE ENERGY PREDICTED BY IDOCK:   -3.07 KCAL/MOL
REMARK 924 INTRA-LIGAND FREE ENERGY PREDICTED BY IDOCK:   -0.70 KCAL/MOL
REMARK 927      BINDING AFFINITY PREDICTED BY RF-SCORE:    0.00 PKD
ROOT
HETATM    1  O   UNL     1     -12.065  11.043  68.156  1.00  0.00    -0.743 OA 
HETATM    2  H   UNL     1     -12.445  10.413  68.757  1.00  0.00     0.000 HD 
HETATM    3  C   UNL     1     -11.018  10.467  67.373  1.00  0.00    -0.288 C  
ENDROOT
BRANCH   3   4
HETATM    4  C   UNL     1     -10.407  11.481  66.405  1.00  0.00    -0.237 C  
HETATM    5  N   UNL     1     -10.082  12.770  67.138  1.00  0.00    -0.232 N  
HETATM    6  O   UNL     1     -10.183  13.835  66.509  1.00  0.00    -0.272 OA 
HETATM    7 BR   UNL     1      -8.654  10.815  65.790  1.00  0.00    -0.183 Br 
HETATM    8  O   UNL     1      -9.679  12.688  68.308  1.00  0.00    -0.217 OA 
BRANCH   4   9
HETATM    9  C   UNL     1     -11.282  11.775  65.186  1.00  0.00    -0.250 C  
HETATM   10  O   UNL     1     -12.488  12.470  65.543  1.00  0.00    -0.646 OA 
HETATM   11  H   UNL     1     -13.032  12.653  64.786  1.00  0.00     0.000 HD 
ENDBRANCH   4   9
ENDBRANCH   3   4
TORSDOF 2
ENDMDL
MODEL       54
REMARK 921   NORMALIZED FREE ENERGY PREDICTED BY IDOCK:   -2.75 KCAL/MOL
REMARK 922        TOTAL FREE ENERGY PREDICTED BY IDOCK:   -3.71 KCAL/MOL
REMARK 923 INTER-LIGAND FREE ENERGY PREDICTED BY IDOCK:   -3.02 KCAL/MOL
REMARK 924 INTRA-LIGAND FREE ENERGY PREDICTED BY IDOCK:   -0.69 KCAL/MOL
REMARK 927      BINDING AFFINITY PREDICTED BY RF-SCORE:    0.00 PKD
ROOT
HETATM    1  O   UNL     1     -10.156  14.216  64.649  1.00  0.00    -0.587 OA 
HETATM    2  H   UNL     1     -10.074  14.368  63.715  1.00  0.00     0.000 HD 
HETATM    3  C   UNL     1     -10.438  15.421  65.362  1.00  0.00    -0.402 C  
ENDROOT
BRANCH   3   4
HETATM    4  C   UNL     1     -10.570  15.177  66.865  1.00  0.00    -0.297 C  
HETATM    5  N   UNL     1      -9.367  14.406  67.376  1.00  0.00    -0.193 N  
HETATM    6  O   UNL     1      -9.543  13.611  68.313  1.00  0.00    -0.209 OA 
HETATM    7 BR   UNL     1     -10.481  16.904  67.814  1.00  0.00    -0.343 Br 
HETATM    8  O   UNL     1      -8.262  14.650  66.869  1.00  0.00    -0.190 OA 
BRANCH   4   9
HETATM    9  C   UNL     1     -11.862  14.459  67.262  1.00  0.00    -0.405 C  
HETATM   10  O   UNL     1     -12.004  13.196  66.592  1.00  0.00    -0.391 OA 
HETATM   11  H   UNL     1     -12.805  12.750  66.837  1.00  0.00     0.000 HD 
ENDBRANCH   4   9
ENDBRANCH   3   4
TORSDOF 2
ENDMDL
MODEL       55
REMARK 921   NORMALIZED FREE ENERGY PREDICTED BY IDOCK:   -2.75 KCAL/MOL
REMARK 922        TOTAL FREE ENERGY PREDICTED BY IDOCK:   -3.70 KCAL/MOL
REMARK 923 INTER-LIGAND FREE ENERGY PREDICTED BY IDOCK:   -3.25 KCAL/MOL
REMARK 924 INTRA-LIGAND FREE ENERGY PREDICTED BY IDOCK:   -0.46 KCAL/MOL
REMARK 927      BINDING AFFINITY PREDICTED BY RF-SCORE:    0.00 PKD
ROOT
HETATM    1  O   UNL     1      -8.507  14.641  66.332  1.00  0.00    -0.415 OA 
HETATM    2  H   UNL     1      -7.564  14.527  66.339  1.00  0.00     0.000 HD 
HETATM    3  C   UNL     1      -9.173  13.612  67.065  1.00  0.00    -0.250 C  
ENDROOT
BRANCH   3   4
HETATM    4  C   UNL     1     -10.691  13.795  67.056  1.00  0.00    -0.283 C  
HETATM    5  N   UNL     1     -11.199  13.856  65.626  1.00  0.00    -0.303 N  
HETATM    6  O   UNL     1     -12.182  14.576  65.391  1.00  0.00    -0.357 OA 
HETATM    7 BR   UNL     1     -11.544  12.184  67.809  1.00  0.00    -0.400 Br 
HETATM    8  O   UNL     1     -10.642  13.140  64.781  1.00  0.00    -0.330 OA 
BRANCH   4   9
HETATM    9  C   UNL     1     -11.168  15.021  67.836  1.00  0.00    -0.323 C  
HETATM   10  O   UNL     1     -12.476  14.824  68.401  1.00  0.00    -0.584 OA 
HETATM   11  H   UNL     1     -12.773  15.585  68.885  1.00  0.00     0.000 HD 
ENDBRANCH   4   9
ENDBRANCH   3   4
TORSDOF 2
ENDMDL
MODEL       56
REMARK 921   NORMALIZED FREE ENERGY PREDICTED BY IDOCK:   -2.74 KCAL/MOL
REMARK 922        TOTAL FREE ENERGY PREDICTED BY IDOCK:   -3.69 KCAL/MOL
REMARK 923 INTER-LIGAND FREE ENERGY PREDICTED BY IDOCK:   -3.01 KCAL/MOL
REMARK 924 INTRA-LIGAND FREE ENERGY PREDICTED BY IDOCK:   -0.68 KCAL/MOL
REMARK 927      BINDING AFFINITY PREDICTED BY RF-SCORE:    0.00 PKD
ROOT
HETATM    1  O   UNL     1      -9.166  12.071  68.713  1.00  0.00    -0.377 OA 
HETATM    2  H   UNL     1      -8.344  11.648  68.930  1.00  0.00     0.000 HD 
HETATM    3  C   UNL     1      -9.174  12.560  67.371  1.00  0.00    -0.186 C  
ENDROOT
BRANCH   3   4
HETATM    4  C   UNL     1     -10.497  13.241  67.020  1.00  0.00    -0.249 C  
HETATM    5  N   UNL     1     -10.932  14.151  68.154  1.00  0.00    -0.243 N  
HETATM    6  O   UNL     1     -12.149  14.280  68.360  1.00  0.00    -0.335 OA 
HETATM    7 BR   UNL     1     -10.215  14.462  65.496  1.00  0.00    -0.400 Br 
HETATM    8  O   UNL     1     -10.052  14.761  68.780  1.00  0.00    -0.225 OA 
BRANCH   4   9
HETATM    9  C   UNL     1     -11.620  12.262  66.670  1.00  0.00    -0.375 C  
HETATM   10  O   UNL     1     -12.027  11.481  67.806  1.00  0.00    -0.623 OA 
HETATM   11  H   UNL     1     -12.724  10.874  67.589  1.00  0.00     0.000 HD 
ENDBRANCH   4   9
ENDBRANCH   3   4
TORSDOF 2
ENDMDL
MODEL       57
REMARK 921   NORMALIZED FREE ENERGY PREDICTED BY IDOCK:   -2.73 KCAL/MOL
REMARK 922        TOTAL FREE ENERGY PREDICTED BY IDOCK:   -3.69 KCAL/MOL
REMARK 923 INTER-LIGAND FREE ENERGY PREDICTED BY IDOCK:   -3.24 KCAL/MOL
REMARK 924 INTRA-LIGAND FREE ENERGY PREDICTED BY IDOCK:   -0.45 KCAL/MOL
REMARK 927      BINDING AFFINITY PREDICTED BY RF-SCORE:    0.00 PKD
ROOT
HETATM    1  O   UNL     1     -10.993  15.697  66.709  1.00  0.00    -0.310 OA 
HETATM    2  H   UNL     1     -11.302  14.993  66.153  1.00  0.00     0.000 HD 
HETATM    3  C   UNL     1     -10.323  16.713  65.960  1.00  0.00    -0.340 C  
ENDROOT
BRANCH   3   4
HETATM    4  C   UNL     1      -9.825  17.847  66.855  1.00  0.00    -0.321 C  
HETATM    5  N   UNL     1      -8.310  17.923  66.807  1.00  0.00    -0.243 N  
HETATM    6  O   UNL     1      -7.715  18.284  67.835  1.00  0.00    -0.234 OA 
HETATM    7 BR   UNL     1     -10.423  19.573  66.108  1.00  0.00    -0.605 Br 
HETATM    8  O   UNL     1      -7.749  17.673  65.730  1.00  0.00    -0.540 OA 
BRANCH   4   9
HETATM    9  C   UNL     1     -10.302  17.743  68.305  1.00  0.00    -0.385 C  
HETATM   10  O   UNL     1      -9.660  16.665  69.007  1.00  0.00    -0.258 OA 
HETATM   11  H   UNL     1      -9.956  16.600  69.906  1.00  0.00     0.000 HD 
ENDBRANCH   4   9
ENDBRANCH   3   4
TORSDOF 2
ENDMDL
MODEL       58
REMARK 921   NORMALIZED FREE ENERGY PREDICTED BY IDOCK:   -2.72 KCAL/MOL
REMARK 922        TOTAL FREE ENERGY PREDICTED BY IDOCK:   -3.67 KCAL/MOL
REMARK 923 INTER-LIGAND FREE ENERGY PREDICTED BY IDOCK:   -2.98 KCAL/MOL
REMARK 924 INTRA-LIGAND FREE ENERGY PREDICTED BY IDOCK:   -0.69 KCAL/MOL
REMARK 927      BINDING AFFINITY PREDICTED BY RF-SCORE:    0.00 PKD
ROOT
HETATM    1  O   UNL     1      -9.260  16.052  66.597  1.00  0.00    -0.213 OA 
HETATM    2  H   UNL     1      -8.903  16.877  66.288  1.00  0.00     0.000 HD 
HETATM    3  C   UNL     1     -10.324  15.588  65.764  1.00  0.00    -0.363 C  
ENDROOT
BRANCH   3   4
HETATM    4  C   UNL     1     -10.897  14.260  66.260  1.00  0.00    -0.310 C  
HETATM    5  N   UNL     1     -11.219  14.352  67.741  1.00  0.00    -0.287 N  
HETATM    6  O   UNL     1     -11.087  13.327  68.427  1.00  0.00    -0.245 OA 
HETATM    7 BR   UNL     1     -12.646  13.947  65.400  1.00  0.00    -0.511 Br 
HETATM    8  O   UNL     1     -11.649  15.431  68.176  1.00  0.00    -0.347 OA 
BRANCH   4   9
HETATM    9  C   UNL     1      -9.991  13.058  65.991  1.00  0.00    -0.276 C  
HETATM   10  O   UNL     1      -8.685  13.229  66.568  1.00  0.00    -0.431 OA 
HETATM   11  H   UNL     1      -8.122  12.483  66.401  1.00  0.00     0.000 HD 
ENDBRANCH   4   9
ENDBRANCH   3   4
TORSDOF 2
ENDMDL
MODEL       59
REMARK 921   NORMALIZED FREE ENERGY PREDICTED BY IDOCK:   -2.71 KCAL/MOL
REMARK 922        TOTAL FREE ENERGY PREDICTED BY IDOCK:   -3.66 KCAL/MOL
REMARK 923 INTER-LIGAND FREE ENERGY PREDICTED BY IDOCK:   -2.97 KCAL/MOL
REMARK 924 INTRA-LIGAND FREE ENERGY PREDICTED BY IDOCK:   -0.68 KCAL/MOL
REMARK 927      BINDING AFFINITY PREDICTED BY RF-SCORE:    0.00 PKD
ROOT
HETATM    1  O   UNL     1      -8.458  15.424  66.017  1.00  0.00    -0.348 OA 
HETATM    2  H   UNL     1      -7.787  14.860  65.650  1.00  0.00     0.000 HD 
HETATM    3  C   UNL     1      -7.894  16.546  66.700  1.00  0.00    -0.285 C  
ENDROOT
BRANCH   3   4
HETATM    4  C   UNL     1      -8.973  17.454  67.291  1.00  0.00    -0.236 C  
HETATM    5  N   UNL     1      -9.860  16.663  68.236  1.00  0.00    -0.245 N  
HETATM    6  O   UNL     1     -11.056  16.983  68.311  1.00  0.00    -0.337 OA 
HETATM    7 BR   UNL     1      -8.120  18.810  68.443  1.00  0.00    -0.383 Br 
HETATM    8  O   UNL     1      -9.332  15.777  68.923  1.00  0.00    -0.199 OA 
BRANCH   4   9
HETATM    9  C   UNL     1      -9.826  18.164  66.238  1.00  0.00    -0.310 C  
HETATM   10  O   UNL     1     -10.587  17.236  65.446  1.00  0.00    -0.630 OA 
HETATM   11  H   UNL     1     -11.117  17.676  64.793  1.00  0.00     0.000 HD 
ENDBRANCH   4   9
ENDBRANCH   3   4
TORSDOF 2
ENDMDL
MODEL       60
REMARK 921   NORMALIZED FREE ENERGY PREDICTED BY IDOCK:   -2.70 KCAL/MOL
REMARK 922        TOTAL FREE ENERGY PREDICTED BY IDOCK:   -3.65 KCAL/MOL
REMARK 923 INTER-LIGAND FREE ENERGY PREDICTED BY IDOCK:   -3.20 KCAL/MOL
REMARK 924 INTRA-LIGAND FREE ENERGY PREDICTED BY IDOCK:   -0.45 KCAL/MOL
REMARK 927      BINDING AFFINITY PREDICTED BY RF-SCORE:    0.00 PKD
ROOT
HETATM    1  O   UNL     1     -10.699  14.389  64.268  1.00  0.00    -0.581 OA 
HETATM    2  H   UNL     1     -10.567  15.029  63.578  1.00  0.00     0.000 HD 
HETATM    3  C   UNL     1     -10.286  14.887  65.542  1.00  0.00    -0.365 C  
ENDROOT
BRANCH   3   4
HETATM    4  C   UNL     1     -10.498  13.858  66.652  1.00  0.00    -0.272 C  
HETATM    5  N   UNL     1     -11.967  13.795  67.031  1.00  0.00    -0.408 N  
HETATM    6  O   UNL     1     -12.251  13.550  68.214  1.00  0.00    -0.313 OA 
HETATM    7 BR   UNL     1     -10.097  12.057  65.953  1.00  0.00    -0.273 Br 
HETATM    8  O   UNL     1     -12.806  13.936  66.129  1.00  0.00    -0.384 OA 
BRANCH   4   9
HETATM    9  C   UNL     1      -9.644  14.108  67.896  1.00  0.00    -0.223 C  
HETATM   10  O   UNL     1      -9.432  12.906  68.655  1.00  0.00    -0.382 OA 
HETATM   11  H   UNL     1      -8.902  13.061  69.427  1.00  0.00     0.000 HD 
ENDBRANCH   4   9
ENDBRANCH   3   4
TORSDOF 2
ENDMDL
MODEL       61
REMARK 921   NORMALIZED FREE ENERGY PREDICTED BY IDOCK:   -2.69 KCAL/MOL
REMARK 922        TOTAL FREE ENERGY PREDICTED BY IDOCK:   -3.64 KCAL/MOL
REMARK 923 INTER-LIGAND FREE ENERGY PREDICTED BY IDOCK:   -3.40 KCAL/MOL
REMARK 924 INTRA-LIGAND FREE ENERGY PREDICTED BY IDOCK:   -0.23 KCAL/MOL
REMARK 927      BINDING AFFINITY PREDICTED BY RF-SCORE:    0.00 PKD
ROOT
HETATM    1  O   UNL     1      -9.481  14.231  69.325  1.00  0.00    -0.402 OA 
HETATM    2  H   UNL     1      -9.344  15.048  69.789  1.00  0.00     0.000 HD 
HETATM    3  C   UNL     1     -10.808  14.130  68.806  1.00  0.00    -0.258 C  
ENDROOT
BRANCH   3   4
HETATM    4  C   UNL     1     -11.030  12.816  68.058  1.00  0.00    -0.239 C  
HETATM    5  N   UNL     1     -11.461  13.094  66.630  1.00  0.00    -0.331 N  
HETATM    6  O   UNL     1     -12.244  12.294  66.094  1.00  0.00    -0.647 OA 
HETATM    7 BR   UNL     1      -9.304  11.877  67.872  1.00  0.00    -0.193 Br 
HETATM    8  O   UNL     1     -10.966  14.075  66.054  1.00  0.00    -0.294 OA 
BRANCH   4   9
HETATM    9  C   UNL     1     -12.032  11.881  68.738  1.00  0.00    -0.249 C  
HETATM   10  O   UNL     1     -11.982  10.551  68.196  1.00  0.00    -0.788 OA 
HETATM   11  H   UNL     1     -12.603   9.970  68.617  1.00  0.00     0.000 HD 
ENDBRANCH   4   9
ENDBRANCH   3   4
TORSDOF 2
ENDMDL
MODEL       62
REMARK 921   NORMALIZED FREE ENERGY PREDICTED BY IDOCK:   -2.68 KCAL/MOL
REMARK 922        TOTAL FREE ENERGY PREDICTED BY IDOCK:   -3.63 KCAL/MOL
REMARK 923 INTER-LIGAND FREE ENERGY PREDICTED BY IDOCK:   -3.20 KCAL/MOL
REMARK 924 INTRA-LIGAND FREE ENERGY PREDICTED BY IDOCK:   -0.43 KCAL/MOL
REMARK 927      BINDING AFFINITY PREDICTED BY RF-SCORE:    0.00 PKD
ROOT
HETATM    1  O   UNL     1     -11.679   6.559  69.466  1.00  0.00    -0.640 OA 
HETATM    2  H   UNL     1     -11.274   6.281  68.653  1.00  0.00     0.000 HD 
HETATM    3  C   UNL     1     -11.102   7.769  69.960  1.00  0.00    -0.175 C  
ENDROOT
BRANCH   3   4
HETATM    4  C   UNL     1     -11.753   8.218  71.268  1.00  0.00    -0.283 C  
HETATM    5  N   UNL     1     -10.731   8.208  72.390  1.00  0.00    -0.309 N  
HETATM    6  O   UNL     1     -11.126   7.927  73.532  1.00  0.00    -0.214 OA 
HETATM    7 BR   UNL     1     -12.285  10.112  71.111  1.00  0.00    -0.522 Br 
HETATM    8  O   UNL     1      -9.566   8.534  72.118  1.00  0.00    -0.262 OA 
BRANCH   4   9
HETATM    9  C   UNL     1     -12.977   7.390  71.663  1.00  0.00    -0.366 C  
HETATM   10  O   UNL     1     -12.610   6.109  72.202  1.00  0.00    -0.428 OA 
HETATM   11  H   UNL     1     -13.369   5.595  72.447  1.00  0.00     0.000 HD 
ENDBRANCH   4   9
ENDBRANCH   3   4
TORSDOF 2
ENDMDL
MODEL       63
REMARK 921   NORMALIZED FREE ENERGY PREDICTED BY IDOCK:   -2.67 KCAL/MOL
REMARK 922        TOTAL FREE ENERGY PREDICTED BY IDOCK:   -3.62 KCAL/MOL
REMARK 923 INTER-LIGAND FREE ENERGY PREDICTED BY IDOCK:   -3.06 KCAL/MOL
REMARK 924 INTRA-LIGAND FREE ENERGY PREDICTED BY IDOCK:   -0.56 KCAL/MOL
REMARK 927      BINDING AFFINITY PREDICTED BY RF-SCORE:    0.00 PKD
ROOT
HETATM    1  O   UNL     1     -10.574  17.354  67.663  1.00  0.00    -0.360 OA 
HETATM    2  H   UNL     1     -11.033  16.580  67.359  1.00  0.00     0.000 HD 
HETATM    3  C   UNL     1      -9.555  17.762  66.749  1.00  0.00    -0.300 C  
ENDROOT
BRANCH   3   4
HETATM    4  C   UNL     1      -8.816  19.008  67.238  1.00  0.00    -0.281 C  
HETATM    5  N   UNL     1      -7.949  18.663  68.436  1.00  0.00    -0.315 N  
HETATM    6  O   UNL     1      -7.792  19.533  69.307  1.00  0.00    -0.308 OA 
HETATM    7 BR   UNL     1      -7.531  19.584  65.856  1.00  0.00    -0.279 Br 
HETATM    8  O   UNL     1      -7.400  17.552  68.455  1.00  0.00    -0.223 OA 
BRANCH   4   9
HETATM    9  C   UNL     1      -9.739  20.180  67.576  1.00  0.00    -0.421 C  
HETATM   10  O   UNL     1     -10.411  19.991  68.832  1.00  0.00    -0.577 OA 
HETATM   11  H   UNL     1     -10.985  20.718  69.042  1.00  0.00     0.000 HD 
ENDBRANCH   4   9
ENDBRANCH   3   4
TORSDOF 2
ENDMDL
MODEL       64
REMARK 921   NORMALIZED FREE ENERGY PREDICTED BY IDOCK:   -2.67 KCAL/MOL
REMARK 922        TOTAL FREE ENERGY PREDICTED BY IDOCK:   -3.62 KCAL/MOL
REMARK 923 INTER-LIGAND FREE ENERGY PREDICTED BY IDOCK:   -3.17 KCAL/MOL
REMARK 924 INTRA-LIGAND FREE ENERGY PREDICTED BY IDOCK:   -0.45 KCAL/MOL
REMARK 927      BINDING AFFINITY PREDICTED BY RF-SCORE:    0.00 PKD
ROOT
HETATM    1  O   UNL     1      -9.293  12.438  65.026  1.00  0.00    -0.436 OA 
HETATM    2  H   UNL     1      -9.044  11.779  64.388  1.00  0.00     0.000 HD 
HETATM    3  C   UNL     1     -10.213  13.385  64.480  1.00  0.00    -0.297 C  
ENDROOT
BRANCH   3   4
HETATM    4  C   UNL     1     -10.615  14.445  65.505  1.00  0.00    -0.347 C  
HETATM    5  N   UNL     1     -10.867  15.772  64.812  1.00  0.00    -0.423 N  
HETATM    6  O   UNL     1     -10.591  16.811  65.430  1.00  0.00    -0.563 OA 
HETATM    7 BR   UNL     1     -12.361  13.964  66.287  1.00  0.00    -0.457 Br 
HETATM    8  O   UNL     1     -11.388  15.749  63.686  1.00  0.00    -0.038 OA 
BRANCH   4   9
HETATM    9  C   UNL     1      -9.599  14.627  66.634  1.00  0.00    -0.278 C  
HETATM   10  O   UNL     1      -8.339  15.122  66.151  1.00  0.00    -0.327 OA 
HETATM   11  H   UNL     1      -7.708  15.235  66.852  1.00  0.00     0.000 HD 
ENDBRANCH   4   9
ENDBRANCH   3   4
TORSDOF 2
ENDMDL
MODEL       65
REMARK 921   NORMALIZED FREE ENERGY PREDICTED BY IDOCK:   -2.67 KCAL/MOL
REMARK 922        TOTAL FREE ENERGY PREDICTED BY IDOCK:   -3.61 KCAL/MOL
REMARK 923 INTER-LIGAND FREE ENERGY PREDICTED BY IDOCK:   -3.13 KCAL/MOL
REMARK 924 INTRA-LIGAND FREE ENERGY PREDICTED BY IDOCK:   -0.48 KCAL/MOL
REMARK 927      BINDING AFFINITY PREDICTED BY RF-SCORE:    0.00 PKD
ROOT
HETATM    1  O   UNL     1     -11.265   6.944  73.556  1.00  0.00    -0.511 OA 
HETATM    2  H   UNL     1     -10.670   6.852  74.290  1.00  0.00     0.000 HD 
HETATM    3  C   UNL     1     -10.820   7.936  72.629  1.00  0.00    -0.364 C  
ENDROOT
BRANCH   3   4
HETATM    4  C   UNL     1     -11.778   8.083  71.447  1.00  0.00    -0.287 C  
HETATM    5  N   UNL     1     -13.191   8.321  71.948  1.00  0.00    -0.341 N  
HETATM    6  O   UNL     1     -14.129   7.864  71.276  1.00  0.00    -0.326 OA 
HETATM    7 BR   UNL     1     -11.331   9.726  70.450  1.00  0.00    -0.383 Br 
HETATM    8  O   UNL     1     -13.337   9.006  72.971  1.00  0.00    -0.300 OA 
BRANCH   4   9
HETATM    9  C   UNL     1     -11.754   6.896  70.483  1.00  0.00    -0.350 C  
HETATM   10  O   UNL     1     -10.988   5.796  71.001  1.00  0.00    -0.271 OA 
HETATM   11  H   UNL     1     -10.972   5.059  70.404  1.00  0.00     0.000 HD 
ENDBRANCH   4   9
ENDBRANCH   3   4
TORSDOF 2
ENDMDL
MODEL       66
REMARK 921   NORMALIZED FREE ENERGY PREDICTED BY IDOCK:   -2.67 KCAL/MOL
REMARK 922        TOTAL FREE ENERGY PREDICTED BY IDOCK:   -3.61 KCAL/MOL
REMARK 923 INTER-LIGAND FREE ENERGY PREDICTED BY IDOCK:   -2.91 KCAL/MOL
REMARK 924 INTRA-LIGAND FREE ENERGY PREDICTED BY IDOCK:   -0.70 KCAL/MOL
REMARK 927      BINDING AFFINITY PREDICTED BY RF-SCORE:    0.00 PKD
ROOT
HETATM    1  O   UNL     1     -11.131  11.770  70.045  1.00  0.00    -0.475 OA 
HETATM    2  H   UNL     1     -11.543  10.970  70.350  1.00  0.00     0.000 HD 
HETATM    3  C   UNL     1     -11.896  12.407  69.020  1.00  0.00    -0.300 C  
ENDROOT
BRANCH   3   4
HETATM    4  C   UNL     1     -11.233  13.694  68.531  1.00  0.00    -0.280 C  
HETATM    5  N   UNL     1      -9.757  13.453  68.268  1.00  0.00    -0.226 N  
HETATM    6  O   UNL     1      -8.971  14.390  68.477  1.00  0.00    -0.183 OA 
HETATM    7 BR   UNL     1     -11.971  14.173  66.765  1.00  0.00    -0.472 Br 
HETATM    8  O   UNL     1      -9.421  12.353  67.807  1.00  0.00    -0.186 OA 
BRANCH   4   9
HETATM    9  C   UNL     1     -11.412  14.880  69.481  1.00  0.00    -0.297 C  
HETATM   10  O   UNL     1     -10.879  14.608  70.788  1.00  0.00    -0.495 OA 
HETATM   11  H   UNL     1     -10.990  15.344  71.378  1.00  0.00     0.000 HD 
ENDBRANCH   4   9
ENDBRANCH   3   4
TORSDOF 2
ENDMDL
MODEL       67
REMARK 921   NORMALIZED FREE ENERGY PREDICTED BY IDOCK:   -2.66 KCAL/MOL
REMARK 922        TOTAL FREE ENERGY PREDICTED BY IDOCK:   -3.60 KCAL/MOL
REMARK 923 INTER-LIGAND FREE ENERGY PREDICTED BY IDOCK:   -2.90 KCAL/MOL
REMARK 924 INTRA-LIGAND FREE ENERGY PREDICTED BY IDOCK:   -0.70 KCAL/MOL
REMARK 927      BINDING AFFINITY PREDICTED BY RF-SCORE:    0.00 PKD
ROOT
HETATM    1  O   UNL     1     -12.881   7.126  70.635  1.00  0.00    -0.609 OA 
HETATM    2  H   UNL     1     -13.510   6.919  69.955  1.00  0.00     0.000 HD 
HETATM    3  C   UNL     1     -11.561   6.702  70.287  1.00  0.00    -0.395 C  
ENDROOT
BRANCH   3   4
HETATM    4  C   UNL     1     -10.548   7.036  71.381  1.00  0.00    -0.217 C  
HETATM    5  N   UNL     1     -11.021   6.487  72.715  1.00  0.00    -0.246 N  
HETATM    6  O   UNL     1     -10.733   7.125  73.739  1.00  0.00    -0.361 OA 
HETATM    7 BR   UNL     1      -8.865   6.069  71.024  1.00  0.00    -0.143 Br 
HETATM    8  O   UNL     1     -11.620   5.401  72.716  1.00  0.00    -0.307 OA 
BRANCH   4   9
HETATM    9  C   UNL     1     -10.244   8.530  71.505  1.00  0.00    -0.250 C  
HETATM   10  O   UNL     1     -11.390   9.278  71.947  1.00  0.00    -0.374 OA 
HETATM   11  H   UNL     1     -11.202  10.205  72.024  1.00  0.00     0.000 HD 
ENDBRANCH   4   9
ENDBRANCH   3   4
TORSDOF 2
ENDMDL
MODEL       68
REMARK 921   NORMALIZED FREE ENERGY PREDICTED BY IDOCK:   -2.65 KCAL/MOL
REMARK 922        TOTAL FREE ENERGY PREDICTED BY IDOCK:   -3.60 KCAL/MOL
REMARK 923 INTER-LIGAND FREE ENERGY PREDICTED BY IDOCK:   -3.14 KCAL/MOL
REMARK 924 INTRA-LIGAND FREE ENERGY PREDICTED BY IDOCK:   -0.45 KCAL/MOL
REMARK 927      BINDING AFFINITY PREDICTED BY RF-SCORE:    0.00 PKD
ROOT
HETATM    1  O   UNL     1      -8.885  14.067  66.667  1.00  0.00    -0.394 OA 
HETATM    2  H   UNL     1      -8.012  14.437  66.729  1.00  0.00     0.000 HD 
HETATM    3  C   UNL     1      -8.876  12.649  66.843  1.00  0.00    -0.201 C  
ENDROOT
BRANCH   3   4
HETATM    4  C   UNL     1     -10.280  12.054  66.744  1.00  0.00    -0.202 C  
HETATM    5  N   UNL     1     -11.059  12.738  65.635  1.00  0.00    -0.274 N  
HETATM    6  O   UNL     1     -12.284  12.871  65.784  1.00  0.00    -0.444 OA 
HETATM    7 BR   UNL     1     -10.148  10.174  66.160  1.00  0.00    -0.299 Br 
HETATM    8  O   UNL     1     -10.441  13.077  64.615  1.00  0.00    -0.343 OA 
BRANCH   4   9
HETATM    9  C   UNL     1     -11.068  12.112  68.054  1.00  0.00    -0.244 C  
HETATM   10  O   UNL     1     -12.065  11.079  68.129  1.00  0.00    -0.743 OA 
HETATM   11  H   UNL     1     -12.554  11.114  68.942  1.00  0.00     0.000 HD 
ENDBRANCH   4   9
ENDBRANCH   3   4
TORSDOF 2
ENDMDL
MODEL       69
REMARK 921   NORMALIZED FREE ENERGY PREDICTED BY IDOCK:   -2.64 KCAL/MOL
REMARK 922        TOTAL FREE ENERGY PREDICTED BY IDOCK:   -3.59 KCAL/MOL
REMARK 923 INTER-LIGAND FREE ENERGY PREDICTED BY IDOCK:   -3.13 KCAL/MOL
REMARK 924 INTRA-LIGAND FREE ENERGY PREDICTED BY IDOCK:   -0.46 KCAL/MOL
REMARK 927      BINDING AFFINITY PREDICTED BY RF-SCORE:    0.00 PKD
ROOT
HETATM    1  O   UNL     1     -10.897  19.461  67.551  1.00  0.00    -0.478 OA 
HETATM    2  H   UNL     1     -11.747  19.572  67.961  1.00  0.00     0.000 HD 
HETATM    3  C   UNL     1     -10.084  18.523  68.259  1.00  0.00    -0.390 C  
ENDROOT
BRANCH   3   4
HETATM    4  C   UNL     1      -8.717  18.343  67.600  1.00  0.00    -0.260 C  
HETATM    5  N   UNL     1      -8.845  17.472  66.363  1.00  0.00    -0.257 N  
HETATM    6  O   UNL     1      -7.893  16.731  66.075  1.00  0.00    -0.330 OA 
HETATM    7 BR   UNL     1      -8.095  20.083  66.910  1.00  0.00    -0.372 Br 
HETATM    8  O   UNL     1      -9.870  17.588  65.675  1.00  0.00    -0.543 OA 
BRANCH   4   9
HETATM    9  C   UNL     1      -7.651  17.772  68.538  1.00  0.00    -0.276 C  
HETATM   10  O   UNL     1      -7.989  16.452  68.998  1.00  0.00    -0.224 OA 
HETATM   11  H   UNL     1      -7.328  16.097  69.579  1.00  0.00     0.000 HD 
ENDBRANCH   4   9
ENDBRANCH   3   4
TORSDOF 2
ENDMDL
MODEL       70
REMARK 921   NORMALIZED FREE ENERGY PREDICTED BY IDOCK:   -2.63 KCAL/MOL
REMARK 922        TOTAL FREE ENERGY PREDICTED BY IDOCK:   -3.57 KCAL/MOL
REMARK 923 INTER-LIGAND FREE ENERGY PREDICTED BY IDOCK:   -3.13 KCAL/MOL
REMARK 924 INTRA-LIGAND FREE ENERGY PREDICTED BY IDOCK:   -0.44 KCAL/MOL
REMARK 927      BINDING AFFINITY PREDICTED BY RF-SCORE:    0.00 PKD
ROOT
HETATM    1  O   UNL     1      -7.380  16.855  66.321  1.00  0.00    -0.274 OA 
HETATM    2  H   UNL     1      -6.454  16.729  66.495  1.00  0.00     0.000 HD 
HETATM    3  C   UNL     1      -8.117  17.110  67.518  1.00  0.00    -0.184 C  
ENDROOT
BRANCH   3   4
HETATM    4  C   UNL     1      -9.606  17.313  67.237  1.00  0.00    -0.254 C  
HETATM    5  N   UNL     1      -9.842  18.695  66.653  1.00  0.00    -0.334 N  
HETATM    6  O   UNL     1     -10.908  19.266  66.930  1.00  0.00    -0.450 OA 
HETATM    7 BR   UNL     1     -10.172  16.077  65.808  1.00  0.00    -0.413 Br 
HETATM    8  O   UNL     1      -8.984  19.156  65.886  1.00  0.00    -0.441 OA 
BRANCH   4   9
HETATM    9  C   UNL     1     -10.499  17.099  68.460  1.00  0.00    -0.377 C  
HETATM   10  O   UNL     1     -10.380  18.173  69.409  1.00  0.00    -0.407 OA 
HETATM   11  H   UNL     1     -10.934  18.040  70.169  1.00  0.00     0.000 HD 
ENDBRANCH   4   9
ENDBRANCH   3   4
TORSDOF 2
ENDMDL
MODEL       71
REMARK 921   NORMALIZED FREE ENERGY PREDICTED BY IDOCK:   -2.62 KCAL/MOL
REMARK 922        TOTAL FREE ENERGY PREDICTED BY IDOCK:   -3.56 KCAL/MOL
REMARK 923 INTER-LIGAND FREE ENERGY PREDICTED BY IDOCK:   -2.88 KCAL/MOL
REMARK 924 INTRA-LIGAND FREE ENERGY PREDICTED BY IDOCK:   -0.68 KCAL/MOL
REMARK 927      BINDING AFFINITY PREDICTED BY RF-SCORE:    0.00 PKD
ROOT
HETATM    1  O   UNL     1     -11.825   7.652  73.210  1.00  0.00    -0.631 OA 
HETATM    2  H   UNL     1     -12.010   7.551  74.136  1.00  0.00     0.000 HD 
HETATM    3  C   UNL     1     -10.762   6.797  72.783  1.00  0.00    -0.246 C  
ENDROOT
BRANCH   3   4
HETATM    4  C   UNL     1     -10.465   6.959  71.292  1.00  0.00    -0.208 C  
HETATM    5  N   UNL     1     -10.223   8.421  70.965  1.00  0.00    -0.193 N  
HETATM    6  O   UNL     1     -10.577   8.831  69.848  1.00  0.00    -0.218 OA 
HETATM    7 BR   UNL     1      -8.752   6.075  70.872  1.00  0.00    -0.136 Br 
HETATM    8  O   UNL     1      -9.635   9.116  71.807  1.00  0.00    -0.283 OA 
BRANCH   4   9
HETATM    9  C   UNL     1     -11.554   6.389  70.381  1.00  0.00    -0.373 C  
HETATM   10  O   UNL     1     -12.751   7.184  70.410  1.00  0.00    -0.591 OA 
HETATM   11  H   UNL     1     -13.427   6.830  69.844  1.00  0.00     0.000 HD 
ENDBRANCH   4   9
ENDBRANCH   3   4
TORSDOF 2
ENDMDL
MODEL       72
REMARK 921   NORMALIZED FREE ENERGY PREDICTED BY IDOCK:   -2.62 KCAL/MOL
REMARK 922        TOTAL FREE ENERGY PREDICTED BY IDOCK:   -3.56 KCAL/MOL
REMARK 923 INTER-LIGAND FREE ENERGY PREDICTED BY IDOCK:   -3.29 KCAL/MOL
REMARK 924 INTRA-LIGAND FREE ENERGY PREDICTED BY IDOCK:   -0.26 KCAL/MOL
REMARK 927      BINDING AFFINITY PREDICTED BY RF-SCORE:    0.00 PKD
ROOT
HETATM    1  O   UNL     1     -10.249  19.358  69.249  1.00  0.00    -0.596 OA 
HETATM    2  H   UNL     1     -10.979  19.892  69.539  1.00  0.00     0.000 HD 
HETATM    3  C   UNL     1     -10.094  19.393  67.829  1.00  0.00    -0.401 C  
ENDROOT
BRANCH   3   4
HETATM    4  C   UNL     1      -8.919  18.534  67.362  1.00  0.00    -0.272 C  
HETATM    5  N   UNL     1      -8.004  19.347  66.463  1.00  0.00    -0.282 N  
HETATM    6  O   UNL     1      -7.420  18.753  65.543  1.00  0.00    -0.493 OA 
HETATM    7 BR   UNL     1      -7.793  18.076  68.916  1.00  0.00    -0.132 Br 
HETATM    8  O   UNL     1      -7.845  20.548  66.728  1.00  0.00    -0.283 OA 
BRANCH   4   9
HETATM    9  C   UNL     1      -9.340  17.244  66.657  1.00  0.00    -0.260 C  
HETATM   10  O   UNL     1     -10.142  17.503  65.493  1.00  0.00    -0.576 OA 
HETATM   11  H   UNL     1     -10.403  16.703  65.055  1.00  0.00     0.000 HD 
ENDBRANCH   4   9
ENDBRANCH   3   4
TORSDOF 2
ENDMDL
MODEL       73
REMARK 921   NORMALIZED FREE ENERGY PREDICTED BY IDOCK:   -2.62 KCAL/MOL
REMARK 922        TOTAL FREE ENERGY PREDICTED BY IDOCK:   -3.56 KCAL/MOL
REMARK 923 INTER-LIGAND FREE ENERGY PREDICTED BY IDOCK:   -3.13 KCAL/MOL
REMARK 924 INTRA-LIGAND FREE ENERGY PREDICTED BY IDOCK:   -0.43 KCAL/MOL
REMARK 927      BINDING AFFINITY PREDICTED BY RF-SCORE:    0.00 PKD
ROOT
HETATM    1  O   UNL     1      -9.185  12.847  65.922  1.00  0.00    -0.454 OA 
HETATM    2  H   UNL     1      -8.314  13.125  65.667  1.00  0.00     0.000 HD 
HETATM    3  C   UNL     1      -9.765  13.729  66.885  1.00  0.00    -0.265 C  
ENDROOT
BRANCH   3   4
HETATM    4  C   UNL     1     -11.168  13.281  67.296  1.00  0.00    -0.292 C  
HETATM    5  N   UNL     1     -11.108  11.911  67.948  1.00  0.00    -0.226 N  
HETATM    6  O   UNL     1     -12.071  11.148  67.782  1.00  0.00    -0.606 OA 
HETATM    7 BR   UNL     1     -11.838  14.470  68.720  1.00  0.00    -0.330 Br 
HETATM    8  O   UNL     1     -10.125  11.649  68.658  1.00  0.00    -0.211 OA 
BRANCH   4   9
HETATM    9  C   UNL     1     -12.174  13.271  66.144  1.00  0.00    -0.405 C  
HETATM   10  O   UNL     1     -11.826  14.214  65.116  1.00  0.00    -0.341 OA 
HETATM   11  H   UNL     1     -12.450  14.208  64.401  1.00  0.00     0.000 HD 
ENDBRANCH   4   9
ENDBRANCH   3   4
TORSDOF 2
ENDMDL
MODEL       74
REMARK 921   NORMALIZED FREE ENERGY PREDICTED BY IDOCK:   -2.60 KCAL/MOL
REMARK 922        TOTAL FREE ENERGY PREDICTED BY IDOCK:   -3.54 KCAL/MOL
REMARK 923 INTER-LIGAND FREE ENERGY PREDICTED BY IDOCK:   -3.28 KCAL/MOL
REMARK 924 INTRA-LIGAND FREE ENERGY PREDICTED BY IDOCK:   -0.26 KCAL/MOL
REMARK 927      BINDING AFFINITY PREDICTED BY RF-SCORE:    0.00 PKD
ROOT
HETATM    1  O   UNL     1     -12.102  14.698  68.516  1.00  0.00    -0.525 OA 
HETATM    2  H   UNL     1     -12.880  14.567  69.045  1.00  0.00     0.000 HD 
HETATM    3  C   UNL     1     -12.191  14.019  67.261  1.00  0.00    -0.290 C  
ENDROOT
BRANCH   3   4
HETATM    4  C   UNL     1     -10.939  14.230  66.410  1.00  0.00    -0.311 C  
HETATM    5  N   UNL     1      -9.716  13.708  67.142  1.00  0.00    -0.238 N  
HETATM    6  O   UNL     1      -8.639  14.296  66.963  1.00  0.00    -0.214 OA 
HETATM    7 BR   UNL     1     -11.057  13.105  64.793  1.00  0.00    -0.374 Br 
HETATM    8  O   UNL     1      -9.846  12.689  67.836  1.00  0.00    -0.205 OA 
BRANCH   4   9
HETATM    9  C   UNL     1     -10.719  15.683  65.987  1.00  0.00    -0.317 C  
HETATM   10  O   UNL     1     -10.849  15.857  64.566  1.00  0.00    -0.808 OA 
HETATM   11  H   UNL     1     -10.713  16.759  64.303  1.00  0.00     0.000 HD 
ENDBRANCH   4   9
ENDBRANCH   3   4
TORSDOF 2
ENDMDL
MODEL       75
REMARK 921   NORMALIZED FREE ENERGY PREDICTED BY IDOCK:   -2.60 KCAL/MOL
REMARK 922        TOTAL FREE ENERGY PREDICTED BY IDOCK:   -3.53 KCAL/MOL
REMARK 923 INTER-LIGAND FREE ENERGY PREDICTED BY IDOCK:   -2.83 KCAL/MOL
REMARK 924 INTRA-LIGAND FREE ENERGY PREDICTED BY IDOCK:   -0.70 KCAL/MOL
REMARK 927      BINDING AFFINITY PREDICTED BY RF-SCORE:    0.00 PKD
ROOT
HETATM    1  O   UNL     1     -11.131  16.642  70.174  1.00  0.00    -0.451 OA 
HETATM    2  H   UNL     1     -10.860  17.271  70.832  1.00  0.00     0.000 HD 
HETATM    3  C   UNL     1     -10.167  15.601  70.005  1.00  0.00    -0.267 C  
ENDROOT
BRANCH   3   4
HETATM    4  C   UNL     1     -10.603  14.588  68.947  1.00  0.00    -0.249 C  
HETATM    5  N   UNL     1     -11.080  15.309  67.699  1.00  0.00    -0.316 N  
HETATM    6  O   UNL     1     -11.991  14.786  67.040  1.00  0.00    -0.350 OA 
HETATM    7 BR   UNL     1      -9.029  13.561  68.344  1.00  0.00    -0.099 Br 
HETATM    8  O   UNL     1     -10.497  16.354  67.374  1.00  0.00    -0.301 OA 
BRANCH   4   9
HETATM    9  C   UNL     1     -11.675  13.611  69.433  1.00  0.00    -0.324 C  
HETATM   10  O   UNL     1     -12.908  14.279  69.749  1.00  0.00    -0.476 OA 
HETATM   11  H   UNL     1     -13.574  13.674  70.051  1.00  0.00     0.000 HD 
ENDBRANCH   4   9
ENDBRANCH   3   4
TORSDOF 2
ENDMDL
MODEL       76
REMARK 921   NORMALIZED FREE ENERGY PREDICTED BY IDOCK:   -2.57 KCAL/MOL
REMARK 922        TOTAL FREE ENERGY PREDICTED BY IDOCK:   -3.50 KCAL/MOL
REMARK 923 INTER-LIGAND FREE ENERGY PREDICTED BY IDOCK:   -3.25 KCAL/MOL
REMARK 924 INTRA-LIGAND FREE ENERGY PREDICTED BY IDOCK:   -0.25 KCAL/MOL
REMARK 927      BINDING AFFINITY PREDICTED BY RF-SCORE:    0.00 PKD
ROOT
HETATM    1  O   UNL     1     -11.053  13.807  63.918  1.00  0.00    -0.553 OA 
HETATM    2  H   UNL     1     -11.024  14.387  63.166  1.00  0.00     0.000 HD 
HETATM    3  C   UNL     1     -10.826  14.510  65.141  1.00  0.00    -0.395 C  
ENDROOT
BRANCH   3   4
HETATM    4  C   UNL     1     -10.873  13.578  66.351  1.00  0.00    -0.290 C  
HETATM    5  N   UNL     1      -9.471  13.351  66.889  1.00  0.00    -0.246 N  
HETATM    6  O   UNL     1      -9.215  12.245  67.390  1.00  0.00    -0.172 OA 
HETATM    7 BR   UNL     1     -11.821  14.480  67.828  1.00  0.00    -0.355 Br 
HETATM    8  O   UNL     1      -8.673  14.299  66.849  1.00  0.00    -0.218 OA 
BRANCH   4   9
HETATM    9  C   UNL     1     -11.553  12.237  66.071  1.00  0.00    -0.393 C  
HETATM   10  O   UNL     1     -12.023  11.609  67.275  1.00  0.00    -0.627 OA 
HETATM   11  H   UNL     1     -12.446  10.777  67.101  1.00  0.00     0.000 HD 
ENDBRANCH   4   9
ENDBRANCH   3   4
TORSDOF 2
ENDMDL
MODEL       77
REMARK 921   NORMALIZED FREE ENERGY PREDICTED BY IDOCK:   -2.56 KCAL/MOL
REMARK 922        TOTAL FREE ENERGY PREDICTED BY IDOCK:   -3.50 KCAL/MOL
REMARK 923 INTER-LIGAND FREE ENERGY PREDICTED BY IDOCK:   -3.03 KCAL/MOL
REMARK 924 INTRA-LIGAND FREE ENERGY PREDICTED BY IDOCK:   -0.46 KCAL/MOL
REMARK 927      BINDING AFFINITY PREDICTED BY RF-SCORE:    0.00 PKD
ROOT
HETATM    1  O   UNL     1     -11.173   5.965  70.479  1.00  0.00    -0.305 OA 
HETATM    2  H   UNL     1     -11.548   5.243  69.989  1.00  0.00     0.000 HD 
HETATM    3  C   UNL     1     -12.178   6.856  70.968  1.00  0.00    -0.377 C  
ENDROOT
BRANCH   3   4
HETATM    4  C   UNL     1     -11.575   8.018  71.757  1.00  0.00    -0.285 C  
HETATM    5  N   UNL     1     -10.618   8.804  70.878  1.00  0.00    -0.207 N  
HETATM    6  O   UNL     1      -9.629   9.322  71.418  1.00  0.00    -0.266 OA 
HETATM    7 BR   UNL     1     -12.999   9.308  72.203  1.00  0.00    -0.510 Br 
HETATM    8  O   UNL     1     -10.904   8.933  69.679  1.00  0.00    -0.233 OA 
BRANCH   4   9
HETATM    9  C   UNL     1     -10.873   7.588  73.047  1.00  0.00    -0.392 C  
HETATM   10  O   UNL     1     -11.171   6.226  73.394  1.00  0.00    -0.459 OA 
HETATM   11  H   UNL     1     -10.735   5.959  74.195  1.00  0.00     0.000 HD 
ENDBRANCH   4   9
ENDBRANCH   3   4
TORSDOF 2
ENDMDL
MODEL       78
REMARK 921   NORMALIZED FREE ENERGY PREDICTED BY IDOCK:   -2.56 KCAL/MOL
REMARK 922        TOTAL FREE ENERGY PREDICTED BY IDOCK:   -3.49 KCAL/MOL
REMARK 923 INTER-LIGAND FREE ENERGY PREDICTED BY IDOCK:   -3.10 KCAL/MOL
REMARK 924 INTRA-LIGAND FREE ENERGY PREDICTED BY IDOCK:   -0.39 KCAL/MOL
REMARK 927      BINDING AFFINITY PREDICTED BY RF-SCORE:    0.00 PKD
ROOT
HETATM    1  O   UNL     1     -12.380  10.825  68.512  1.00  0.00    -0.825 OA 
HETATM    2  H   UNL     1     -12.586  10.373  69.321  1.00  0.00     0.000 HD 
HETATM    3  C   UNL     1     -11.119  11.494  68.582  1.00  0.00    -0.238 C  
ENDROOT
BRANCH   3   4
HETATM    4  C   UNL     1     -10.787  12.221  67.279  1.00  0.00    -0.245 C  
HETATM    5  N   UNL     1     -11.745  13.380  67.070  1.00  0.00    -0.359 N  
HETATM    6  O   UNL     1     -12.057  13.671  65.905  1.00  0.00    -0.386 OA 
HETATM    7 BR   UNL     1      -9.017  13.076  67.446  1.00  0.00    -0.214 Br 
HETATM    8  O   UNL     1     -12.121  14.010  68.070  1.00  0.00    -0.362 OA 
BRANCH   4   9
HETATM    9  C   UNL     1     -10.785  11.312  66.048  1.00  0.00    -0.242 C  
HETATM   10  O   UNL     1     -10.389   9.969  66.372  1.00  0.00    -0.226 OA 
HETATM   11  H   UNL     1     -10.387   9.404  65.608  1.00  0.00     0.000 HD 
ENDBRANCH   4   9
ENDBRANCH   3   4
TORSDOF 2
ENDMDL
MODEL       79
REMARK 921   NORMALIZED FREE ENERGY PREDICTED BY IDOCK:   -2.56 KCAL/MOL
REMARK 922        TOTAL FREE ENERGY PREDICTED BY IDOCK:   -3.49 KCAL/MOL
REMARK 923 INTER-LIGAND FREE ENERGY PREDICTED BY IDOCK:   -2.81 KCAL/MOL
REMARK 924 INTRA-LIGAND FREE ENERGY PREDICTED BY IDOCK:   -0.68 KCAL/MOL
REMARK 927      BINDING AFFINITY PREDICTED BY RF-SCORE:    0.00 PKD
ROOT
HETATM    1  O   UNL     1     -10.653   4.964  72.057  1.00  0.00    -0.201 OA 
HETATM    2  H   UNL     1     -10.275   4.095  72.115  1.00  0.00     0.000 HD 
HETATM    3  C   UNL     1      -9.712   5.922  71.567  1.00  0.00    -0.161 C  
ENDROOT
BRANCH   3   4
HETATM    4  C   UNL     1     -10.321   7.321  71.473  1.00  0.00    -0.201 C  
HETATM    5  N   UNL     1     -11.121   7.627  72.727  1.00  0.00    -0.356 N  
HETATM    6  O   UNL     1     -12.127   8.343  72.611  1.00  0.00    -0.390 OA 
HETATM    7 BR   UNL     1      -8.872   8.660  71.482  1.00  0.00    -0.296 Br 
HETATM    8  O   UNL     1     -10.697   7.191  73.807  1.00  0.00    -0.361 OA 
BRANCH   4   9
HETATM    9  C   UNL     1     -11.186   7.535  70.230  1.00  0.00    -0.236 C  
HETATM   10  O   UNL     1     -12.377   6.731  70.259  1.00  0.00    -0.604 OA 
HETATM   11  H   UNL     1     -12.915   6.864  69.487  1.00  0.00     0.000 HD 
ENDBRANCH   4   9
ENDBRANCH   3   4
TORSDOF 2
ENDMDL
MODEL       80
REMARK 921   NORMALIZED FREE ENERGY PREDICTED BY IDOCK:   -2.55 KCAL/MOL
REMARK 922        TOTAL FREE ENERGY PREDICTED BY IDOCK:   -3.48 KCAL/MOL
REMARK 923 INTER-LIGAND FREE ENERGY PREDICTED BY IDOCK:   -2.87 KCAL/MOL
REMARK 924 INTRA-LIGAND FREE ENERGY PREDICTED BY IDOCK:   -0.61 KCAL/MOL
REMARK 927      BINDING AFFINITY PREDICTED BY RF-SCORE:    0.00 PKD
ROOT
HETATM    1  O   UNL     1     -11.265  12.725  69.620  1.00  0.00    -0.455 OA 
HETATM    2  H   UNL     1     -11.810  12.388  70.322  1.00  0.00     0.000 HD 
HETATM    3  C   UNL     1     -11.327  14.150  69.535  1.00  0.00    -0.259 C  
ENDROOT
BRANCH   3   4
HETATM    4  C   UNL     1     -10.449  14.692  68.407  1.00  0.00    -0.243 C  
HETATM    5  N   UNL     1     -10.970  14.211  67.064  1.00  0.00    -0.295 N  
HETATM    6  O   UNL     1     -10.142  13.997  66.165  1.00  0.00    -0.290 OA 
HETATM    7 BR   UNL     1     -10.634  16.654  68.326  1.00  0.00    -0.352 Br 
HETATM    8  O   UNL     1     -12.197  14.109  66.919  1.00  0.00    -0.439 OA 
BRANCH   4   9
HETATM    9  C   UNL     1      -8.968  14.339  68.554  1.00  0.00    -0.185 C  
HETATM   10  O   UNL     1      -8.753  12.918  68.583  1.00  0.00    -0.351 OA 
HETATM   11  H   UNL     1      -7.834  12.698  68.675  1.00  0.00     0.000 HD 
ENDBRANCH   4   9
ENDBRANCH   3   4
TORSDOF 2
ENDMDL
MODEL       81
REMARK 921   NORMALIZED FREE ENERGY PREDICTED BY IDOCK:   -2.55 KCAL/MOL
REMARK 922        TOTAL FREE ENERGY PREDICTED BY IDOCK:   -3.48 KCAL/MOL
REMARK 923 INTER-LIGAND FREE ENERGY PREDICTED BY IDOCK:   -2.79 KCAL/MOL
REMARK 924 INTRA-LIGAND FREE ENERGY PREDICTED BY IDOCK:   -0.69 KCAL/MOL
REMARK 927      BINDING AFFINITY PREDICTED BY RF-SCORE:    0.00 PKD
ROOT
HETATM    1  O   UNL     1     -11.105   7.600  67.568  1.00  0.00    -0.527 OA 
HETATM    2  H   UNL     1     -10.875   7.363  66.677  1.00  0.00     0.000 HD 
HETATM    3  C   UNL     1      -9.948   7.840  68.370  1.00  0.00    -0.178 C  
ENDROOT
BRANCH   3   4
HETATM    4  C   UNL     1     -10.318   8.222  69.804  1.00  0.00    -0.216 C  
HETATM    5  N   UNL     1     -11.430   7.322  70.312  1.00  0.00    -0.247 N  
HETATM    6  O   UNL     1     -12.252   7.808  71.105  1.00  0.00    -0.308 OA 
HETATM    7 BR   UNL     1      -8.793   7.832  70.993  1.00  0.00    -0.151 Br 
HETATM    8  O   UNL     1     -11.427   6.135  69.953  1.00  0.00    -0.421 OA 
BRANCH   4   9
HETATM    9  C   UNL     1     -10.713   9.690  69.968  1.00  0.00    -0.259 C  
HETATM   10  O   UNL     1     -11.825  10.047  69.130  1.00  0.00    -0.485 OA 
HETATM   11  H   UNL     1     -12.070  10.958  69.231  1.00  0.00     0.000 HD 
ENDBRANCH   4   9
ENDBRANCH   3   4
TORSDOF 2
ENDMDL
MODEL       82
REMARK 921   NORMALIZED FREE ENERGY PREDICTED BY IDOCK:   -2.53 KCAL/MOL
REMARK 922        TOTAL FREE ENERGY PREDICTED BY IDOCK:   -3.46 KCAL/MOL
REMARK 923 INTER-LIGAND FREE ENERGY PREDICTED BY IDOCK:   -2.82 KCAL/MOL
REMARK 924 INTRA-LIGAND FREE ENERGY PREDICTED BY IDOCK:   -0.63 KCAL/MOL
REMARK 927      BINDING AFFINITY PREDICTED BY RF-SCORE:    0.00 PKD
ROOT
HETATM    1  O   UNL     1     -10.777  12.105  67.290  1.00  0.00    -0.219 OA 
HETATM    2  H   UNL     1     -11.134  12.079  68.170  1.00  0.00     0.000 HD 
HETATM    3  C   UNL     1     -11.791  12.342  66.312  1.00  0.00    -0.364 C  
ENDROOT
BRANCH   3   4
HETATM    4  C   UNL     1     -11.216  12.385  64.896  1.00  0.00    -0.311 C  
HETATM    5  N   UNL     1     -10.213  11.262  64.706  1.00  0.00    -0.271 N  
HETATM    6  O   UNL     1      -9.246  11.470  63.956  1.00  0.00    -0.070 OA 
HETATM    7 BR   UNL     1     -12.650  11.982  63.601  1.00  0.00    -0.510 Br 
HETATM    8  O   UNL     1     -10.440  10.179  65.265  1.00  0.00    -0.193 OA 
BRANCH   4   9
HETATM    9  C   UNL     1     -10.580  13.727  64.529  1.00  0.00    -0.386 C  
HETATM   10  O   UNL     1      -9.692  14.201  65.555  1.00  0.00    -0.502 OA 
HETATM   11  H   UNL     1      -9.297  15.034  65.328  1.00  0.00     0.000 HD 
ENDBRANCH   4   9
ENDBRANCH   3   4
TORSDOF 2
ENDMDL
MODEL       83
REMARK 921   NORMALIZED FREE ENERGY PREDICTED BY IDOCK:   -2.51 KCAL/MOL
REMARK 922        TOTAL FREE ENERGY PREDICTED BY IDOCK:   -3.44 KCAL/MOL
REMARK 923 INTER-LIGAND FREE ENERGY PREDICTED BY IDOCK:   -2.99 KCAL/MOL
REMARK 924 INTRA-LIGAND FREE ENERGY PREDICTED BY IDOCK:   -0.45 KCAL/MOL
REMARK 927      BINDING AFFINITY PREDICTED BY RF-SCORE:    0.00 PKD
ROOT
HETATM    1  O   UNL     1     -10.991   6.313  73.774  1.00  0.00    -0.430 OA 
HETATM    2  H   UNL     1     -10.520   5.630  74.237  1.00  0.00     0.000 HD 
HETATM    3  C   UNL     1     -11.245   5.955  72.414  1.00  0.00    -0.291 C  
ENDROOT
BRANCH   3   4
HETATM    4  C   UNL     1     -12.004   7.053  71.669  1.00  0.00    -0.329 C  
HETATM    5  N   UNL     1     -11.450   8.416  72.044  1.00  0.00    -0.324 N  
HETATM    6  O   UNL     1     -12.238   9.373  72.076  1.00  0.00    -0.363 OA 
HETATM    7 BR   UNL     1     -11.642   6.895  69.736  1.00  0.00    -0.139 Br 
HETATM    8  O   UNL     1     -10.230   8.513  72.244  1.00  0.00    -0.304 OA 
BRANCH   4   9
HETATM    9  C   UNL     1     -13.516   7.020  71.895  1.00  0.00    -0.159 C  
HETATM   10  O   UNL     1     -14.228   7.760  70.890  1.00  0.00    -0.651 OA 
HETATM   11  H   UNL     1     -15.167   7.740  71.029  1.00  0.00     0.000 HD 
ENDBRANCH   4   9
ENDBRANCH   3   4
TORSDOF 2
ENDMDL
MODEL       84
REMARK 921   NORMALIZED FREE ENERGY PREDICTED BY IDOCK:   -2.51 KCAL/MOL
REMARK 922        TOTAL FREE ENERGY PREDICTED BY IDOCK:   -3.44 KCAL/MOL
REMARK 923 INTER-LIGAND FREE ENERGY PREDICTED BY IDOCK:   -3.44 KCAL/MOL
REMARK 924 INTRA-LIGAND FREE ENERGY PREDICTED BY IDOCK:   -0.00 KCAL/MOL
REMARK 927      BINDING AFFINITY PREDICTED BY RF-SCORE:    0.00 PKD
ROOT
HETATM    1  O   UNL     1     -12.740  11.884  71.471  1.00  0.00    -0.347 OA 
HETATM    2  H   UNL     1     -13.110  11.009  71.490  1.00  0.00     0.000 HD 
HETATM    3  C   UNL     1     -13.542  12.817  72.197  1.00  0.00    -0.451 C  
ENDROOT
BRANCH   3   4
HETATM    4  C   UNL     1     -12.947  14.224  72.168  1.00  0.00    -0.373 C  
HETATM    5  N   UNL     1     -12.054  14.388  70.951  1.00  0.00    -0.327 N  
HETATM    6  O   UNL     1     -11.062  15.125  71.055  1.00  0.00    -0.304 OA 
HETATM    7 BR   UNL     1     -14.394  15.536  71.891  1.00  0.00    -0.497 Br 
HETATM    8  O   UNL     1     -12.394  13.821  69.901  1.00  0.00    -0.322 OA 
BRANCH   4   9
HETATM    9  C   UNL     1     -12.178  14.595  73.438  1.00  0.00    -0.197 C  
HETATM   10  O   UNL     1     -12.751  15.735  74.100  1.00  0.00    -0.625 OA 
HETATM   11  H   UNL     1     -12.274  15.966  74.888  1.00  0.00     0.000 HD 
ENDBRANCH   4   9
ENDBRANCH   3   4
TORSDOF 2
ENDMDL
MODEL       85
REMARK 921   NORMALIZED FREE ENERGY PREDICTED BY IDOCK:   -2.51 KCAL/MOL
REMARK 922        TOTAL FREE ENERGY PREDICTED BY IDOCK:   -3.44 KCAL/MOL
REMARK 923 INTER-LIGAND FREE ENERGY PREDICTED BY IDOCK:   -2.99 KCAL/MOL
REMARK 924 INTRA-LIGAND FREE ENERGY PREDICTED BY IDOCK:   -0.45 KCAL/MOL
REMARK 927      BINDING AFFINITY PREDICTED BY RF-SCORE:    0.00 PKD
ROOT
HETATM    1  O   UNL     1     -10.974  13.868  69.714  1.00  0.00    -0.454 OA 
HETATM    2  H   UNL     1     -11.490  14.089  70.480  1.00  0.00     0.000 HD 
HETATM    3  C   UNL     1     -11.772  13.823  68.530  1.00  0.00    -0.356 C  
ENDROOT
BRANCH   3   4
HETATM    4  C   UNL     1     -10.941  13.468  67.297  1.00  0.00    -0.280 C  
HETATM    5  N   UNL     1     -10.364  14.727  66.676  1.00  0.00    -0.268 N  
HETATM    6  O   UNL     1     -10.225  14.755  65.444  1.00  0.00    -0.341 OA 
HETATM    7 BR   UNL     1      -9.359  12.431  67.857  1.00  0.00    -0.201 Br 
HETATM    8  O   UNL     1     -10.010  15.640  67.437  1.00  0.00    -0.229 OA 
BRANCH   4   9
HETATM    9  C   UNL     1     -11.711  12.668  66.244  1.00  0.00    -0.402 C  
HETATM   10  O   UNL     1     -12.749  13.447  65.628  1.00  0.00    -0.458 OA 
HETATM   11  H   UNL     1     -13.228  12.951  64.975  1.00  0.00     0.000 HD 
ENDBRANCH   4   9
ENDBRANCH   3   4
TORSDOF 2
ENDMDL
MODEL       86
REMARK 921   NORMALIZED FREE ENERGY PREDICTED BY IDOCK:   -2.50 KCAL/MOL
REMARK 922        TOTAL FREE ENERGY PREDICTED BY IDOCK:   -3.43 KCAL/MOL
REMARK 923 INTER-LIGAND FREE ENERGY PREDICTED BY IDOCK:   -3.01 KCAL/MOL
REMARK 924 INTRA-LIGAND FREE ENERGY PREDICTED BY IDOCK:   -0.42 KCAL/MOL
REMARK 927      BINDING AFFINITY PREDICTED BY RF-SCORE:    0.00 PKD
ROOT
HETATM    1  O   UNL     1      -8.847  14.838  69.361  1.00  0.00    -0.387 OA 
HETATM    2  H   UNL     1      -8.143  14.510  69.908  1.00  0.00     0.000 HD 
HETATM    3  C   UNL     1      -8.645  16.205  68.996  1.00  0.00    -0.251 C  
ENDROOT
BRANCH   3   4
HETATM    4  C   UNL     1      -9.778  16.732  68.115  1.00  0.00    -0.247 C  
HETATM    5  N   UNL     1      -9.450  16.502  66.651  1.00  0.00    -0.244 N  
HETATM    6  O   UNL     1      -9.856  17.337  65.828  1.00  0.00    -0.528 OA 
HETATM    7 BR   UNL     1     -11.399  15.653  68.427  1.00  0.00    -0.367 Br 
HETATM    8  O   UNL     1      -8.842  15.465  66.348  1.00  0.00    -0.290 OA 
BRANCH   4   9
HETATM    9  C   UNL     1     -10.110  18.206  68.355  1.00  0.00    -0.388 C  
HETATM   10  O   UNL     1      -8.944  19.042  68.267  1.00  0.00    -0.307 OA 
HETATM   11  H   UNL     1      -9.149  19.957  68.416  1.00  0.00     0.000 HD 
ENDBRANCH   4   9
ENDBRANCH   3   4
TORSDOF 2
ENDMDL
MODEL       87
REMARK 921   NORMALIZED FREE ENERGY PREDICTED BY IDOCK:   -2.50 KCAL/MOL
REMARK 922        TOTAL FREE ENERGY PREDICTED BY IDOCK:   -3.43 KCAL/MOL
REMARK 923 INTER-LIGAND FREE ENERGY PREDICTED BY IDOCK:   -2.97 KCAL/MOL
REMARK 924 INTRA-LIGAND FREE ENERGY PREDICTED BY IDOCK:   -0.46 KCAL/MOL
REMARK 927      BINDING AFFINITY PREDICTED BY RF-SCORE:    0.00 PKD
ROOT
HETATM    1  O   UNL     1     -11.611   4.631  65.140  1.00  0.00    -1.107 OA 
HETATM    2  H   UNL     1     -11.971   4.142  64.410  1.00  0.00     0.000 HD 
HETATM    3  C   UNL     1     -10.197   4.456  65.253  1.00  0.00    -0.210 C  
ENDROOT
BRANCH   3   4
HETATM    4  C   UNL     1      -9.617   5.244  66.427  1.00  0.00    -0.160 C  
HETATM    5  N   UNL     1      -9.715   4.427  67.703  1.00  0.00    -0.165 N  
HETATM    6  O   UNL     1      -9.898   5.036  68.768  1.00  0.00    -0.153 OA 
HETATM    7 BR   UNL     1      -7.679   5.487  66.152  1.00  0.00    -0.096 Br 
HETATM    8  O   UNL     1      -9.553   3.201  67.621  1.00  0.00    -0.197 OA 
BRANCH   4   9
HETATM    9  C   UNL     1     -10.265   6.615  66.629  1.00  0.00    -0.138 C  
HETATM   10  O   UNL     1     -11.603   6.509  67.143  1.00  0.00    -0.743 OA 
HETATM   11  H   UNL     1     -12.005   7.360  67.269  1.00  0.00     0.000 HD 
ENDBRANCH   4   9
ENDBRANCH   3   4
TORSDOF 2
ENDMDL
MODEL       88
REMARK 921   NORMALIZED FREE ENERGY PREDICTED BY IDOCK:   -2.49 KCAL/MOL
REMARK 922        TOTAL FREE ENERGY PREDICTED BY IDOCK:   -3.42 KCAL/MOL
REMARK 923 INTER-LIGAND FREE ENERGY PREDICTED BY IDOCK:   -2.96 KCAL/MOL
REMARK 924 INTRA-LIGAND FREE ENERGY PREDICTED BY IDOCK:   -0.46 KCAL/MOL
REMARK 927      BINDING AFFINITY PREDICTED BY RF-SCORE:    0.00 PKD
ROOT
HETATM    1  O   UNL     1     -11.811  13.005  62.983  1.00  0.00    -0.841 OA 
HETATM    2  H   UNL     1     -11.701  12.614  62.124  1.00  0.00     0.000 HD 
HETATM    3  C   UNL     1     -11.167  12.239  64.003  1.00  0.00    -0.392 C  
ENDROOT
BRANCH   3   4
HETATM    4  C   UNL     1     -11.343  12.868  65.385  1.00  0.00    -0.303 C  
HETATM    5  N   UNL     1     -10.261  13.905  65.627  1.00  0.00    -0.318 N  
HETATM    6  O   UNL     1      -9.850  14.052  66.788  1.00  0.00    -0.257 OA 
HETATM    7 BR   UNL     1     -13.024  13.902  65.418  1.00  0.00    -0.204 Br 
HETATM    8  O   UNL     1      -9.884  14.587  64.663  1.00  0.00    -0.102 OA 
BRANCH   4   9
HETATM    9  C   UNL     1     -11.364  11.851  66.527  1.00  0.00    -0.341 C  
HETATM   10  O   UNL     1     -10.113  11.155  66.652  1.00  0.00    -0.204 OA 
HETATM   11  H   UNL     1     -10.125  10.524  67.361  1.00  0.00     0.000 HD 
ENDBRANCH   4   9
ENDBRANCH   3   4
TORSDOF 2
ENDMDL
MODEL       89
REMARK 921   NORMALIZED FREE ENERGY PREDICTED BY IDOCK:   -2.48 KCAL/MOL
REMARK 922        TOTAL FREE ENERGY PREDICTED BY IDOCK:   -3.41 KCAL/MOL
REMARK 923 INTER-LIGAND FREE ENERGY PREDICTED BY IDOCK:   -2.71 KCAL/MOL
REMARK 924 INTRA-LIGAND FREE ENERGY PREDICTED BY IDOCK:   -0.70 KCAL/MOL
REMARK 927      BINDING AFFINITY PREDICTED BY RF-SCORE:    0.00 PKD
ROOT
HETATM    1  O   UNL     1      -7.677  16.034  69.110  1.00  0.00    -0.210 OA 
HETATM    2  H   UNL     1      -6.889  16.073  69.639  1.00  0.00     0.000 HD 
HETATM    3  C   UNL     1      -8.056  17.323  68.624  1.00  0.00    -0.261 C  
ENDROOT
BRANCH   3   4
HETATM    4  C   UNL     1      -9.324  17.260  67.772  1.00  0.00    -0.250 C  
HETATM    5  N   UNL     1     -10.416  16.514  68.517  1.00  0.00    -0.282 N  
HETATM    6  O   UNL     1     -11.216  15.841  67.850  1.00  0.00    -0.341 OA 
HETATM    7 BR   UNL     1     -10.045  19.083  67.547  1.00  0.00    -0.486 Br 
HETATM    8  O   UNL     1     -10.485  16.660  69.746  1.00  0.00    -0.273 OA 
BRANCH   4   9
HETATM    9  C   UNL     1      -9.109  16.638  66.391  1.00  0.00    -0.292 C  
HETATM   10  O   UNL     1      -8.618  15.290  66.478  1.00  0.00    -0.313 OA 
HETATM   11  H   UNL     1      -8.485  14.904  65.621  1.00  0.00     0.000 HD 
ENDBRANCH   4   9
ENDBRANCH   3   4
TORSDOF 2
ENDMDL
MODEL       90
REMARK 921   NORMALIZED FREE ENERGY PREDICTED BY IDOCK:   -2.47 KCAL/MOL
REMARK 922        TOTAL FREE ENERGY PREDICTED BY IDOCK:   -3.40 KCAL/MOL
REMARK 923 INTER-LIGAND FREE ENERGY PREDICTED BY IDOCK:   -2.74 KCAL/MOL
REMARK 924 INTRA-LIGAND FREE ENERGY PREDICTED BY IDOCK:   -0.66 KCAL/MOL
REMARK 927      BINDING AFFINITY PREDICTED BY RF-SCORE:    0.00 PKD
ROOT
HETATM    1  O   UNL     1      -9.098  19.706  68.353  1.00  0.00    -0.344 OA 
HETATM    2  H   UNL     1      -9.318  20.509  68.810  1.00  0.00     0.000 HD 
HETATM    3  C   UNL     1      -9.892  18.605  68.799  1.00  0.00    -0.379 C  
ENDROOT
BRANCH   3   4
HETATM    4  C   UNL     1      -9.538  17.313  68.064  1.00  0.00    -0.274 C  
HETATM    5  N   UNL     1      -8.032  17.195  67.911  1.00  0.00    -0.188 N  
HETATM    6  O   UNL     1      -7.595  16.637  66.893  1.00  0.00    -0.178 OA 
HETATM    7 BR   UNL     1     -10.035  15.769  69.188  1.00  0.00    -0.258 Br 
HETATM    8  O   UNL     1      -7.320  17.614  68.836  1.00  0.00    -0.258 OA 
BRANCH   4   9
HETATM    9  C   UNL     1     -10.218  17.173  66.701  1.00  0.00    -0.319 C  
HETATM   10  O   UNL     1      -9.991  18.320  65.865  1.00  0.00    -0.538 OA 
HETATM   11  H   UNL     1     -10.413  18.234  65.019  1.00  0.00     0.000 HD 
ENDBRANCH   4   9
ENDBRANCH   3   4
TORSDOF 2
ENDMDL
MODEL       91
REMARK 921   NORMALIZED FREE ENERGY PREDICTED BY IDOCK:   -2.46 KCAL/MOL
REMARK 922        TOTAL FREE ENERGY PREDICTED BY IDOCK:   -3.38 KCAL/MOL
REMARK 923 INTER-LIGAND FREE ENERGY PREDICTED BY IDOCK:   -3.18 KCAL/MOL
REMARK 924 INTRA-LIGAND FREE ENERGY PREDICTED BY IDOCK:   -0.20 KCAL/MOL
REMARK 927      BINDING AFFINITY PREDICTED BY RF-SCORE:    0.00 PKD
ROOT
HETATM    1  O   UNL     1     -10.957   7.558  73.898  1.00  0.00    -0.528 OA 
HETATM    2  H   UNL     1     -10.394   7.526  74.662  1.00  0.00     0.000 HD 
HETATM    3  C   UNL     1     -10.271   8.065  72.752  1.00  0.00    -0.319 C  
ENDROOT
BRANCH   3   4
HETATM    4  C   UNL     1     -11.177   8.115  71.521  1.00  0.00    -0.259 C  
HETATM    5  N   UNL     1     -11.524   6.708  71.072  1.00  0.00    -0.311 N  
HETATM    6  O   UNL     1     -11.680   6.510  69.857  1.00  0.00    -0.406 OA 
HETATM    7 BR   UNL     1     -12.912   8.908  72.025  1.00  0.00    -0.497 Br 
HETATM    8  O   UNL     1     -11.689   5.843  71.945  1.00  0.00    -0.255 OA 
BRANCH   4   9
HETATM    9  C   UNL     1     -10.588   8.911  70.355  1.00  0.00    -0.217 C  
HETATM   10  O   UNL     1     -10.778  10.326  70.518  1.00  0.00    -0.387 OA 
HETATM   11  H   UNL     1     -10.413  10.820  69.794  1.00  0.00     0.000 HD 
ENDBRANCH   4   9
ENDBRANCH   3   4
TORSDOF 2
ENDMDL
MODEL       92
REMARK 921   NORMALIZED FREE ENERGY PREDICTED BY IDOCK:   -2.46 KCAL/MOL
REMARK 922        TOTAL FREE ENERGY PREDICTED BY IDOCK:   -3.38 KCAL/MOL
REMARK 923 INTER-LIGAND FREE ENERGY PREDICTED BY IDOCK:   -2.68 KCAL/MOL
REMARK 924 INTRA-LIGAND FREE ENERGY PREDICTED BY IDOCK:   -0.70 KCAL/MOL
REMARK 927      BINDING AFFINITY PREDICTED BY RF-SCORE:    0.00 PKD
ROOT
HETATM    1  O   UNL     1      -8.402  12.970  68.908  1.00  0.00    -0.350 OA 
HETATM    2  H   UNL     1      -7.689  12.421  68.603  1.00  0.00     0.000 HD 
HETATM    3  C   UNL     1      -9.089  13.600  67.825  1.00  0.00    -0.199 C  
ENDROOT
BRANCH   3   4
HETATM    4  C   UNL     1     -10.236  14.483  68.315  1.00  0.00    -0.234 C  
HETATM    5  N   UNL     1      -9.772  15.346  69.475  1.00  0.00    -0.261 N  
HETATM    6  O   UNL     1     -10.598  15.623  70.358  1.00  0.00    -0.322 OA 
HETATM    7 BR   UNL     1     -10.708  15.778  66.903  1.00  0.00    -0.263 Br 
HETATM    8  O   UNL     1      -8.608  15.774  69.451  1.00  0.00    -0.251 OA 
BRANCH   4   9
HETATM    9  C   UNL     1     -11.491  13.702  68.710  1.00  0.00    -0.309 C  
HETATM   10  O   UNL     1     -11.254  12.834  69.831  1.00  0.00    -0.490 OA 
HETATM   11  H   UNL     1     -12.032  12.348  70.077  1.00  0.00     0.000 HD 
ENDBRANCH   4   9
ENDBRANCH   3   4
TORSDOF 2
ENDMDL
MODEL       93
REMARK 921   NORMALIZED FREE ENERGY PREDICTED BY IDOCK:   -2.45 KCAL/MOL
REMARK 922        TOTAL FREE ENERGY PREDICTED BY IDOCK:   -3.37 KCAL/MOL
REMARK 923 INTER-LIGAND FREE ENERGY PREDICTED BY IDOCK:   -3.16 KCAL/MOL
REMARK 924 INTRA-LIGAND FREE ENERGY PREDICTED BY IDOCK:   -0.21 KCAL/MOL
REMARK 927      BINDING AFFINITY PREDICTED BY RF-SCORE:    0.00 PKD
ROOT
HETATM    1  O   UNL     1     -13.130  12.004  71.433  1.00  0.00    -0.344 OA 
HETATM    2  H   UNL     1     -13.419  11.131  71.670  1.00  0.00     0.000 HD 
HETATM    3  C   UNL     1     -13.536  12.978  72.396  1.00  0.00    -0.515 C  
ENDROOT
BRANCH   3   4
HETATM    4  C   UNL     1     -13.069  14.383  72.016  1.00  0.00    -0.361 C  
HETATM    5  N   UNL     1     -12.546  15.108  73.243  1.00  0.00    -0.452 N  
HETATM    6  O   UNL     1     -12.711  16.337  73.305  1.00  0.00    -0.473 OA 
HETATM    7 BR   UNL     1     -11.503  14.247  70.825  1.00  0.00     0.048 Br 
HETATM    8  O   UNL     1     -11.932  14.445  74.093  1.00  0.00    -0.186 OA 
BRANCH   4   9
HETATM    9  C   UNL     1     -14.145  15.224  71.327  1.00  0.00    -0.429 C  
HETATM   10  O   UNL     1     -13.597  16.054  70.288  1.00  0.00    -0.446 OA 
HETATM   11  H   UNL     1     -14.264  16.576  69.860  1.00  0.00     0.000 HD 
ENDBRANCH   4   9
ENDBRANCH   3   4
TORSDOF 2
ENDMDL
MODEL       94
REMARK 921   NORMALIZED FREE ENERGY PREDICTED BY IDOCK:   -2.45 KCAL/MOL
REMARK 922        TOTAL FREE ENERGY PREDICTED BY IDOCK:   -3.37 KCAL/MOL
REMARK 923 INTER-LIGAND FREE ENERGY PREDICTED BY IDOCK:   -2.67 KCAL/MOL
REMARK 924 INTRA-LIGAND FREE ENERGY PREDICTED BY IDOCK:   -0.70 KCAL/MOL
REMARK 927      BINDING AFFINITY PREDICTED BY RF-SCORE:    0.00 PKD
ROOT
HETATM    1  O   UNL     1      -9.225  20.016  67.268  1.00  0.00    -0.332 OA 
HETATM    2  H   UNL     1     -10.087  20.416  67.292  1.00  0.00     0.000 HD 
HETATM    3  C   UNL     1      -9.246  18.677  67.765  1.00  0.00    -0.285 C  
ENDROOT
BRANCH   3   4
HETATM    4  C   UNL     1      -7.860  18.033  67.726  1.00  0.00    -0.223 C  
HETATM    5  N   UNL     1      -6.835  18.965  68.346  1.00  0.00    -0.245 N  
HETATM    6  O   UNL     1      -5.683  18.948  67.886  1.00  0.00    -0.190 OA 
HETATM    7 BR   UNL     1      -7.849  16.446  68.899  1.00  0.00    -0.235 Br 
HETATM    8  O   UNL     1      -7.187  19.654  69.316  1.00  0.00    -0.360 OA 
BRANCH   4   9
HETATM    9  C   UNL     1      -7.413  17.616  66.324  1.00  0.00    -0.305 C  
HETATM   10  O   UNL     1      -7.292  18.743  65.440  1.00  0.00    -0.491 OA 
HETATM   11  H   UNL     1      -7.015  18.485  64.569  1.00  0.00     0.000 HD 
ENDBRANCH   4   9
ENDBRANCH   3   4
TORSDOF 2
ENDMDL
MODEL       95
REMARK 921   NORMALIZED FREE ENERGY PREDICTED BY IDOCK:   -2.45 KCAL/MOL
REMARK 922        TOTAL FREE ENERGY PREDICTED BY IDOCK:   -3.37 KCAL/MOL
REMARK 923 INTER-LIGAND FREE ENERGY PREDICTED BY IDOCK:   -2.76 KCAL/MOL
REMARK 924 INTRA-LIGAND FREE ENERGY PREDICTED BY IDOCK:   -0.61 KCAL/MOL
REMARK 927      BINDING AFFINITY PREDICTED BY RF-SCORE:    0.00 PKD
ROOT
HETATM    1  O   UNL     1     -10.202   5.687  72.719  1.00  0.00    -0.176 OA 
HETATM    2  H   UNL     1      -9.994   4.884  73.182  1.00  0.00     0.000 HD 
HETATM    3  C   UNL     1     -11.605   5.817  72.481  1.00  0.00    -0.267 C  
ENDROOT
BRANCH   3   4
HETATM    4  C   UNL     1     -11.939   7.109  71.736  1.00  0.00    -0.313 C  
HETATM    5  N   UNL     1     -11.376   7.059  70.327  1.00  0.00    -0.296 N  
HETATM    6  O   UNL     1     -10.992   8.123  69.819  1.00  0.00    -0.225 OA 
HETATM    7 BR   UNL     1     -13.892   7.221  71.477  1.00  0.00    -0.389 Br 
HETATM    8  O   UNL     1     -11.381   5.968  69.738  1.00  0.00    -0.409 OA 
BRANCH   4   9
HETATM    9  C   UNL     1     -11.460   8.374  72.450  1.00  0.00    -0.380 C  
HETATM   10  O   UNL     1     -10.030   8.505  72.412  1.00  0.00    -0.302 OA 
HETATM   11  H   UNL     1      -9.732   9.290  72.855  1.00  0.00     0.000 HD 
ENDBRANCH   4   9
ENDBRANCH   3   4
TORSDOF 2
ENDMDL
MODEL       96
REMARK 921   NORMALIZED FREE ENERGY PREDICTED BY IDOCK:   -2.43 KCAL/MOL
REMARK 922        TOTAL FREE ENERGY PREDICTED BY IDOCK:   -3.35 KCAL/MOL
REMARK 923 INTER-LIGAND FREE ENERGY PREDICTED BY IDOCK:   -2.94 KCAL/MOL
REMARK 924 INTRA-LIGAND FREE ENERGY PREDICTED BY IDOCK:   -0.41 KCAL/MOL
REMARK 927      BINDING AFFINITY PREDICTED BY RF-SCORE:    0.00 PKD
ROOT
HETATM    1  O   UNL     1     -10.931  14.688  66.614  1.00  0.00    -0.310 OA 
HETATM    2  H   UNL     1     -11.099  13.852  66.196  1.00  0.00     0.000 HD 
HETATM    3  C   UNL     1      -9.680  15.246  66.207  1.00  0.00    -0.299 C  
ENDROOT
BRANCH   3   4
HETATM    4  C   UNL     1      -9.411  16.592  66.878  1.00  0.00    -0.235 C  
HETATM    5  N   UNL     1      -9.836  17.726  65.962  1.00  0.00    -0.222 N  
HETATM    6  O   UNL     1      -9.184  18.781  66.005  1.00  0.00    -0.476 OA 
HETATM    7 BR   UNL     1     -10.582  16.777  68.455  1.00  0.00    -0.368 Br 
HETATM    8  O   UNL     1     -10.843  17.558  65.258  1.00  0.00    -0.592 OA 
BRANCH   4   9
HETATM    9  C   UNL     1      -7.958  16.784  67.314  1.00  0.00    -0.172 C  
HETATM   10  O   UNL     1      -7.837  17.740  68.381  1.00  0.00    -0.264 OA 
HETATM   11  H   UNL     1      -6.935  17.859  68.653  1.00  0.00     0.000 HD 
ENDBRANCH   4   9
ENDBRANCH   3   4
TORSDOF 2
ENDMDL
MODEL       97
REMARK 921   NORMALIZED FREE ENERGY PREDICTED BY IDOCK:   -2.42 KCAL/MOL
REMARK 922        TOTAL FREE ENERGY PREDICTED BY IDOCK:   -3.34 KCAL/MOL
REMARK 923 INTER-LIGAND FREE ENERGY PREDICTED BY IDOCK:   -3.11 KCAL/MOL
REMARK 924 INTRA-LIGAND FREE ENERGY PREDICTED BY IDOCK:   -0.23 KCAL/MOL
REMARK 927      BINDING AFFINITY PREDICTED BY RF-SCORE:    0.00 PKD
ROOT
HETATM    1  O   UNL     1     -10.326  16.382  68.950  1.00  0.00    -0.236 OA 
HETATM    2  H   UNL     1     -10.839  16.992  69.467  1.00  0.00     0.000 HD 
HETATM    3  C   UNL     1     -10.977  16.045  67.724  1.00  0.00    -0.307 C  
ENDROOT
BRANCH   3   4
HETATM    4  C   UNL     1     -10.151  15.064  66.892  1.00  0.00    -0.249 C  
HETATM    5  N   UNL     1     -10.456  15.247  65.416  1.00  0.00    -0.366 N  
HETATM    6  O   UNL     1     -10.414  14.243  64.687  1.00  0.00    -0.425 OA 
HETATM    7 BR   UNL     1      -8.239  15.525  67.054  1.00  0.00    -0.292 Br 
HETATM    8  O   UNL     1     -10.677  16.396  65.006  1.00  0.00    -0.638 OA 
BRANCH   4   9
HETATM    9  C   UNL     1     -10.344  13.601  67.292  1.00  0.00    -0.249 C  
HETATM   10  O   UNL     1      -9.854  13.336  68.617  1.00  0.00    -0.349 OA 
HETATM   11  H   UNL     1      -9.973  12.428  68.867  1.00  0.00     0.000 HD 
ENDBRANCH   4   9
ENDBRANCH   3   4
TORSDOF 2
ENDMDL
MODEL       98
REMARK 921   NORMALIZED FREE ENERGY PREDICTED BY IDOCK:   -2.42 KCAL/MOL
REMARK 922        TOTAL FREE ENERGY PREDICTED BY IDOCK:   -3.33 KCAL/MOL
REMARK 923 INTER-LIGAND FREE ENERGY PREDICTED BY IDOCK:   -2.88 KCAL/MOL
REMARK 924 INTRA-LIGAND FREE ENERGY PREDICTED BY IDOCK:   -0.45 KCAL/MOL
REMARK 927      BINDING AFFINITY PREDICTED BY RF-SCORE:    0.00 PKD
ROOT
HETATM    1  O   UNL     1     -11.172  15.060  65.806  1.00  0.00    -0.340 OA 
HETATM    2  H   UNL     1     -11.746  15.004  65.051  1.00  0.00     0.000 HD 
HETATM    3  C   UNL     1     -10.319  16.205  65.742  1.00  0.00    -0.378 C  
ENDROOT
BRANCH   3   4
HETATM    4  C   UNL     1      -9.395  16.296  66.956  1.00  0.00    -0.221 C  
HETATM    5  N   UNL     1      -8.099  16.988  66.575  1.00  0.00    -0.258 N  
HETATM    6  O   UNL     1      -7.060  16.630  67.150  1.00  0.00    -0.148 OA 
HETATM    7 BR   UNL     1     -10.208  17.488  68.302  1.00  0.00    -0.386 Br 
HETATM    8  O   UNL     1      -8.155  17.913  65.751  1.00  0.00    -0.537 OA 
BRANCH   4   9
HETATM    9  C   UNL     1      -9.098  14.944  67.607  1.00  0.00    -0.183 C  
HETATM   10  O   UNL     1      -8.539  14.007  66.672  1.00  0.00    -0.431 OA 
HETATM   11  H   UNL     1      -8.354  13.167  67.075  1.00  0.00     0.000 HD 
ENDBRANCH   4   9
ENDBRANCH   3   4
TORSDOF 2
ENDMDL
MODEL       99
REMARK 921   NORMALIZED FREE ENERGY PREDICTED BY IDOCK:   -2.42 KCAL/MOL
REMARK 922        TOTAL FREE ENERGY PREDICTED BY IDOCK:   -3.33 KCAL/MOL
REMARK 923 INTER-LIGAND FREE ENERGY PREDICTED BY IDOCK:   -2.86 KCAL/MOL
REMARK 924 INTRA-LIGAND FREE ENERGY PREDICTED BY IDOCK:   -0.47 KCAL/MOL
REMARK 927      BINDING AFFINITY PREDICTED BY RF-SCORE:    0.00 PKD
ROOT
HETATM    1  O   UNL     1      -9.830  17.684  68.300  1.00  0.00    -0.290 OA 
HETATM    2  H   UNL     1     -10.156  18.439  68.776  1.00  0.00     0.000 HD 
HETATM    3  C   UNL     1     -10.856  16.716  68.071  1.00  0.00    -0.337 C  
ENDROOT
BRANCH   3   4
HETATM    4  C   UNL     1     -10.332  15.501  67.305  1.00  0.00    -0.267 C  
HETATM    5  N   UNL     1      -9.062  14.982  67.955  1.00  0.00    -0.176 N  
HETATM    6  O   UNL     1      -8.198  14.481  67.220  1.00  0.00    -0.192 OA 
HETATM    7 BR   UNL     1     -11.616  14.015  67.489  1.00  0.00    -0.422 Br 
HETATM    8  O   UNL     1      -8.979  15.036  69.191  1.00  0.00    -0.205 OA 
BRANCH   4   9
HETATM    9  C   UNL     1     -10.091  15.768  65.818  1.00  0.00    -0.371 C  
HETATM   10  O   UNL     1     -10.600  17.049  65.411  1.00  0.00    -0.601 OA 
HETATM   11  H   UNL     1     -10.450  17.214  64.488  1.00  0.00     0.000 HD 
ENDBRANCH   4   9
ENDBRANCH   3   4
TORSDOF 2
ENDMDL
MODEL      100
REMARK 921   NORMALIZED FREE ENERGY PREDICTED BY IDOCK:   -2.42 KCAL/MOL
REMARK 922        TOTAL FREE ENERGY PREDICTED BY IDOCK:   -3.33 KCAL/MOL
REMARK 923 INTER-LIGAND FREE ENERGY PREDICTED BY IDOCK:   -2.88 KCAL/MOL
REMARK 924 INTRA-LIGAND FREE ENERGY PREDICTED BY IDOCK:   -0.45 KCAL/MOL
REMARK 927      BINDING AFFINITY PREDICTED BY RF-SCORE:    0.00 PKD
ROOT
HETATM    1  O   UNL     1      -9.389  11.848  68.852  1.00  0.00    -0.398 OA 
HETATM    2  H   UNL     1      -9.423  11.025  69.325  1.00  0.00     0.000 HD 
HETATM    3  C   UNL     1     -10.693  12.395  68.641  1.00  0.00    -0.232 C  
ENDROOT
BRANCH   3   4
HETATM    4  C   UNL     1     -10.639  13.720  67.881  1.00  0.00    -0.252 C  
HETATM    5  N   UNL     1     -11.460  13.625  66.608  1.00  0.00    -0.329 N  
HETATM    6  O   UNL     1     -11.075  14.270  65.621  1.00  0.00    -0.303 OA 
HETATM    7 BR   UNL     1     -11.545  15.114  68.944  1.00  0.00    -0.374 Br 
HETATM    8  O   UNL     1     -12.502  12.954  66.638  1.00  0.00    -0.367 OA 
BRANCH   4   9
HETATM    9  C   UNL     1      -9.219  14.188  67.558  1.00  0.00    -0.192 C  
HETATM   10  O   UNL     1      -8.600  13.374  66.547  1.00  0.00    -0.431 OA 
HETATM   11  H   UNL     1      -7.719  13.663  66.346  1.00  0.00     0.000 HD 
ENDBRANCH   4   9
ENDBRANCH   3   4
TORSDOF 2
ENDMDL
MODEL      101
REMARK 921   NORMALIZED FREE ENERGY PREDICTED BY IDOCK:   -2.39 KCAL/MOL
REMARK 922        TOTAL FREE ENERGY PREDICTED BY IDOCK:   -3.31 KCAL/MOL
REMARK 923 INTER-LIGAND FREE ENERGY PREDICTED BY IDOCK:   -3.06 KCAL/MOL
REMARK 924 INTRA-LIGAND FREE ENERGY PREDICTED BY IDOCK:   -0.24 KCAL/MOL
REMARK 927      BINDING AFFINITY PREDICTED BY RF-SCORE:    0.00 PKD
ROOT
HETATM    1  O   UNL     1      -9.606   8.497  65.692  1.00  0.00    -0.447 OA 
HETATM    2  H   UNL     1      -9.571   7.557  65.831  1.00  0.00     0.000 HD 
HETATM    3  C   UNL     1     -10.059   9.190  66.855  1.00  0.00    -0.258 C  
ENDROOT
BRANCH   3   4
HETATM    4  C   UNL     1     -10.113  10.702  66.633  1.00  0.00    -0.220 C  
HETATM    5  N   UNL     1     -11.466  11.243  67.058  1.00  0.00    -0.197 N  
HETATM    6  O   UNL     1     -11.927  12.210  66.431  1.00  0.00    -0.611 OA 
HETATM    7 BR   UNL     1      -8.832  11.583  67.846  1.00  0.00    -0.158 Br 
HETATM    8  O   UNL     1     -12.014  10.728  68.044  1.00  0.00    -0.537 OA 
BRANCH   4   9
HETATM    9  C   UNL     1      -9.806  11.124  65.195  1.00  0.00    -0.259 C  
HETATM   10  O   UNL     1      -8.393  11.139  64.928  1.00  0.00    -0.375 OA 
HETATM   11  H   UNL     1      -8.202  11.401  64.036  1.00  0.00     0.000 HD 
ENDBRANCH   4   9
ENDBRANCH   3   4
TORSDOF 2
ENDMDL
MODEL      102
REMARK 921   NORMALIZED FREE ENERGY PREDICTED BY IDOCK:   -2.37 KCAL/MOL
REMARK 922        TOTAL FREE ENERGY PREDICTED BY IDOCK:   -3.28 KCAL/MOL
REMARK 923 INTER-LIGAND FREE ENERGY PREDICTED BY IDOCK:   -2.62 KCAL/MOL
REMARK 924 INTRA-LIGAND FREE ENERGY PREDICTED BY IDOCK:   -0.66 KCAL/MOL
REMARK 927      BINDING AFFINITY PREDICTED BY RF-SCORE:    0.00 PKD
ROOT
HETATM    1  O   UNL     1     -10.013  11.525  66.121  1.00  0.00    -0.210 OA 
HETATM    2  H   UNL     1      -9.477  10.745  66.040  1.00  0.00     0.000 HD 
HETATM    3  C   UNL     1      -9.226  12.685  66.401  1.00  0.00    -0.160 C  
ENDROOT
BRANCH   3   4
HETATM    4  C   UNL     1     -10.088  13.940  66.530  1.00  0.00    -0.286 C  
HETATM    5  N   UNL     1     -11.369  13.619  67.279  1.00  0.00    -0.309 N  
HETATM    6  O   UNL     1     -12.396  14.241  66.965  1.00  0.00    -0.386 OA 
HETATM    7 BR   UNL     1      -9.163  15.247  67.683  1.00  0.00    -0.191 Br 
HETATM    8  O   UNL     1     -11.310  12.793  68.202  1.00  0.00    -0.249 OA 
BRANCH   4   9
HETATM    9  C   UNL     1     -10.414  14.604  65.191  1.00  0.00    -0.416 C  
HETATM   10  O   UNL     1     -11.230  13.765  64.357  1.00  0.00    -0.412 OA 
HETATM   11  H   UNL     1     -11.433  14.176  63.526  1.00  0.00     0.000 HD 
ENDBRANCH   4   9
ENDBRANCH   3   4
TORSDOF 2
ENDMDL
MODEL      103
REMARK 921   NORMALIZED FREE ENERGY PREDICTED BY IDOCK:   -2.35 KCAL/MOL
REMARK 922        TOTAL FREE ENERGY PREDICTED BY IDOCK:   -3.26 KCAL/MOL
REMARK 923 INTER-LIGAND FREE ENERGY PREDICTED BY IDOCK:   -3.03 KCAL/MOL
REMARK 924 INTRA-LIGAND FREE ENERGY PREDICTED BY IDOCK:   -0.23 KCAL/MOL
REMARK 927      BINDING AFFINITY PREDICTED BY RF-SCORE:    0.00 PKD
ROOT
HETATM    1  O   UNL     1      -9.917  14.089  69.232  1.00  0.00    -0.428 OA 
HETATM    2  H   UNL     1      -9.206  13.699  69.727  1.00  0.00     0.000 HD 
HETATM    3  C   UNL     1      -9.440  14.830  68.107  1.00  0.00    -0.208 C  
ENDROOT
BRANCH   3   4
HETATM    4  C   UNL     1     -10.585  15.456  67.311  1.00  0.00    -0.294 C  
HETATM    5  N   UNL     1     -10.034  16.223  66.122  1.00  0.00    -0.313 N  
HETATM    6  O   UNL     1     -10.644  17.240  65.756  1.00  0.00    -0.438 OA 
HETATM    7 BR   UNL     1     -11.673  14.022  66.503  1.00  0.00    -0.436 Br 
HETATM    8  O   UNL     1      -9.037  15.764  65.545  1.00  0.00    -0.235 OA 
BRANCH   4   9
HETATM    9  C   UNL     1     -11.495  16.359  68.145  1.00  0.00    -0.108 C  
HETATM   10  O   UNL     1     -12.272  15.611  69.095  1.00  0.00    -0.574 OA 
HETATM   11  H   UNL     1     -12.837  16.171  69.613  1.00  0.00     0.000 HD 
ENDBRANCH   4   9
ENDBRANCH   3   4
TORSDOF 2
ENDMDL
MODEL      104
REMARK 921   NORMALIZED FREE ENERGY PREDICTED BY IDOCK:   -2.34 KCAL/MOL
REMARK 922        TOTAL FREE ENERGY PREDICTED BY IDOCK:   -3.25 KCAL/MOL
REMARK 923 INTER-LIGAND FREE ENERGY PREDICTED BY IDOCK:   -2.55 KCAL/MOL
REMARK 924 INTRA-LIGAND FREE ENERGY PREDICTED BY IDOCK:   -0.70 KCAL/MOL
REMARK 927      BINDING AFFINITY PREDICTED BY RF-SCORE:    0.00 PKD
ROOT
HETATM    1  O   UNL     1      -9.101  16.313  68.759  1.00  0.00    -0.222 OA 
HETATM    2  H   UNL     1      -8.658  17.143  68.888  1.00  0.00     0.000 HD 
HETATM    3  C   UNL     1      -9.217  15.981  67.374  1.00  0.00    -0.208 C  
ENDROOT
BRANCH   3   4
HETATM    4  C   UNL     1      -9.930  14.645  67.166  1.00  0.00    -0.240 C  
HETATM    5  N   UNL     1     -11.198  14.595  68.000  1.00  0.00    -0.280 N  
HETATM    6  O   UNL     1     -11.550  13.496  68.454  1.00  0.00    -0.297 OA 
HETATM    7 BR   UNL     1     -10.567  14.532  65.302  1.00  0.00    -0.432 Br 
HETATM    8  O   UNL     1     -11.845  15.644  68.136  1.00  0.00    -0.286 OA 
BRANCH   4   9
HETATM    9  C   UNL     1      -9.055  13.426  67.466  1.00  0.00    -0.215 C  
HETATM   10  O   UNL     1      -8.693  13.351  68.855  1.00  0.00    -0.370 OA 
HETATM   11  H   UNL     1      -8.150  12.595  69.041  1.00  0.00     0.000 HD 
ENDBRANCH   4   9
ENDBRANCH   3   4
TORSDOF 2
ENDMDL
MODEL      105
REMARK 921   NORMALIZED FREE ENERGY PREDICTED BY IDOCK:   -2.34 KCAL/MOL
REMARK 922        TOTAL FREE ENERGY PREDICTED BY IDOCK:   -3.25 KCAL/MOL
REMARK 923 INTER-LIGAND FREE ENERGY PREDICTED BY IDOCK:   -3.10 KCAL/MOL
REMARK 924 INTRA-LIGAND FREE ENERGY PREDICTED BY IDOCK:   -0.15 KCAL/MOL
REMARK 927      BINDING AFFINITY PREDICTED BY RF-SCORE:    0.00 PKD
ROOT
HETATM    1  O   UNL     1      -9.224  14.371  69.208  1.00  0.00    -0.397 OA 
HETATM    2  H   UNL     1      -8.478  14.039  69.694  1.00  0.00     0.000 HD 
HETATM    3  C   UNL     1      -8.951  15.644  68.620  1.00  0.00    -0.202 C  
ENDROOT
BRANCH   3   4
HETATM    4  C   UNL     1     -10.151  16.178  67.836  1.00  0.00    -0.244 C  
HETATM    5  N   UNL     1      -9.986  17.666  67.581  1.00  0.00    -0.310 N  
HETATM    6  O   UNL     1     -11.011  18.365  67.551  1.00  0.00    -0.354 OA 
HETATM    7 BR   UNL     1     -10.160  15.373  66.035  1.00  0.00    -0.378 Br 
HETATM    8  O   UNL     1      -8.844  18.095  67.362  1.00  0.00    -0.252 OA 
BRANCH   4   9
HETATM    9  C   UNL     1     -11.497  15.905  68.509  1.00  0.00    -0.377 C  
HETATM   10  O   UNL     1     -12.200  14.817  67.884  1.00  0.00    -0.583 OA 
HETATM   11  H   UNL     1     -13.036  14.647  68.301  1.00  0.00     0.000 HD 
ENDBRANCH   4   9
ENDBRANCH   3   4
TORSDOF 2
ENDMDL
MODEL      106
REMARK 921   NORMALIZED FREE ENERGY PREDICTED BY IDOCK:   -2.34 KCAL/MOL
REMARK 922        TOTAL FREE ENERGY PREDICTED BY IDOCK:   -3.25 KCAL/MOL
REMARK 923 INTER-LIGAND FREE ENERGY PREDICTED BY IDOCK:   -2.81 KCAL/MOL
REMARK 924 INTRA-LIGAND FREE ENERGY PREDICTED BY IDOCK:   -0.43 KCAL/MOL
REMARK 927      BINDING AFFINITY PREDICTED BY RF-SCORE:    0.00 PKD
ROOT
HETATM    1  O   UNL     1     -11.304   7.702  73.451  1.00  0.00    -0.622 OA 
HETATM    2  H   UNL     1     -11.323   7.485  74.375  1.00  0.00     0.000 HD 
HETATM    3  C   UNL     1     -10.478   6.802  72.710  1.00  0.00    -0.220 C  
ENDROOT
BRANCH   3   4
HETATM    4  C   UNL     1     -10.447   7.150  71.222  1.00  0.00    -0.205 C  
HETATM    5  N   UNL     1     -11.782   6.818  70.581  1.00  0.00    -0.370 N  
HETATM    6  O   UNL     1     -11.779   6.438  69.400  1.00  0.00    -0.327 OA 
HETATM    7 BR   UNL     1     -10.280   9.105  71.017  1.00  0.00    -0.390 Br 
HETATM    8  O   UNL     1     -12.809   6.996  71.253  1.00  0.00    -0.377 OA 
BRANCH   4   9
HETATM    9  C   UNL     1      -9.311   6.472  70.454  1.00  0.00    -0.162 C  
HETATM   10  O   UNL     1      -8.942   7.208  69.276  1.00  0.00    -0.139 OA 
HETATM   11  H   UNL     1      -8.237   6.788  68.799  1.00  0.00     0.000 HD 
ENDBRANCH   4   9
ENDBRANCH   3   4
TORSDOF 2
ENDMDL
MODEL      107
REMARK 921   NORMALIZED FREE ENERGY PREDICTED BY IDOCK:   -2.34 KCAL/MOL
REMARK 922        TOTAL FREE ENERGY PREDICTED BY IDOCK:   -3.24 KCAL/MOL
REMARK 923 INTER-LIGAND FREE ENERGY PREDICTED BY IDOCK:   -2.89 KCAL/MOL
REMARK 924 INTRA-LIGAND FREE ENERGY PREDICTED BY IDOCK:   -0.35 KCAL/MOL
REMARK 927      BINDING AFFINITY PREDICTED BY RF-SCORE:    0.00 PKD
ROOT
HETATM    1  O   UNL     1      -9.053  16.412  69.198  1.00  0.00    -0.250 OA 
HETATM    2  H   UNL     1      -8.553  15.973  69.876  1.00  0.00     0.000 HD 
HETATM    3  C   UNL     1      -8.263  17.367  68.488  1.00  0.00    -0.268 C  
ENDROOT
BRANCH   3   4
HETATM    4  C   UNL     1      -9.068  18.073  67.397  1.00  0.00    -0.250 C  
HETATM    5  N   UNL     1     -10.069  19.028  68.023  1.00  0.00    -0.364 N  
HETATM    6  O   UNL     1     -11.151  19.196  67.440  1.00  0.00    -0.426 OA 
HETATM    7 BR   UNL     1      -7.865  19.241  66.357  1.00  0.00    -0.320 Br 
HETATM    8  O   UNL     1      -9.731  19.631  69.052  1.00  0.00    -0.406 OA 
BRANCH   4   9
HETATM    9  C   UNL     1      -9.780  17.117  66.439  1.00  0.00    -0.292 C  
HETATM   10  O   UNL     1      -9.001  15.938  66.176  1.00  0.00    -0.317 OA 
HETATM   11  H   UNL     1      -9.442  15.344  65.582  1.00  0.00     0.000 HD 
ENDBRANCH   4   9
ENDBRANCH   3   4
TORSDOF 2
ENDMDL
MODEL      108
REMARK 921   NORMALIZED FREE ENERGY PREDICTED BY IDOCK:   -2.33 KCAL/MOL
REMARK 922        TOTAL FREE ENERGY PREDICTED BY IDOCK:   -3.24 KCAL/MOL
REMARK 923 INTER-LIGAND FREE ENERGY PREDICTED BY IDOCK:   -2.77 KCAL/MOL
REMARK 924 INTRA-LIGAND FREE ENERGY PREDICTED BY IDOCK:   -0.46 KCAL/MOL
REMARK 927      BINDING AFFINITY PREDICTED BY RF-SCORE:    0.00 PKD
ROOT
HETATM    1  O   UNL     1     -13.249   7.308  70.856  1.00  0.00    -0.598 OA 
HETATM    2  H   UNL     1     -14.060   7.779  71.009  1.00  0.00     0.000 HD 
HETATM    3  C   UNL     1     -12.110   8.064  71.270  1.00  0.00    -0.291 C  
ENDROOT
BRANCH   3   4
HETATM    4  C   UNL     1     -10.804   7.307  71.026  1.00  0.00    -0.239 C  
HETATM    5  N   UNL     1     -10.598   6.262  72.108  1.00  0.00    -0.217 N  
HETATM    6  O   UNL     1      -9.433   6.010  72.455  1.00  0.00    -0.148 OA 
HETATM    7 BR   UNL     1     -10.964   6.259  69.361  1.00  0.00    -0.472 Br 
HETATM    8  O   UNL     1     -11.598   5.676  72.548  1.00  0.00    -0.300 OA 
BRANCH   4   9
HETATM    9  C   UNL     1      -9.576   8.212  70.927  1.00  0.00    -0.162 C  
HETATM   10  O   UNL     1      -9.317   8.906  72.158  1.00  0.00    -0.348 OA 
HETATM   11  H   UNL     1      -8.554   9.468  72.097  1.00  0.00     0.000 HD 
ENDBRANCH   4   9
ENDBRANCH   3   4
TORSDOF 2
ENDMDL
MODEL      109
REMARK 921   NORMALIZED FREE ENERGY PREDICTED BY IDOCK:   -2.32 KCAL/MOL
REMARK 922        TOTAL FREE ENERGY PREDICTED BY IDOCK:   -3.22 KCAL/MOL
REMARK 923 INTER-LIGAND FREE ENERGY PREDICTED BY IDOCK:   -2.53 KCAL/MOL
REMARK 924 INTRA-LIGAND FREE ENERGY PREDICTED BY IDOCK:   -0.70 KCAL/MOL
REMARK 927      BINDING AFFINITY PREDICTED BY RF-SCORE:    0.00 PKD
ROOT
HETATM    1  O   UNL     1      -8.124  11.977  67.174  1.00  0.00    -0.165 OA 
HETATM    2  H   UNL     1      -7.195  12.094  67.013  1.00  0.00     0.000 HD 
HETATM    3  C   UNL     1      -8.459  10.604  67.383  1.00  0.00    -0.122 C  
ENDROOT
BRANCH   3   4
HETATM    4  C   UNL     1      -9.953  10.416  67.644  1.00  0.00    -0.174 C  
HETATM    5  N   UNL     1     -10.763  11.194  66.623  1.00  0.00    -0.268 N  
HETATM    6  O   UNL     1     -11.848  11.674  66.988  1.00  0.00    -0.591 OA 
HETATM    7 BR   UNL     1     -10.437   8.531  67.316  1.00  0.00    -0.327 Br 
HETATM    8  O   UNL     1     -10.326  11.263  65.465  1.00  0.00    -0.249 OA 
BRANCH   4   9
HETATM    9  C   UNL     1     -10.384  10.798  69.061  1.00  0.00    -0.215 C  
HETATM   10  O   UNL     1     -10.214  12.203  69.315  1.00  0.00    -0.414 OA 
HETATM   11  H   UNL     1     -10.482  12.441  70.195  1.00  0.00     0.000 HD 
ENDBRANCH   4   9
ENDBRANCH   3   4
TORSDOF 2
ENDMDL
MODEL      110
REMARK 921   NORMALIZED FREE ENERGY PREDICTED BY IDOCK:   -2.32 KCAL/MOL
REMARK 922        TOTAL FREE ENERGY PREDICTED BY IDOCK:   -3.22 KCAL/MOL
REMARK 923 INTER-LIGAND FREE ENERGY PREDICTED BY IDOCK:   -2.58 KCAL/MOL
REMARK 924 INTRA-LIGAND FREE ENERGY PREDICTED BY IDOCK:   -0.65 KCAL/MOL
REMARK 927      BINDING AFFINITY PREDICTED BY RF-SCORE:    0.00 PKD
ROOT
HETATM    1  O   UNL     1     -10.764  11.309  69.805  1.00  0.00    -0.449 OA 
HETATM    2  H   UNL     1     -10.924  10.599  70.415  1.00  0.00     0.000 HD 
HETATM    3  C   UNL     1     -10.934  10.895  68.448  1.00  0.00    -0.237 C  
ENDROOT
BRANCH   3   4
HETATM    4  C   UNL     1     -10.677  12.038  67.467  1.00  0.00    -0.226 C  
HETATM    5  N   UNL     1      -9.477  12.852  67.917  1.00  0.00    -0.201 N  
HETATM    6  O   UNL     1      -9.480  14.070  67.679  1.00  0.00    -0.200 OA 
HETATM    7 BR   UNL     1     -10.131  11.288  65.725  1.00  0.00    -0.309 Br 
HETATM    8  O   UNL     1      -8.533  12.249  68.450  1.00  0.00    -0.170 OA 
BRANCH   4   9
HETATM    9  C   UNL     1     -11.885  12.953  67.256  1.00  0.00    -0.356 C  
HETATM   10  O   UNL     1     -12.173  13.741  68.423  1.00  0.00    -0.431 OA 
HETATM   11  H   UNL     1     -12.923  14.309  68.293  1.00  0.00     0.000 HD 
ENDBRANCH   4   9
ENDBRANCH   3   4
TORSDOF 2
ENDMDL
MODEL      111
REMARK 921   NORMALIZED FREE ENERGY PREDICTED BY IDOCK:   -2.30 KCAL/MOL
REMARK 922        TOTAL FREE ENERGY PREDICTED BY IDOCK:   -3.20 KCAL/MOL
REMARK 923 INTER-LIGAND FREE ENERGY PREDICTED BY IDOCK:   -2.74 KCAL/MOL
REMARK 924 INTRA-LIGAND FREE ENERGY PREDICTED BY IDOCK:   -0.46 KCAL/MOL
REMARK 927      BINDING AFFINITY PREDICTED BY RF-SCORE:    0.00 PKD
ROOT
HETATM    1  O   UNL     1      -9.500  19.475  68.702  1.00  0.00    -0.375 OA 
HETATM    2  H   UNL     1     -10.432  19.630  68.602  1.00  0.00     0.000 HD 
HETATM    3  C   UNL     1      -8.782  19.761  67.500  1.00  0.00    -0.330 C  
ENDROOT
BRANCH   3   4
HETATM    4  C   UNL     1      -7.282  19.511  67.660  1.00  0.00    -0.239 C  
HETATM    5  N   UNL     1      -6.775  18.641  66.525  1.00  0.00    -0.193 N  
HETATM    6  O   UNL     1      -5.848  17.853  66.769  1.00  0.00    -0.135 OA 
HETATM    7 BR   UNL     1      -6.314  21.216  67.439  1.00  0.00    -0.431 Br 
HETATM    8  O   UNL     1      -7.274  18.802  65.401  1.00  0.00    -0.508 OA 
BRANCH   4   9
HETATM    9  C   UNL     1      -6.900  18.895  69.007  1.00  0.00    -0.306 C  
HETATM   10  O   UNL     1      -7.332  17.529  69.117  1.00  0.00    -0.224 OA 
HETATM   11  H   UNL     1      -7.095  17.146  69.953  1.00  0.00     0.000 HD 
ENDBRANCH   4   9
ENDBRANCH   3   4
TORSDOF 2
ENDMDL
MODEL      112
REMARK 921   NORMALIZED FREE ENERGY PREDICTED BY IDOCK:   -2.29 KCAL/MOL
REMARK 922        TOTAL FREE ENERGY PREDICTED BY IDOCK:   -3.19 KCAL/MOL
REMARK 923 INTER-LIGAND FREE ENERGY PREDICTED BY IDOCK:   -2.75 KCAL/MOL
REMARK 924 INTRA-LIGAND FREE ENERGY PREDICTED BY IDOCK:   -0.44 KCAL/MOL
REMARK 927      BINDING AFFINITY PREDICTED BY RF-SCORE:    0.00 PKD
ROOT
HETATM    1  O   UNL     1     -10.604  16.118  68.472  1.00  0.00    -0.256 OA 
HETATM    2  H   UNL     1     -10.602  17.055  68.315  1.00  0.00     0.000 HD 
HETATM    3  C   UNL     1     -10.859  15.380  67.275  1.00  0.00    -0.316 C  
ENDROOT
BRANCH   3   4
HETATM    4  C   UNL     1     -10.862  13.872  67.526  1.00  0.00    -0.266 C  
HETATM    5  N   UNL     1      -9.441  13.370  67.705  1.00  0.00    -0.203 N  
HETATM    6  O   UNL     1      -9.176  12.226  67.307  1.00  0.00    -0.174 OA 
HETATM    7 BR   UNL     1     -11.731  13.504  69.259  1.00  0.00    -0.402 Br 
HETATM    8  O   UNL     1      -8.633  14.108  68.289  1.00  0.00    -0.162 OA 
BRANCH   4   9
HETATM    9  C   UNL     1     -11.571  13.067  66.435  1.00  0.00    -0.363 C  
HETATM   10  O   UNL     1     -11.942  11.755  66.889  1.00  0.00    -0.605 OA 
HETATM   11  H   UNL     1     -12.382  11.254  66.213  1.00  0.00     0.000 HD 
ENDBRANCH   4   9
ENDBRANCH   3   4
TORSDOF 2
ENDMDL
MODEL      113
REMARK 921   NORMALIZED FREE ENERGY PREDICTED BY IDOCK:   -2.27 KCAL/MOL
REMARK 922        TOTAL FREE ENERGY PREDICTED BY IDOCK:   -3.17 KCAL/MOL
REMARK 923 INTER-LIGAND FREE ENERGY PREDICTED BY IDOCK:   -2.90 KCAL/MOL
REMARK 924 INTRA-LIGAND FREE ENERGY PREDICTED BY IDOCK:   -0.27 KCAL/MOL
REMARK 927      BINDING AFFINITY PREDICTED BY RF-SCORE:    0.00 PKD
ROOT
HETATM    1  O   UNL     1     -10.419  17.579  68.754  1.00  0.00    -0.355 OA 
HETATM    2  H   UNL     1     -10.710  18.378  69.178  1.00  0.00     0.000 HD 
HETATM    3  C   UNL     1     -10.632  17.619  67.342  1.00  0.00    -0.318 C  
ENDROOT
BRANCH   3   4
HETATM    4  C   UNL     1     -10.164  16.334  66.659  1.00  0.00    -0.284 C  
HETATM    5  N   UNL     1     -10.621  15.125  67.454  1.00  0.00    -0.266 N  
HETATM    6  O   UNL     1      -9.888  14.124  67.460  1.00  0.00    -0.229 OA 
HETATM    7 BR   UNL     1     -11.082  16.151  64.922  1.00  0.00    -0.223 Br 
HETATM    8  O   UNL     1     -11.728  15.180  68.011  1.00  0.00    -0.345 OA 
BRANCH   4   9
HETATM    9  C   UNL     1      -8.653  16.273  66.429  1.00  0.00    -0.326 C  
HETATM   10  O   UNL     1      -8.151  17.472  65.816  1.00  0.00    -0.551 OA 
HETATM   11  H   UNL     1      -7.214  17.435  65.674  1.00  0.00     0.000 HD 
ENDBRANCH   4   9
ENDBRANCH   3   4
TORSDOF 2
ENDMDL
MODEL      114
REMARK 921   NORMALIZED FREE ENERGY PREDICTED BY IDOCK:   -2.26 KCAL/MOL
REMARK 922        TOTAL FREE ENERGY PREDICTED BY IDOCK:   -3.16 KCAL/MOL
REMARK 923 INTER-LIGAND FREE ENERGY PREDICTED BY IDOCK:   -2.92 KCAL/MOL
REMARK 924 INTRA-LIGAND FREE ENERGY PREDICTED BY IDOCK:   -0.24 KCAL/MOL
REMARK 927      BINDING AFFINITY PREDICTED BY RF-SCORE:    0.00 PKD
ROOT
HETATM    1  O   UNL     1     -10.636   5.428  69.800  1.00  0.00    -0.309 OA 
HETATM    2  H   UNL     1     -10.705   5.052  68.931  1.00  0.00     0.000 HD 
HETATM    3  C   UNL     1     -11.551   6.510  69.986  1.00  0.00    -0.390 C  
ENDROOT
BRANCH   3   4
HETATM    4  C   UNL     1     -11.440   7.116  71.385  1.00  0.00    -0.272 C  
HETATM    5  N   UNL     1     -12.751   7.775  71.773  1.00  0.00    -0.324 N  
HETATM    6  O   UNL     1     -12.702   8.783  72.495  1.00  0.00    -0.396 OA 
HETATM    7 BR   UNL     1     -11.213   5.666  72.704  1.00  0.00    -0.352 Br 
HETATM    8  O   UNL     1     -13.804   7.239  71.396  1.00  0.00    -0.394 OA 
BRANCH   4   9
HETATM    9  C   UNL     1     -10.286   8.110  71.537  1.00  0.00    -0.209 C  
HETATM   10  O   UNL     1      -9.832   8.204  72.897  1.00  0.00    -0.270 OA 
HETATM   11  H   UNL     1      -9.116   8.820  72.992  1.00  0.00     0.000 HD 
ENDBRANCH   4   9
ENDBRANCH   3   4
TORSDOF 2
ENDMDL
MODEL      115
REMARK 921   NORMALIZED FREE ENERGY PREDICTED BY IDOCK:   -2.25 KCAL/MOL
REMARK 922        TOTAL FREE ENERGY PREDICTED BY IDOCK:   -3.15 KCAL/MOL
REMARK 923 INTER-LIGAND FREE ENERGY PREDICTED BY IDOCK:   -2.71 KCAL/MOL
REMARK 924 INTRA-LIGAND FREE ENERGY PREDICTED BY IDOCK:   -0.44 KCAL/MOL
REMARK 927      BINDING AFFINITY PREDICTED BY RF-SCORE:    0.00 PKD
ROOT
HETATM    1  O   UNL     1      -8.401   7.328  70.395  1.00  0.00    -0.127 OA 
HETATM    2  H   UNL     1      -7.464   7.193  70.480  1.00  0.00     0.000 HD 
HETATM    3  C   UNL     1      -8.967   7.884  71.583  1.00  0.00    -0.138 C  
ENDROOT
BRANCH   3   4
HETATM    4  C   UNL     1     -10.474   8.102  71.447  1.00  0.00    -0.212 C  
HETATM    5  N   UNL     1     -10.752   9.470  70.850  1.00  0.00    -0.310 N  
HETATM    6  O   UNL     1     -11.777  10.065  71.216  1.00  0.00    -0.361 OA 
HETATM    7 BR   UNL     1     -11.196   6.835  70.119  1.00  0.00    -0.402 Br 
HETATM    8  O   UNL     1      -9.969   9.897  69.988  1.00  0.00    -0.242 OA 
BRANCH   4   9
HETATM    9  C   UNL     1     -11.242   7.936  72.760  1.00  0.00    -0.405 C  
HETATM   10  O   UNL     1     -12.592   7.492  72.542  1.00  0.00    -0.513 OA 
HETATM   11  H   UNL     1     -13.069   7.389  73.357  1.00  0.00     0.000 HD 
ENDBRANCH   4   9
ENDBRANCH   3   4
TORSDOF 2
ENDMDL
MODEL      116
REMARK 921   NORMALIZED FREE ENERGY PREDICTED BY IDOCK:   -2.22 KCAL/MOL
REMARK 922        TOTAL FREE ENERGY PREDICTED BY IDOCK:   -3.11 KCAL/MOL
REMARK 923 INTER-LIGAND FREE ENERGY PREDICTED BY IDOCK:   -3.47 KCAL/MOL
REMARK 924 INTRA-LIGAND FREE ENERGY PREDICTED BY IDOCK:    0.36 KCAL/MOL
REMARK 927      BINDING AFFINITY PREDICTED BY RF-SCORE:    0.00 PKD
ROOT
HETATM    1  O   UNL     1     -12.637  12.851  66.005  1.00  0.00    -0.467 OA 
HETATM    2  H   UNL     1     -13.019  13.035  65.154  1.00  0.00     0.000 HD 
HETATM    3  C   UNL     1     -12.032  14.011  66.579  1.00  0.00    -0.444 C  
ENDROOT
BRANCH   3   4
HETATM    4  C   UNL     1     -11.418  13.716  67.947  1.00  0.00    -0.314 C  
HETATM    5  N   UNL     1     -11.830  12.331  68.415  1.00  0.00    -0.327 N  
HETATM    6  O   UNL     1     -11.983  12.153  69.633  1.00  0.00    -0.305 OA 
HETATM    7 BR   UNL     1      -9.457  13.606  67.768  1.00  0.00    -0.230 Br 
HETATM    8  O   UNL     1     -11.937  11.438  67.562  1.00  0.00    -0.626 OA 
BRANCH   4   9
HETATM    9  C   UNL     1     -11.761  14.756  69.015  1.00  0.00    -0.312 C  
HETATM   10  O   UNL     1     -10.905  14.651  70.164  1.00  0.00    -0.445 OA 
HETATM   11  H   UNL     1     -11.118  15.296  70.827  1.00  0.00     0.000 HD 
ENDBRANCH   4   9
ENDBRANCH   3   4
TORSDOF 2
ENDMDL
MODEL      117
REMARK 921   NORMALIZED FREE ENERGY PREDICTED BY IDOCK:   -2.22 KCAL/MOL
REMARK 922        TOTAL FREE ENERGY PREDICTED BY IDOCK:   -3.11 KCAL/MOL
REMARK 923 INTER-LIGAND FREE ENERGY PREDICTED BY IDOCK:   -2.84 KCAL/MOL
REMARK 924 INTRA-LIGAND FREE ENERGY PREDICTED BY IDOCK:   -0.26 KCAL/MOL
REMARK 927      BINDING AFFINITY PREDICTED BY RF-SCORE:    0.00 PKD
ROOT
HETATM    1  O   UNL     1     -11.671   6.501  68.969  1.00  0.00    -0.595 OA 
HETATM    2  H   UNL     1     -11.400   6.672  68.075  1.00  0.00     0.000 HD 
HETATM    3  C   UNL     1     -10.929   7.282  69.909  1.00  0.00    -0.243 C  
ENDROOT
BRANCH   3   4
HETATM    4  C   UNL     1     -11.366   7.008  71.348  1.00  0.00    -0.265 C  
HETATM    5  N   UNL     1     -10.888   8.124  72.259  1.00  0.00    -0.294 N  
HETATM    6  O   UNL     1     -10.583   7.830  73.425  1.00  0.00    -0.348 OA 
HETATM    7 BR   UNL     1     -13.333   7.098  71.457  1.00  0.00    -0.343 Br 
HETATM    8  O   UNL     1     -10.880   9.279  71.808  1.00  0.00    -0.368 OA 
BRANCH   4   9
HETATM    9  C   UNL     1     -10.901   5.653  71.886  1.00  0.00    -0.242 C  
HETATM   10  O   UNL     1      -9.468   5.538  71.890  1.00  0.00    -0.147 OA 
HETATM   11  H   UNL     1      -9.179   4.698  72.224  1.00  0.00     0.000 HD 
ENDBRANCH   4   9
ENDBRANCH   3   4
TORSDOF 2
ENDMDL
MODEL      118
REMARK 921   NORMALIZED FREE ENERGY PREDICTED BY IDOCK:   -2.21 KCAL/MOL
REMARK 922        TOTAL FREE ENERGY PREDICTED BY IDOCK:   -3.10 KCAL/MOL
REMARK 923 INTER-LIGAND FREE ENERGY PREDICTED BY IDOCK:   -2.86 KCAL/MOL
REMARK 924 INTRA-LIGAND FREE ENERGY PREDICTED BY IDOCK:   -0.24 KCAL/MOL
REMARK 927      BINDING AFFINITY PREDICTED BY RF-SCORE:    0.00 PKD
ROOT
HETATM    1  O   UNL     1     -10.207  20.051  68.211  1.00  0.00    -0.433 OA 
HETATM    2  H   UNL     1     -11.107  19.982  68.508  1.00  0.00     0.000 HD 
HETATM    3  C   UNL     1      -9.436  18.907  68.582  1.00  0.00    -0.378 C  
ENDROOT
BRANCH   3   4
HETATM    4  C   UNL     1      -7.987  19.016  68.106  1.00  0.00    -0.300 C  
HETATM    5  N   UNL     1      -7.127  17.983  68.810  1.00  0.00    -0.269 N  
HETATM    6  O   UNL     1      -5.947  18.281  69.053  1.00  0.00    -0.203 OA 
HETATM    7 BR   UNL     1      -7.892  18.513  66.200  1.00  0.00    -0.188 Br 
HETATM    8  O   UNL     1      -7.631  16.877  69.057  1.00  0.00    -0.240 OA 
BRANCH   4   9
HETATM    9  C   UNL     1      -7.385  20.411  68.281  1.00  0.00    -0.118 C  
HETATM   10  O   UNL     1      -7.615  21.246  67.133  1.00  0.00    -0.734 OA 
HETATM   11  H   UNL     1      -7.242  22.112  67.241  1.00  0.00     0.000 HD 
ENDBRANCH   4   9
ENDBRANCH   3   4
TORSDOF 2
ENDMDL
MODEL      119
REMARK 921   NORMALIZED FREE ENERGY PREDICTED BY IDOCK:   -2.20 KCAL/MOL
REMARK 922        TOTAL FREE ENERGY PREDICTED BY IDOCK:   -3.10 KCAL/MOL
REMARK 923 INTER-LIGAND FREE ENERGY PREDICTED BY IDOCK:   -2.60 KCAL/MOL
REMARK 924 INTRA-LIGAND FREE ENERGY PREDICTED BY IDOCK:   -0.50 KCAL/MOL
REMARK 927      BINDING AFFINITY PREDICTED BY RF-SCORE:    0.00 PKD
ROOT
HETATM    1  O   UNL     1     -11.374   4.598  65.392  1.00  0.00    -0.960 OA 
HETATM    2  H   UNL     1     -11.873   3.804  65.240  1.00  0.00     0.000 HD 
HETATM    3  C   UNL     1     -10.258   4.368  66.254  1.00  0.00    -0.181 C  
ENDROOT
BRANCH   3   4
HETATM    4  C   UNL     1      -9.454   5.644  66.498  1.00  0.00    -0.152 C  
HETATM    5  N   UNL     1     -10.385   6.785  66.867  1.00  0.00    -0.245 N  
HETATM    6  O   UNL     1     -10.071   7.930  66.504  1.00  0.00    -0.246 OA 
HETATM    7 BR   UNL     1      -8.322   5.403  68.095  1.00  0.00    -0.097 Br 
HETATM    8  O   UNL     1     -11.381   6.522  67.557  1.00  0.00    -0.284 OA 
BRANCH   4   9
HETATM    9  C   UNL     1      -8.567   6.049  65.318  1.00  0.00    -0.099 C  
HETATM   10  O   UNL     1      -9.097   5.591  64.063  1.00  0.00    -0.336 OA 
HETATM   11  H   UNL     1      -8.548   5.842  63.331  1.00  0.00     0.000 HD 
ENDBRANCH   4   9
ENDBRANCH   3   4
TORSDOF 2
ENDMDL
MODEL      120
REMARK 921   NORMALIZED FREE ENERGY PREDICTED BY IDOCK:   -2.19 KCAL/MOL
REMARK 922        TOTAL FREE ENERGY PREDICTED BY IDOCK:   -3.08 KCAL/MOL
REMARK 923 INTER-LIGAND FREE ENERGY PREDICTED BY IDOCK:   -2.64 KCAL/MOL
REMARK 924 INTRA-LIGAND FREE ENERGY PREDICTED BY IDOCK:   -0.44 KCAL/MOL
REMARK 927      BINDING AFFINITY PREDICTED BY RF-SCORE:    0.00 PKD
ROOT
HETATM    1  O   UNL     1      -9.806  12.869  68.118  1.00  0.00    -0.217 OA 
HETATM    2  H   UNL     1      -9.979  11.986  67.814  1.00  0.00     0.000 HD 
HETATM    3  C   UNL     1     -10.093  13.844  67.114  1.00  0.00    -0.252 C  
ENDROOT
BRANCH   3   4
HETATM    4  C   UNL     1      -9.814  15.265  67.603  1.00  0.00    -0.217 C  
HETATM    5  N   UNL     1     -11.069  15.861  68.214  1.00  0.00    -0.330 N  
HETATM    6  O   UNL     1     -11.250  17.083  68.092  1.00  0.00    -0.272 OA 
HETATM    7 BR   UNL     1      -8.529  15.196  69.098  1.00  0.00    -0.207 Br 
HETATM    8  O   UNL     1     -11.820  15.108  68.852  1.00  0.00    -0.326 OA 
BRANCH   4   9
HETATM    9  C   UNL     1      -9.265  16.194  66.519  1.00  0.00    -0.272 C  
HETATM   10  O   UNL     1     -10.181  16.343  65.421  1.00  0.00    -0.546 OA 
HETATM   11  H   UNL     1      -9.841  16.919  64.748  1.00  0.00     0.000 HD 
ENDBRANCH   4   9
ENDBRANCH   3   4
TORSDOF 2
ENDMDL
MODEL      121
REMARK 921   NORMALIZED FREE ENERGY PREDICTED BY IDOCK:   -2.17 KCAL/MOL
REMARK 922        TOTAL FREE ENERGY PREDICTED BY IDOCK:   -3.05 KCAL/MOL
REMARK 923 INTER-LIGAND FREE ENERGY PREDICTED BY IDOCK:   -2.68 KCAL/MOL
REMARK 924 INTRA-LIGAND FREE ENERGY PREDICTED BY IDOCK:   -0.37 KCAL/MOL
REMARK 927      BINDING AFFINITY PREDICTED BY RF-SCORE:    0.00 PKD
ROOT
HETATM    1  O   UNL     1     -13.131   7.004  70.520  1.00  0.00    -0.512 OA 
HETATM    2  H   UNL     1     -14.028   7.090  70.819  1.00  0.00     0.000 HD 
HETATM    3  C   UNL     1     -12.201   7.535  71.467  1.00  0.00    -0.331 C  
ENDROOT
BRANCH   3   4
HETATM    4  C   UNL     1     -10.757   7.397  70.987  1.00  0.00    -0.231 C  
HETATM    5  N   UNL     1      -9.835   8.229  71.860  1.00  0.00    -0.207 N  
HETATM    6  O   UNL     1      -8.838   8.740  71.328  1.00  0.00    -0.189 OA 
HETATM    7 BR   UNL     1     -10.153   5.540  71.271  1.00  0.00    -0.278 Br 
HETATM    8  O   UNL     1     -10.096   8.307  73.070  1.00  0.00    -0.271 OA 
BRANCH   4   9
HETATM    9  C   UNL     1     -10.559   7.763  69.515  1.00  0.00    -0.221 C  
HETATM   10  O   UNL     1     -11.235   8.983  69.167  1.00  0.00    -0.441 OA 
HETATM   11  H   UNL     1     -11.113   9.211  68.254  1.00  0.00     0.000 HD 
ENDBRANCH   4   9
ENDBRANCH   3   4
TORSDOF 2
ENDMDL
MODEL      122
REMARK 921   NORMALIZED FREE ENERGY PREDICTED BY IDOCK:   -2.14 KCAL/MOL
REMARK 922        TOTAL FREE ENERGY PREDICTED BY IDOCK:   -3.03 KCAL/MOL
REMARK 923 INTER-LIGAND FREE ENERGY PREDICTED BY IDOCK:   -2.62 KCAL/MOL
REMARK 924 INTRA-LIGAND FREE ENERGY PREDICTED BY IDOCK:   -0.41 KCAL/MOL
REMARK 927      BINDING AFFINITY PREDICTED BY RF-SCORE:    0.00 PKD
ROOT
HETATM    1  O   UNL     1      -8.714  11.070  69.397  1.00  0.00    -0.379 OA 
HETATM    2  H   UNL     1      -7.876  11.448  69.636  1.00  0.00     0.000 HD 
HETATM    3  C   UNL     1      -8.695   9.643  69.472  1.00  0.00    -0.185 C  
ENDROOT
BRANCH   3   4
HETATM    4  C   UNL     1     -10.044   9.035  69.088  1.00  0.00    -0.195 C  
HETATM    5  N   UNL     1     -10.876   8.784  70.333  1.00  0.00    -0.224 N  
HETATM    6  O   UNL     1     -11.640   7.806  70.332  1.00  0.00    -0.220 OA 
HETATM    7 BR   UNL     1     -11.087  10.362  68.065  1.00  0.00    -0.340 Br 
HETATM    8  O   UNL     1     -10.790   9.598  71.264  1.00  0.00    -0.350 OA 
BRANCH   4   9
HETATM    9  C   UNL     1      -9.930   7.752  68.263  1.00  0.00    -0.178 C  
HETATM   10  O   UNL     1     -11.062   7.565  67.398  1.00  0.00    -0.547 OA 
HETATM   11  H   UNL     1     -10.992   6.768  66.886  1.00  0.00     0.000 HD 
ENDBRANCH   4   9
ENDBRANCH   3   4
TORSDOF 2
ENDMDL
MODEL      123
REMARK 921   NORMALIZED FREE ENERGY PREDICTED BY IDOCK:   -2.14 KCAL/MOL
REMARK 922        TOTAL FREE ENERGY PREDICTED BY IDOCK:   -3.02 KCAL/MOL
REMARK 923 INTER-LIGAND FREE ENERGY PREDICTED BY IDOCK:   -2.59 KCAL/MOL
REMARK 924 INTRA-LIGAND FREE ENERGY PREDICTED BY IDOCK:   -0.43 KCAL/MOL
REMARK 927      BINDING AFFINITY PREDICTED BY RF-SCORE:    0.00 PKD
ROOT
HETATM    1  O   UNL     1     -11.157   5.456  66.146  1.00  0.00    -0.748 OA 
HETATM    2  H   UNL     1     -11.592   4.691  65.787  1.00  0.00     0.000 HD 
HETATM    3  C   UNL     1     -10.402   5.139  67.317  1.00  0.00    -0.168 C  
ENDROOT
BRANCH   3   4
HETATM    4  C   UNL     1      -9.702   6.369  67.894  1.00  0.00    -0.121 C  
HETATM    5  N   UNL     1     -10.596   7.044  68.919  1.00  0.00    -0.213 N  
HETATM    6  O   UNL     1     -10.529   8.278  69.022  1.00  0.00    -0.219 OA 
HETATM    7 BR   UNL     1      -8.124   5.792  68.929  1.00  0.00    -0.102 Br 
HETATM    8  O   UNL     1     -11.305   6.323  69.636  1.00  0.00    -0.405 OA 
BRANCH   4   9
HETATM    9  C   UNL     1      -9.258   7.380  66.835  1.00  0.00    -0.152 C  
HETATM   10  O   UNL     1     -10.359   8.161  66.342  1.00  0.00    -0.458 OA 
HETATM   11  H   UNL     1     -10.084   8.789  65.684  1.00  0.00     0.000 HD 
ENDBRANCH   4   9
ENDBRANCH   3   4
TORSDOF 2
ENDMDL
MODEL      124
REMARK 921   NORMALIZED FREE ENERGY PREDICTED BY IDOCK:   -2.13 KCAL/MOL
REMARK 922        TOTAL FREE ENERGY PREDICTED BY IDOCK:   -3.01 KCAL/MOL
REMARK 923 INTER-LIGAND FREE ENERGY PREDICTED BY IDOCK:   -2.42 KCAL/MOL
REMARK 924 INTRA-LIGAND FREE ENERGY PREDICTED BY IDOCK:   -0.58 KCAL/MOL
REMARK 927      BINDING AFFINITY PREDICTED BY RF-SCORE:    0.00 PKD
ROOT
HETATM    1  O   UNL     1      -9.844   6.459  69.705  1.00  0.00    -0.162 OA 
HETATM    2  H   UNL     1      -9.818   6.079  68.835  1.00  0.00     0.000 HD 
HETATM    3  C   UNL     1     -10.682   7.615  69.756  1.00  0.00    -0.240 C  
ENDROOT
BRANCH   3   4
HETATM    4  C   UNL     1     -10.726   8.227  71.156  1.00  0.00    -0.226 C  
HETATM    5  N   UNL     1      -9.370   8.812  71.511  1.00  0.00    -0.246 N  
HETATM    6  O   UNL     1      -9.017   8.774  72.700  1.00  0.00    -0.380 OA 
HETATM    7 BR   UNL     1     -11.940   9.782  71.147  1.00  0.00    -0.494 Br 
HETATM    8  O   UNL     1      -8.713   9.347  70.606  1.00  0.00    -0.223 OA 
BRANCH   4   9
HETATM    9  C   UNL     1     -11.178   7.250  72.242  1.00  0.00    -0.267 C  
HETATM   10  O   UNL     1     -10.292   6.124  72.357  1.00  0.00    -0.187 OA 
HETATM   11  H   UNL     1     -10.573   5.517  73.031  1.00  0.00     0.000 HD 
ENDBRANCH   4   9
ENDBRANCH   3   4
TORSDOF 2
ENDMDL
MODEL      125
REMARK 921   NORMALIZED FREE ENERGY PREDICTED BY IDOCK:   -2.12 KCAL/MOL
REMARK 922        TOTAL FREE ENERGY PREDICTED BY IDOCK:   -3.00 KCAL/MOL
REMARK 923 INTER-LIGAND FREE ENERGY PREDICTED BY IDOCK:   -2.30 KCAL/MOL
REMARK 924 INTRA-LIGAND FREE ENERGY PREDICTED BY IDOCK:   -0.70 KCAL/MOL
REMARK 927      BINDING AFFINITY PREDICTED BY RF-SCORE:    0.00 PKD
ROOT
HETATM    1  O   UNL     1     -10.984   5.787  70.610  1.00  0.00    -0.288 OA 
HETATM    2  H   UNL     1     -10.994   5.513  69.701  1.00  0.00     0.000 HD 
HETATM    3  C   UNL     1     -10.023   6.818  70.845  1.00  0.00    -0.186 C  
ENDROOT
BRANCH   3   4
HETATM    4  C   UNL     1     -10.008   7.260  72.308  1.00  0.00    -0.169 C  
HETATM    5  N   UNL     1      -9.862   6.052  73.216  1.00  0.00    -0.160 N  
HETATM    6  O   UNL     1     -10.423   6.087  74.322  1.00  0.00    -0.280 OA 
HETATM    7 BR   UNL     1      -8.381   8.324  72.648  1.00  0.00    -0.217 Br 
HETATM    8  O   UNL     1      -9.145   5.117  72.828  1.00  0.00    -0.133 OA 
BRANCH   4   9
HETATM    9  C   UNL     1     -11.232   8.081  72.717  1.00  0.00    -0.382 C  
HETATM   10  O   UNL     1     -12.451   7.330  72.591  1.00  0.00    -0.488 OA 
HETATM   11  H   UNL     1     -13.211   7.840  72.845  1.00  0.00     0.000 HD 
ENDBRANCH   4   9
ENDBRANCH   3   4
TORSDOF 2
ENDMDL
MODEL      126
REMARK 921   NORMALIZED FREE ENERGY PREDICTED BY IDOCK:   -2.11 KCAL/MOL
REMARK 922        TOTAL FREE ENERGY PREDICTED BY IDOCK:   -2.99 KCAL/MOL
REMARK 923 INTER-LIGAND FREE ENERGY PREDICTED BY IDOCK:   -2.29 KCAL/MOL
REMARK 924 INTRA-LIGAND FREE ENERGY PREDICTED BY IDOCK:   -0.70 KCAL/MOL
REMARK 927      BINDING AFFINITY PREDICTED BY RF-SCORE:    0.00 PKD
ROOT
HETATM    1  O   UNL     1      -9.740  14.666  67.995  1.00  0.00    -0.208 OA 
HETATM    2  H   UNL     1      -9.990  15.402  68.542  1.00  0.00     0.000 HD 
HETATM    3  C   UNL     1     -10.630  13.559  68.152  1.00  0.00    -0.245 C  
ENDROOT
BRANCH   3   4
HETATM    4  C   UNL     1     -10.228  12.376  67.272  1.00  0.00    -0.215 C  
HETATM    5  N   UNL     1      -8.774  12.016  67.515  1.00  0.00    -0.159 N  
HETATM    6  O   UNL     1      -8.117  11.577  66.558  1.00  0.00    -0.164 OA 
HETATM    7 BR   UNL     1     -11.229  10.774  67.841  1.00  0.00    -0.372 Br 
HETATM    8  O   UNL     1      -8.333  12.126  68.669  1.00  0.00    -0.116 OA 
BRANCH   4   9
HETATM    9  C   UNL     1     -10.470  12.608  65.779  1.00  0.00    -0.277 C  
HETATM   10  O   UNL     1      -9.644  13.661  65.256  1.00  0.00    -0.534 OA 
HETATM   11  H   UNL     1      -9.793  13.805  64.330  1.00  0.00     0.000 HD 
ENDBRANCH   4   9
ENDBRANCH   3   4
TORSDOF 2
ENDMDL
MODEL      127
REMARK 921   NORMALIZED FREE ENERGY PREDICTED BY IDOCK:   -2.08 KCAL/MOL
REMARK 922        TOTAL FREE ENERGY PREDICTED BY IDOCK:   -2.96 KCAL/MOL
REMARK 923 INTER-LIGAND FREE ENERGY PREDICTED BY IDOCK:   -2.75 KCAL/MOL
REMARK 924 INTRA-LIGAND FREE ENERGY PREDICTED BY IDOCK:   -0.21 KCAL/MOL
REMARK 927      BINDING AFFINITY PREDICTED BY RF-SCORE:    0.00 PKD
ROOT
HETATM    1  O   UNL     1     -12.864  13.732  66.223  1.00  0.00    -0.353 OA 
HETATM    2  H   UNL     1     -13.273  12.947  65.880  1.00  0.00     0.000 HD 
HETATM    3  C   UNL     1     -11.714  13.430  67.015  1.00  0.00    -0.381 C  
ENDROOT
BRANCH   3   4
HETATM    4  C   UNL     1     -11.055  14.694  67.567  1.00  0.00    -0.313 C  
HETATM    5  N   UNL     1      -9.685  14.363  68.132  1.00  0.00    -0.217 N  
HETATM    6  O   UNL     1      -9.289  15.015  69.111  1.00  0.00    -0.205 OA 
HETATM    7 BR   UNL     1     -10.681  15.934  66.078  1.00  0.00    -0.252 Br 
HETATM    8  O   UNL     1      -9.011  13.498  67.554  1.00  0.00    -0.189 OA 
BRANCH   4   9
HETATM    9  C   UNL     1     -11.896  15.420  68.618  1.00  0.00    -0.296 C  
HETATM   10  O   UNL     1     -12.766  14.521  69.327  1.00  0.00    -0.545 OA 
HETATM   11  H   UNL     1     -13.288  14.971  69.979  1.00  0.00     0.000 HD 
ENDBRANCH   4   9
ENDBRANCH   3   4
TORSDOF 2
ENDMDL
MODEL      128
REMARK 921   NORMALIZED FREE ENERGY PREDICTED BY IDOCK:   -2.06 KCAL/MOL
REMARK 922        TOTAL FREE ENERGY PREDICTED BY IDOCK:   -2.94 KCAL/MOL
REMARK 923 INTER-LIGAND FREE ENERGY PREDICTED BY IDOCK:   -2.27 KCAL/MOL
REMARK 924 INTRA-LIGAND FREE ENERGY PREDICTED BY IDOCK:   -0.67 KCAL/MOL
REMARK 927      BINDING AFFINITY PREDICTED BY RF-SCORE:    0.00 PKD
ROOT
HETATM    1  O   UNL     1      -8.521  13.244  68.904  1.00  0.00    -0.360 OA 
HETATM    2  H   UNL     1      -7.715  12.926  69.293  1.00  0.00     0.000 HD 
HETATM    3  C   UNL     1      -8.515  14.664  68.750  1.00  0.00    -0.161 C  
ENDROOT
BRANCH   3   4
HETATM    4  C   UNL     1      -9.812  15.175  68.123  1.00  0.00    -0.218 C  
HETATM    5  N   UNL     1     -10.996  14.797  68.994  1.00  0.00    -0.239 N  
HETATM    6  O   UNL     1     -12.074  14.551  68.431  1.00  0.00    -0.302 OA 
HETATM    7 BR   UNL     1      -9.806  17.148  68.138  1.00  0.00    -0.296 Br 
HETATM    8  O   UNL     1     -10.840  14.808  70.224  1.00  0.00    -0.161 OA 
BRANCH   4   9
HETATM    9  C   UNL     1     -10.036  14.691  66.689  1.00  0.00    -0.273 C  
HETATM   10  O   UNL     1     -10.204  13.265  66.623  1.00  0.00    -0.256 OA 
HETATM   11  H   UNL     1     -10.344  12.963  65.733  1.00  0.00     0.000 HD 
ENDBRANCH   4   9
ENDBRANCH   3   4
TORSDOF 2
ENDMDL
MODEL      129
REMARK 921   NORMALIZED FREE ENERGY PREDICTED BY IDOCK:   -2.06 KCAL/MOL
REMARK 922        TOTAL FREE ENERGY PREDICTED BY IDOCK:   -2.94 KCAL/MOL
REMARK 923 INTER-LIGAND FREE ENERGY PREDICTED BY IDOCK:   -2.48 KCAL/MOL
REMARK 924 INTRA-LIGAND FREE ENERGY PREDICTED BY IDOCK:   -0.46 KCAL/MOL
REMARK 927      BINDING AFFINITY PREDICTED BY RF-SCORE:    0.00 PKD
ROOT
HETATM    1  O   UNL     1      -8.275   7.210  70.156  1.00  0.00    -0.130 OA 
HETATM    2  H   UNL     1      -7.363   7.106  70.398  1.00  0.00     0.000 HD 
HETATM    3  C   UNL     1      -9.089   7.553  71.280  1.00  0.00    -0.141 C  
ENDROOT
BRANCH   3   4
HETATM    4  C   UNL     1     -10.557   7.722  70.890  1.00  0.00    -0.213 C  
HETATM    5  N   UNL     1     -11.453   7.321  72.048  1.00  0.00    -0.261 N  
HETATM    6  O   UNL     1     -12.549   6.804  71.780  1.00  0.00    -0.357 OA 
HETATM    7 BR   UNL     1     -10.940   9.638  70.618  1.00  0.00    -0.414 Br 
HETATM    8  O   UNL     1     -11.069   7.582  73.198  1.00  0.00    -0.383 OA 
BRANCH   4   9
HETATM    9  C   UNL     1     -10.952   6.953  69.628  1.00  0.00    -0.259 C  
HETATM   10  O   UNL     1     -10.779   5.535  69.784  1.00  0.00    -0.322 OA 
HETATM   11  H   UNL     1     -11.024   5.058  69.001  1.00  0.00     0.000 HD 
ENDBRANCH   4   9
ENDBRANCH   3   4
TORSDOF 2
ENDMDL
MODEL      130
REMARK 921   NORMALIZED FREE ENERGY PREDICTED BY IDOCK:   -2.04 KCAL/MOL
REMARK 922        TOTAL FREE ENERGY PREDICTED BY IDOCK:   -2.92 KCAL/MOL
REMARK 923 INTER-LIGAND FREE ENERGY PREDICTED BY IDOCK:   -2.74 KCAL/MOL
REMARK 924 INTRA-LIGAND FREE ENERGY PREDICTED BY IDOCK:   -0.18 KCAL/MOL
REMARK 927      BINDING AFFINITY PREDICTED BY RF-SCORE:    0.00 PKD
ROOT
HETATM    1  O   UNL     1     -11.471   4.352  65.121  1.00  0.00    -1.069 OA 
HETATM    2  H   UNL     1     -11.836   4.008  64.314  1.00  0.00     0.000 HD 
HETATM    3  C   UNL     1     -10.043   4.392  65.085  1.00  0.00    -0.176 C  
ENDROOT
BRANCH   3   4
HETATM    4  C   UNL     1      -9.456   4.946  66.383  1.00  0.00    -0.155 C  
HETATM    5  N   UNL     1      -8.282   5.858  66.077  1.00  0.00    -0.118 N  
HETATM    6  O   UNL     1      -7.347   5.892  66.892  1.00  0.00    -0.077 OA 
HETATM    7 BR   UNL     1     -10.781   6.130  67.241  1.00  0.00    -0.446 Br 
HETATM    8  O   UNL     1      -8.343   6.562  65.058  1.00  0.00    -0.136 OA 
BRANCH   4   9
HETATM    9  C   UNL     1      -9.037   3.865  67.381  1.00  0.00    -0.156 C  
HETATM   10  O   UNL     1      -9.551   2.572  67.021  1.00  0.00    -0.403 OA 
HETATM   11  H   UNL     1      -9.291   1.901  67.640  1.00  0.00     0.000 HD 
ENDBRANCH   4   9
ENDBRANCH   3   4
TORSDOF 2
ENDMDL
MODEL      131
REMARK 921   NORMALIZED FREE ENERGY PREDICTED BY IDOCK:   -2.03 KCAL/MOL
REMARK 922        TOTAL FREE ENERGY PREDICTED BY IDOCK:   -2.90 KCAL/MOL
REMARK 923 INTER-LIGAND FREE ENERGY PREDICTED BY IDOCK:   -2.64 KCAL/MOL
REMARK 924 INTRA-LIGAND FREE ENERGY PREDICTED BY IDOCK:   -0.26 KCAL/MOL
REMARK 927      BINDING AFFINITY PREDICTED BY RF-SCORE:    0.00 PKD
ROOT
HETATM    1  O   UNL     1     -10.388   8.534  66.280  1.00  0.00    -0.405 OA 
HETATM    2  H   UNL     1     -10.498   7.925  65.559  1.00  0.00     0.000 HD 
HETATM    3  C   UNL     1     -10.147   9.865  65.821  1.00  0.00    -0.247 C  
ENDROOT
BRANCH   3   4
HETATM    4  C   UNL     1      -9.972  10.845  66.981  1.00  0.00    -0.192 C  
HETATM    5  N   UNL     1     -10.777  12.106  66.725  1.00  0.00    -0.227 N  
HETATM    6  O   UNL     1     -10.323  13.180  67.151  1.00  0.00    -0.245 OA 
HETATM    7 BR   UNL     1     -10.777  10.075  68.609  1.00  0.00    -0.262 Br 
HETATM    8  O   UNL     1     -11.871  11.991  66.153  1.00  0.00    -0.546 OA 
BRANCH   4   9
HETATM    9  C   UNL     1      -8.513  11.202  67.271  1.00  0.00    -0.137 C  
HETATM   10  O   UNL     1      -7.870  11.807  66.137  1.00  0.00    -0.375 OA 
HETATM   11  H   UNL     1      -6.965  12.029  66.316  1.00  0.00     0.000 HD 
ENDBRANCH   4   9
ENDBRANCH   3   4
TORSDOF 2
ENDMDL
MODEL      132
REMARK 921   NORMALIZED FREE ENERGY PREDICTED BY IDOCK:   -2.01 KCAL/MOL
REMARK 922        TOTAL FREE ENERGY PREDICTED BY IDOCK:   -2.88 KCAL/MOL
REMARK 923 INTER-LIGAND FREE ENERGY PREDICTED BY IDOCK:   -2.61 KCAL/MOL
REMARK 924 INTRA-LIGAND FREE ENERGY PREDICTED BY IDOCK:   -0.27 KCAL/MOL
REMARK 927      BINDING AFFINITY PREDICTED BY RF-SCORE:    0.00 PKD
ROOT
HETATM    1  O   UNL     1      -9.896  13.662  68.915  1.00  0.00    -0.407 OA 
HETATM    2  H   UNL     1      -9.958  13.337  69.805  1.00  0.00     0.000 HD 
HETATM    3  C   UNL     1      -9.881  15.090  68.869  1.00  0.00    -0.233 C  
ENDROOT
BRANCH   3   4
HETATM    4  C   UNL     1      -9.781  15.614  67.437  1.00  0.00    -0.222 C  
HETATM    5  N   UNL     1     -10.865  14.990  66.577  1.00  0.00    -0.316 N  
HETATM    6  O   UNL     1     -10.607  14.777  65.382  1.00  0.00    -0.325 OA 
HETATM    7 BR   UNL     1     -10.193  17.543  67.420  1.00  0.00    -0.348 Br 
HETATM    8  O   UNL     1     -11.970  14.779  67.098  1.00  0.00    -0.351 OA 
BRANCH   4   9
HETATM    9  C   UNL     1      -8.409  15.394  66.795  1.00  0.00    -0.250 C  
HETATM   10  O   UNL     1      -7.510  16.484  67.059  1.00  0.00    -0.160 OA 
HETATM   11  H   UNL     1      -6.659  16.349  66.661  1.00  0.00     0.000 HD 
ENDBRANCH   4   9
ENDBRANCH   3   4
TORSDOF 2
ENDMDL
MODEL      133
REMARK 921   NORMALIZED FREE ENERGY PREDICTED BY IDOCK:   -2.01 KCAL/MOL
REMARK 922        TOTAL FREE ENERGY PREDICTED BY IDOCK:   -2.87 KCAL/MOL
REMARK 923 INTER-LIGAND FREE ENERGY PREDICTED BY IDOCK:   -2.65 KCAL/MOL
REMARK 924 INTRA-LIGAND FREE ENERGY PREDICTED BY IDOCK:   -0.22 KCAL/MOL
REMARK 927      BINDING AFFINITY PREDICTED BY RF-SCORE:    0.00 PKD
ROOT
HETATM    1  O   UNL     1      -8.228  10.790  69.598  1.00  0.00    -0.380 OA 
HETATM    2  H   UNL     1      -7.378  10.982  69.975  1.00  0.00     0.000 HD 
HETATM    3  C   UNL     1      -8.856   9.679  70.240  1.00  0.00    -0.211 C  
ENDROOT
BRANCH   3   4
HETATM    4  C   UNL     1     -10.226   9.371  69.636  1.00  0.00    -0.212 C  
HETATM    5  N   UNL     1     -10.284   7.921  69.188  1.00  0.00    -0.212 N  
HETATM    6  O   UNL     1     -10.969   7.650  68.189  1.00  0.00    -0.036 OA 
HETATM    7 BR   UNL     1     -11.601   9.501  71.044  1.00  0.00    -0.451 Br 
HETATM    8  O   UNL     1      -9.689   7.077  69.874  1.00  0.00    -0.163 OA 
BRANCH   4   9
HETATM    9  C   UNL     1     -10.611  10.295  68.479  1.00  0.00    -0.213 C  
HETATM   10  O   UNL     1     -12.022  10.566  68.454  1.00  0.00    -0.773 OA 
HETATM   11  H   UNL     1     -12.262  11.140  67.736  1.00  0.00     0.000 HD 
ENDBRANCH   4   9
ENDBRANCH   3   4
TORSDOF 2
ENDMDL
MODEL      134
REMARK 921   NORMALIZED FREE ENERGY PREDICTED BY IDOCK:   -2.00 KCAL/MOL
REMARK 922        TOTAL FREE ENERGY PREDICTED BY IDOCK:   -2.87 KCAL/MOL
REMARK 923 INTER-LIGAND FREE ENERGY PREDICTED BY IDOCK:   -2.17 KCAL/MOL
REMARK 924 INTRA-LIGAND FREE ENERGY PREDICTED BY IDOCK:   -0.70 KCAL/MOL
REMARK 927      BINDING AFFINITY PREDICTED BY RF-SCORE:    0.00 PKD
ROOT
HETATM    1  O   UNL     1     -10.224   7.745  66.242  1.00  0.00    -0.475 OA 
HETATM    2  H   UNL     1     -10.405   7.168  65.508  1.00  0.00     0.000 HD 
HETATM    3  C   UNL     1      -9.447   8.878  65.849  1.00  0.00    -0.234 C  
ENDROOT
BRANCH   3   4
HETATM    4  C   UNL     1      -9.156   9.806  67.028  1.00  0.00    -0.138 C  
HETATM    5  N   UNL     1      -8.689   8.997  68.225  1.00  0.00    -0.130 N  
HETATM    6  O   UNL     1      -8.994   9.407  69.356  1.00  0.00    -0.141 OA 
HETATM    7 BR   UNL     1      -7.615  10.955  66.585  1.00  0.00    -0.143 Br 
HETATM    8  O   UNL     1      -7.981   8.001  68.013  1.00  0.00    -0.123 OA 
BRANCH   4   9
HETATM    9  C   UNL     1     -10.339  10.692  67.421  1.00  0.00    -0.219 C  
HETATM   10  O   UNL     1     -11.475   9.919  67.843  1.00  0.00    -0.569 OA 
HETATM   11  H   UNL     1     -12.210  10.469  68.087  1.00  0.00     0.000 HD 
ENDBRANCH   4   9
ENDBRANCH   3   4
TORSDOF 2
ENDMDL
MODEL      135
REMARK 921   NORMALIZED FREE ENERGY PREDICTED BY IDOCK:   -1.99 KCAL/MOL
REMARK 922        TOTAL FREE ENERGY PREDICTED BY IDOCK:   -2.86 KCAL/MOL
REMARK 923 INTER-LIGAND FREE ENERGY PREDICTED BY IDOCK:   -2.43 KCAL/MOL
REMARK 924 INTRA-LIGAND FREE ENERGY PREDICTED BY IDOCK:   -0.43 KCAL/MOL
REMARK 927      BINDING AFFINITY PREDICTED BY RF-SCORE:    0.00 PKD
ROOT
HETATM    1  O   UNL     1      -8.489   6.826  73.767  1.00  0.00    -0.121 OA 
HETATM    2  H   UNL     1      -7.545   6.782  73.868  1.00  0.00     0.000 HD 
HETATM    3  C   UNL     1      -8.930   6.150  72.588  1.00  0.00    -0.130 C  
ENDROOT
BRANCH   3   4
HETATM    4  C   UNL     1     -10.448   6.220  72.426  1.00  0.00    -0.196 C  
HETATM    5  N   UNL     1     -10.827   6.012  70.970  1.00  0.00    -0.270 N  
HETATM    6  O   UNL     1     -11.824   6.612  70.540  1.00  0.00    -0.390 OA 
HETATM    7 BR   UNL     1     -11.272   4.693  73.366  1.00  0.00    -0.390 Br 
HETATM    8  O   UNL     1     -10.154   5.212  70.303  1.00  0.00    -0.226 OA 
BRANCH   4   9
HETATM    9  C   UNL     1     -11.066   7.517  72.951  1.00  0.00    -0.375 C  
HETATM   10  O   UNL     1     -10.549   8.673  72.271  1.00  0.00    -0.334 OA 
HETATM   11  H   UNL     1     -10.932   9.479  72.596  1.00  0.00     0.000 HD 
ENDBRANCH   4   9
ENDBRANCH   3   4
TORSDOF 2
ENDMDL
MODEL      136
REMARK 921   NORMALIZED FREE ENERGY PREDICTED BY IDOCK:   -1.99 KCAL/MOL
REMARK 922        TOTAL FREE ENERGY PREDICTED BY IDOCK:   -2.85 KCAL/MOL
REMARK 923 INTER-LIGAND FREE ENERGY PREDICTED BY IDOCK:   -2.18 KCAL/MOL
REMARK 924 INTRA-LIGAND FREE ENERGY PREDICTED BY IDOCK:   -0.67 KCAL/MOL
REMARK 927      BINDING AFFINITY PREDICTED BY RF-SCORE:    0.00 PKD
ROOT
HETATM    1  O   UNL     1      -8.631   7.042  64.499  1.00  0.00    -0.347 OA 
HETATM    2  H   UNL     1      -8.287   6.157  64.508  1.00  0.00     0.000 HD 
HETATM    3  C   UNL     1      -7.672   7.991  64.968  1.00  0.00    -0.112 C  
ENDROOT
BRANCH   3   4
HETATM    4  C   UNL     1      -8.225   9.416  64.953  1.00  0.00    -0.142 C  
HETATM    5  N   UNL     1      -9.596   9.449  65.604  1.00  0.00    -0.275 N  
HETATM    6  O   UNL     1     -10.425  10.263  65.169  1.00  0.00    -0.222 OA 
HETATM    7 BR   UNL     1      -7.108  10.558  66.111  1.00  0.00    -0.139 Br 
HETATM    8  O   UNL     1      -9.798   8.700  66.572  1.00  0.00    -0.237 OA 
BRANCH   4   9
HETATM    9  C   UNL     1      -8.291  10.038  63.557  1.00  0.00    -0.171 C  
HETATM   10  O   UNL     1      -9.336   9.459  62.758  1.00  0.00    -0.538 OA 
HETATM   11  H   UNL     1      -9.377   9.845  61.891  1.00  0.00     0.000 HD 
ENDBRANCH   4   9
ENDBRANCH   3   4
TORSDOF 2
ENDMDL
MODEL      137
REMARK 921   NORMALIZED FREE ENERGY PREDICTED BY IDOCK:   -1.95 KCAL/MOL
REMARK 922        TOTAL FREE ENERGY PREDICTED BY IDOCK:   -2.81 KCAL/MOL
REMARK 923 INTER-LIGAND FREE ENERGY PREDICTED BY IDOCK:   -2.54 KCAL/MOL
REMARK 924 INTRA-LIGAND FREE ENERGY PREDICTED BY IDOCK:   -0.27 KCAL/MOL
REMARK 927      BINDING AFFINITY PREDICTED BY RF-SCORE:    0.00 PKD
ROOT
HETATM    1  O   UNL     1     -11.424   7.165  69.551  1.00  0.00    -0.497 OA 
HETATM    2  H   UNL     1     -11.667   6.505  68.912  1.00  0.00     0.000 HD 
HETATM    3  C   UNL     1     -10.346   7.982  69.089  1.00  0.00    -0.220 C  
ENDROOT
BRANCH   3   4
HETATM    4  C   UNL     1      -9.956   9.044  70.117  1.00  0.00    -0.189 C  
HETATM    5  N   UNL     1      -8.925   8.483  71.080  1.00  0.00    -0.169 N  
HETATM    6  O   UNL     1      -8.948   8.887  72.253  1.00  0.00    -0.388 OA 
HETATM    7 BR   UNL     1      -9.017  10.518  69.202  1.00  0.00    -0.141 Br 
HETATM    8  O   UNL     1      -8.080   7.694  70.632  1.00  0.00    -0.104 OA 
BRANCH   4   9
HETATM    9  C   UNL     1     -11.143   9.618  70.892  1.00  0.00    -0.352 C  
HETATM   10  O   UNL     1     -12.240   9.954  70.026  1.00  0.00    -0.475 OA 
HETATM   11  H   UNL     1     -12.977  10.310  70.507  1.00  0.00     0.000 HD 
ENDBRANCH   4   9
ENDBRANCH   3   4
TORSDOF 2
ENDMDL
MODEL      138
REMARK 921   NORMALIZED FREE ENERGY PREDICTED BY IDOCK:   -1.95 KCAL/MOL
REMARK 922        TOTAL FREE ENERGY PREDICTED BY IDOCK:   -2.81 KCAL/MOL
REMARK 923 INTER-LIGAND FREE ENERGY PREDICTED BY IDOCK:   -2.36 KCAL/MOL
REMARK 924 INTRA-LIGAND FREE ENERGY PREDICTED BY IDOCK:   -0.45 KCAL/MOL
REMARK 927      BINDING AFFINITY PREDICTED BY RF-SCORE:    0.00 PKD
ROOT
HETATM    1  O   UNL     1     -11.146   8.551  68.325  1.00  0.00    -0.442 OA 
HETATM    2  H   UNL     1     -11.110   9.011  67.495  1.00  0.00     0.000 HD 
HETATM    3  C   UNL     1      -9.862   8.477  68.949  1.00  0.00    -0.176 C  
ENDROOT
BRANCH   3   4
HETATM    4  C   UNL     1      -9.920   7.738  70.285  1.00  0.00    -0.189 C  
HETATM    5  N   UNL     1     -10.188   8.719  71.413  1.00  0.00    -0.252 N  
HETATM    6  O   UNL     1      -9.680   8.482  72.520  1.00  0.00    -0.288 OA 
HETATM    7 BR   UNL     1     -11.489   6.541  70.298  1.00  0.00    -0.463 Br 
HETATM    8  O   UNL     1     -10.944   9.675  71.184  1.00  0.00    -0.336 OA 
BRANCH   4   9
HETATM    9  C   UNL     1      -8.667   6.916  70.590  1.00  0.00    -0.149 C  
HETATM   10  O   UNL     1      -7.490   7.737  70.672  1.00  0.00    -0.068 OA 
HETATM   11  H   UNL     1      -6.712   7.228  70.861  1.00  0.00     0.000 HD 
ENDBRANCH   4   9
ENDBRANCH   3   4
TORSDOF 2
ENDMDL
MODEL      139
REMARK 921   NORMALIZED FREE ENERGY PREDICTED BY IDOCK:   -1.94 KCAL/MOL
REMARK 922        TOTAL FREE ENERGY PREDICTED BY IDOCK:   -2.80 KCAL/MOL
REMARK 923 INTER-LIGAND FREE ENERGY PREDICTED BY IDOCK:   -2.33 KCAL/MOL
REMARK 924 INTRA-LIGAND FREE ENERGY PREDICTED BY IDOCK:   -0.47 KCAL/MOL
REMARK 927      BINDING AFFINITY PREDICTED BY RF-SCORE:    0.00 PKD
ROOT
HETATM    1  O   UNL     1     -11.157   8.201  67.435  1.00  0.00    -0.470 OA 
HETATM    2  H   UNL     1     -11.032   7.539  66.765  1.00  0.00     0.000 HD 
HETATM    3  C   UNL     1     -10.390   9.377  67.170  1.00  0.00    -0.258 C  
ENDROOT
BRANCH   3   4
HETATM    4  C   UNL     1     -10.592  10.444  68.246  1.00  0.00    -0.212 C  
HETATM    5  N   UNL     1     -10.502   9.816  69.626  1.00  0.00    -0.225 N  
HETATM    6  O   UNL     1     -11.206  10.296  70.528  1.00  0.00    -0.300 OA 
HETATM    7 BR   UNL     1      -9.085  11.715  68.191  1.00  0.00    -0.187 Br 
HETATM    8  O   UNL     1      -9.691   8.893  69.792  1.00  0.00    -0.168 OA 
BRANCH   4   9
HETATM    9  C   UNL     1     -11.902  11.221  68.106  1.00  0.00    -0.205 C  
HETATM   10  O   UNL     1     -11.835  12.509  68.740  1.00  0.00    -0.306 OA 
HETATM   11  H   UNL     1     -12.648  12.992  68.653  1.00  0.00     0.000 HD 
ENDBRANCH   4   9
ENDBRANCH   3   4
TORSDOF 2
ENDMDL
MODEL      140
REMARK 921   NORMALIZED FREE ENERGY PREDICTED BY IDOCK:   -1.94 KCAL/MOL
REMARK 922        TOTAL FREE ENERGY PREDICTED BY IDOCK:   -2.80 KCAL/MOL
REMARK 923 INTER-LIGAND FREE ENERGY PREDICTED BY IDOCK:   -2.64 KCAL/MOL
REMARK 924 INTRA-LIGAND FREE ENERGY PREDICTED BY IDOCK:   -0.16 KCAL/MOL
REMARK 927      BINDING AFFINITY PREDICTED BY RF-SCORE:    0.00 PKD
ROOT
HETATM    1  O   UNL     1     -12.005  11.157  67.610  1.00  0.00    -0.613 OA 
HETATM    2  H   UNL     1     -12.515  10.783  68.318  1.00  0.00     0.000 HD 
HETATM    3  C   UNL     1     -10.616  10.841  67.730  1.00  0.00    -0.228 C  
ENDROOT
BRANCH   3   4
HETATM    4  C   UNL     1      -9.795  11.441  66.589  1.00  0.00    -0.205 C  
HETATM    5  N   UNL     1      -9.124  10.337  65.792  1.00  0.00    -0.163 N  
HETATM    6  O   UNL     1      -8.014  10.575  65.292  1.00  0.00    -0.152 OA 
HETATM    7 BR   UNL     1     -11.011  12.304  65.297  1.00  0.00    -0.362 Br 
HETATM    8  O   UNL     1      -9.744   9.274  65.635  1.00  0.00    -0.284 OA 
BRANCH   4   9
HETATM    9  C   UNL     1      -8.755  12.463  67.050  1.00  0.00    -0.207 C  
HETATM   10  O   UNL     1      -8.753  13.640  66.225  1.00  0.00    -0.427 OA 
HETATM   11  H   UNL     1      -8.108  14.275  66.511  1.00  0.00     0.000 HD 
ENDBRANCH   4   9
ENDBRANCH   3   4
TORSDOF 2
ENDMDL
MODEL      141
REMARK 921   NORMALIZED FREE ENERGY PREDICTED BY IDOCK:   -1.93 KCAL/MOL
REMARK 922        TOTAL FREE ENERGY PREDICTED BY IDOCK:   -2.79 KCAL/MOL
REMARK 923 INTER-LIGAND FREE ENERGY PREDICTED BY IDOCK:   -2.55 KCAL/MOL
REMARK 924 INTRA-LIGAND FREE ENERGY PREDICTED BY IDOCK:   -0.24 KCAL/MOL
REMARK 927      BINDING AFFINITY PREDICTED BY RF-SCORE:    0.00 PKD
ROOT
HETATM    1  O   UNL     1     -12.674   7.101  70.474  1.00  0.00    -0.611 OA 
HETATM    2  H   UNL     1     -13.275   7.029  71.206  1.00  0.00     0.000 HD 
HETATM    3  C   UNL     1     -11.376   7.528  70.892  1.00  0.00    -0.277 C  
ENDROOT
BRANCH   3   4
HETATM    4  C   UNL     1     -10.408   7.645  69.714  1.00  0.00    -0.223 C  
HETATM    5  N   UNL     1      -9.004   7.273  70.155  1.00  0.00    -0.148 N  
HETATM    6  O   UNL     1      -8.053   7.858  69.613  1.00  0.00    -0.113 OA 
HETATM    7 BR   UNL     1     -10.870   6.287  68.359  1.00  0.00    -0.409 Br 
HETATM    8  O   UNL     1      -8.878   6.366  70.991  1.00  0.00    -0.138 OA 
BRANCH   4   9
HETATM    9  C   UNL     1     -10.405   9.024  69.053  1.00  0.00    -0.219 C  
HETATM   10  O   UNL     1     -11.696   9.653  69.113  1.00  0.00    -0.412 OA 
HETATM   11  H   UNL     1     -11.695  10.510  68.703  1.00  0.00     0.000 HD 
ENDBRANCH   4   9
ENDBRANCH   3   4
TORSDOF 2
ENDMDL
MODEL      142
REMARK 921   NORMALIZED FREE ENERGY PREDICTED BY IDOCK:   -1.92 KCAL/MOL
REMARK 922        TOTAL FREE ENERGY PREDICTED BY IDOCK:   -2.78 KCAL/MOL
REMARK 923 INTER-LIGAND FREE ENERGY PREDICTED BY IDOCK:   -2.54 KCAL/MOL
REMARK 924 INTRA-LIGAND FREE ENERGY PREDICTED BY IDOCK:   -0.24 KCAL/MOL
REMARK 927      BINDING AFFINITY PREDICTED BY RF-SCORE:    0.00 PKD
ROOT
HETATM    1  O   UNL     1     -10.944   8.353  67.090  1.00  0.00    -0.425 OA 
HETATM    2  H   UNL     1     -11.174   8.581  66.197  1.00  0.00     0.000 HD 
HETATM    3  C   UNL     1     -10.785   9.512  67.911  1.00  0.00    -0.228 C  
ENDROOT
BRANCH   3   4
HETATM    4  C   UNL     1     -10.416   9.146  69.348  1.00  0.00    -0.219 C  
HETATM    5  N   UNL     1      -9.051   9.712  69.696  1.00  0.00    -0.195 N  
HETATM    6  O   UNL     1      -8.338   9.066  70.479  1.00  0.00    -0.143 OA 
HETATM    7 BR   UNL     1     -11.651  10.058  70.587  1.00  0.00    -0.452 Br 
HETATM    8  O   UNL     1      -8.742  10.816  69.224  1.00  0.00    -0.131 OA 
BRANCH   4   9
HETATM    9  C   UNL     1     -10.450   7.643  69.630  1.00  0.00    -0.235 C  
HETATM   10  O   UNL     1     -11.774   7.100  69.495  1.00  0.00    -0.515 OA 
HETATM   11  H   UNL     1     -11.796   6.167  69.670  1.00  0.00     0.000 HD 
ENDBRANCH   4   9
ENDBRANCH   3   4
TORSDOF 2
ENDMDL
MODEL      143
REMARK 921   NORMALIZED FREE ENERGY PREDICTED BY IDOCK:   -1.91 KCAL/MOL
REMARK 922        TOTAL FREE ENERGY PREDICTED BY IDOCK:   -2.77 KCAL/MOL
REMARK 923 INTER-LIGAND FREE ENERGY PREDICTED BY IDOCK:   -2.06 KCAL/MOL
REMARK 924 INTRA-LIGAND FREE ENERGY PREDICTED BY IDOCK:   -0.70 KCAL/MOL
REMARK 927      BINDING AFFINITY PREDICTED BY RF-SCORE:    0.00 PKD
ROOT
HETATM    1  O   UNL     1      -7.493   8.689  67.917  1.00  0.00    -0.094 OA 
HETATM    2  H   UNL     1      -6.649   8.335  67.661  1.00  0.00     0.000 HD 
HETATM    3  C   UNL     1      -8.223   7.779  68.742  1.00  0.00    -0.128 C  
ENDROOT
BRANCH   3   4
HETATM    4  C   UNL     1      -9.581   8.348  69.155  1.00  0.00    -0.164 C  
HETATM    5  N   UNL     1     -10.325   8.859  67.934  1.00  0.00    -0.222 N  
HETATM    6  O   UNL     1     -11.066   9.843  68.077  1.00  0.00    -0.249 OA 
HETATM    7 BR   UNL     1     -10.715   6.888  69.842  1.00  0.00    -0.298 Br 
HETATM    8  O   UNL     1     -10.198   8.232  66.871  1.00  0.00    -0.268 OA 
BRANCH   4   9
HETATM    9  C   UNL     1      -9.491   9.448  70.214  1.00  0.00    -0.251 C  
HETATM   10  O   UNL     1      -8.728  10.577  69.757  1.00  0.00    -0.390 OA 
HETATM   11  H   UNL     1      -8.673  11.259  70.414  1.00  0.00     0.000 HD 
ENDBRANCH   4   9
ENDBRANCH   3   4
TORSDOF 2
ENDMDL
MODEL      144
REMARK 921   NORMALIZED FREE ENERGY PREDICTED BY IDOCK:   -1.89 KCAL/MOL
REMARK 922        TOTAL FREE ENERGY PREDICTED BY IDOCK:   -2.74 KCAL/MOL
REMARK 923 INTER-LIGAND FREE ENERGY PREDICTED BY IDOCK:   -2.05 KCAL/MOL
REMARK 924 INTRA-LIGAND FREE ENERGY PREDICTED BY IDOCK:   -0.69 KCAL/MOL
REMARK 927      BINDING AFFINITY PREDICTED BY RF-SCORE:    0.00 PKD
ROOT
HETATM    1  O   UNL     1      -9.210   4.507  73.388  1.00  0.00    -0.113 OA 
HETATM    2  H   UNL     1      -9.094   3.581  73.566  1.00  0.00     0.000 HD 
HETATM    3  C   UNL     1     -10.086   4.729  72.281  1.00  0.00    -0.187 C  
ENDROOT
BRANCH   3   4
HETATM    4  C   UNL     1     -10.273   6.219  71.994  1.00  0.00    -0.189 C  
HETATM    5  N   UNL     1      -8.927   6.877  71.750  1.00  0.00    -0.138 N  
HETATM    6  O   UNL     1      -8.784   8.055  72.111  1.00  0.00    -0.129 OA 
HETATM    7 BR   UNL     1     -11.237   6.434  70.286  1.00  0.00    -0.470 Br 
HETATM    8  O   UNL     1      -8.059   6.221  71.155  1.00  0.00    -0.114 OA 
BRANCH   4   9
HETATM    9  C   UNL     1     -11.034   6.967  73.091  1.00  0.00    -0.281 C  
HETATM   10  O   UNL     1     -10.280   7.046  74.312  1.00  0.00    -0.432 OA 
HETATM   11  H   UNL     1     -10.752   7.510  74.993  1.00  0.00     0.000 HD 
ENDBRANCH   4   9
ENDBRANCH   3   4
TORSDOF 2
ENDMDL
MODEL      145
REMARK 921   NORMALIZED FREE ENERGY PREDICTED BY IDOCK:   -1.88 KCAL/MOL
REMARK 922        TOTAL FREE ENERGY PREDICTED BY IDOCK:   -2.73 KCAL/MOL
REMARK 923 INTER-LIGAND FREE ENERGY PREDICTED BY IDOCK:   -2.28 KCAL/MOL
REMARK 924 INTRA-LIGAND FREE ENERGY PREDICTED BY IDOCK:   -0.45 KCAL/MOL
REMARK 927      BINDING AFFINITY PREDICTED BY RF-SCORE:    0.00 PKD
ROOT
HETATM    1  O   UNL     1      -9.966  14.331  69.113  1.00  0.00    -0.395 OA 
HETATM    2  H   UNL     1     -10.743  13.980  69.532  1.00  0.00     0.000 HD 
HETATM    3  C   UNL     1      -9.905  15.755  69.211  1.00  0.00    -0.265 C  
ENDROOT
BRANCH   3   4
HETATM    4  C   UNL     1      -8.655  16.319  68.537  1.00  0.00    -0.211 C  
HETATM    5  N   UNL     1      -8.596  15.871  67.088  1.00  0.00    -0.182 N  
HETATM    6  O   UNL     1      -7.478  15.675  66.587  1.00  0.00    -0.127 OA 
HETATM    7 BR   UNL     1      -8.804  18.284  68.434  1.00  0.00    -0.321 Br 
HETATM    8  O   UNL     1      -9.664  15.778  66.465  1.00  0.00    -0.238 OA 
BRANCH   4   9
HETATM    9  C   UNL     1      -7.352  15.958  69.253  1.00  0.00    -0.221 C  
HETATM   10  O   UNL     1      -7.530  14.875  70.181  1.00  0.00    -0.323 OA 
HETATM   11  H   UNL     1      -6.722  14.650  70.626  1.00  0.00     0.000 HD 
ENDBRANCH   4   9
ENDBRANCH   3   4
TORSDOF 2
ENDMDL
MODEL      146
REMARK 921   NORMALIZED FREE ENERGY PREDICTED BY IDOCK:   -1.87 KCAL/MOL
REMARK 922        TOTAL FREE ENERGY PREDICTED BY IDOCK:   -2.72 KCAL/MOL
REMARK 923 INTER-LIGAND FREE ENERGY PREDICTED BY IDOCK:   -2.37 KCAL/MOL
REMARK 924 INTRA-LIGAND FREE ENERGY PREDICTED BY IDOCK:   -0.35 KCAL/MOL
REMARK 927      BINDING AFFINITY PREDICTED BY RF-SCORE:    0.00 PKD
ROOT
HETATM    1  O   UNL     1     -11.686  12.321  66.235  1.00  0.00    -0.426 OA 
HETATM    2  H   UNL     1     -11.947  13.002  65.627  1.00  0.00     0.000 HD 
HETATM    3  C   UNL     1     -10.268  12.271  66.402  1.00  0.00    -0.225 C  
ENDROOT
BRANCH   3   4
HETATM    4  C   UNL     1      -9.847  11.175  67.381  1.00  0.00    -0.173 C  
HETATM    5  N   UNL     1     -10.226   9.812  66.831  1.00  0.00    -0.236 N  
HETATM    6  O   UNL     1     -10.548   8.929  67.641  1.00  0.00    -0.258 OA 
HETATM    7 BR   UNL     1      -7.878  11.126  67.494  1.00  0.00    -0.122 Br 
HETATM    8  O   UNL     1     -10.140   9.635  65.606  1.00  0.00    -0.296 OA 
BRANCH   4   9
HETATM    9  C   UNL     1     -10.420  11.353  68.788  1.00  0.00    -0.204 C  
HETATM   10  O   UNL     1     -10.424  12.730  69.199  1.00  0.00    -0.430 OA 
HETATM   11  H   UNL     1     -10.779  12.841  70.072  1.00  0.00     0.000 HD 
ENDBRANCH   4   9
ENDBRANCH   3   4
TORSDOF 2
ENDMDL
MODEL      147
REMARK 921   NORMALIZED FREE ENERGY PREDICTED BY IDOCK:   -1.84 KCAL/MOL
REMARK 922        TOTAL FREE ENERGY PREDICTED BY IDOCK:   -2.69 KCAL/MOL
REMARK 923 INTER-LIGAND FREE ENERGY PREDICTED BY IDOCK:   -2.43 KCAL/MOL
REMARK 924 INTRA-LIGAND FREE ENERGY PREDICTED BY IDOCK:   -0.26 KCAL/MOL
REMARK 927      BINDING AFFINITY PREDICTED BY RF-SCORE:    0.00 PKD
ROOT
HETATM    1  O   UNL     1      -8.823   8.702  63.581  1.00  0.00    -0.427 OA 
HETATM    2  H   UNL     1      -8.865   8.469  62.661  1.00  0.00     0.000 HD 
HETATM    3  C   UNL     1      -9.313  10.023  63.819  1.00  0.00    -0.257 C  
ENDROOT
BRANCH   3   4
HETATM    4  C   UNL     1      -9.247  10.397  65.299  1.00  0.00    -0.199 C  
HETATM    5  N   UNL     1     -10.099  11.625  65.565  1.00  0.00    -0.236 N  
HETATM    6  O   UNL     1      -9.722  12.412  66.447  1.00  0.00    -0.230 OA 
HETATM    7 BR   UNL     1     -10.098   8.973  66.367  1.00  0.00    -0.296 Br 
HETATM    8  O   UNL     1     -11.155  11.749  64.926  1.00  0.00    -0.305 OA 
BRANCH   4   9
HETATM    9  C   UNL     1      -7.825  10.621  65.816  1.00  0.00    -0.141 C  
HETATM   10  O   UNL     1      -6.856  10.596  64.755  1.00  0.00    -0.344 OA 
HETATM   11  H   UNL     1      -5.973  10.736  65.075  1.00  0.00     0.000 HD 
ENDBRANCH   4   9
ENDBRANCH   3   4
TORSDOF 2
ENDMDL
MODEL      148
REMARK 921   NORMALIZED FREE ENERGY PREDICTED BY IDOCK:   -1.79 KCAL/MOL
REMARK 922        TOTAL FREE ENERGY PREDICTED BY IDOCK:   -2.63 KCAL/MOL
REMARK 923 INTER-LIGAND FREE ENERGY PREDICTED BY IDOCK:   -2.56 KCAL/MOL
REMARK 924 INTRA-LIGAND FREE ENERGY PREDICTED BY IDOCK:   -0.07 KCAL/MOL
REMARK 927      BINDING AFFINITY PREDICTED BY RF-SCORE:    0.00 PKD
ROOT
HETATM    1  O   UNL     1     -12.744  13.887  66.240  1.00  0.00    -0.430 OA 
HETATM    2  H   UNL     1     -13.584  13.543  65.960  1.00  0.00     0.000 HD 
HETATM    3  C   UNL     1     -11.793  12.846  66.470  1.00  0.00    -0.407 C  
ENDROOT
BRANCH   3   4
HETATM    4  C   UNL     1     -10.441  13.398  66.921  1.00  0.00    -0.273 C  
HETATM    5  N   UNL     1      -9.339  12.404  66.602  1.00  0.00    -0.223 N  
HETATM    6  O   UNL     1      -8.370  12.345  67.374  1.00  0.00    -0.162 OA 
HETATM    7 BR   UNL     1      -9.995  14.985  65.836  1.00  0.00    -0.379 Br 
HETATM    8  O   UNL     1      -9.437  11.743  65.557  1.00  0.00    -0.227 OA 
BRANCH   4   9
HETATM    9  C   UNL     1     -10.393  13.780  68.401  1.00  0.00    -0.247 C  
HETATM   10  O   UNL     1     -10.103  15.175  68.589  1.00  0.00    -0.210 OA 
HETATM   11  H   UNL     1     -10.073  15.413  69.507  1.00  0.00     0.000 HD 
ENDBRANCH   4   9
ENDBRANCH   3   4
TORSDOF 2
ENDMDL
MODEL      149
REMARK 921   NORMALIZED FREE ENERGY PREDICTED BY IDOCK:   -1.78 KCAL/MOL
REMARK 922        TOTAL FREE ENERGY PREDICTED BY IDOCK:   -2.62 KCAL/MOL
REMARK 923 INTER-LIGAND FREE ENERGY PREDICTED BY IDOCK:   -2.24 KCAL/MOL
REMARK 924 INTRA-LIGAND FREE ENERGY PREDICTED BY IDOCK:   -0.38 KCAL/MOL
REMARK 927      BINDING AFFINITY PREDICTED BY RF-SCORE:    0.00 PKD
ROOT
HETATM    1  O   UNL     1      -7.495   7.983  68.064  1.00  0.00    -0.093 OA 
HETATM    2  H   UNL     1      -6.563   7.802  68.040  1.00  0.00     0.000 HD 
HETATM    3  C   UNL     1      -8.179   7.127  68.982  1.00  0.00    -0.125 C  
ENDROOT
BRANCH   3   4
HETATM    4  C   UNL     1      -9.679   7.419  69.022  1.00  0.00    -0.160 C  
HETATM    5  N   UNL     1      -9.930   8.776  69.655  1.00  0.00    -0.186 N  
HETATM    6  O   UNL     1     -10.967   8.923  70.320  1.00  0.00    -0.238 OA 
HETATM    7 BR   UNL     1     -10.353   7.610  67.177  1.00  0.00    -0.408 Br 
HETATM    8  O   UNL     1      -9.114   9.682  69.429  1.00  0.00    -0.163 OA 
BRANCH   4   9
HETATM    9  C   UNL     1     -10.497   6.344  69.740  1.00  0.00    -0.215 C  
HETATM   10  O   UNL     1     -11.909   6.512  69.531  1.00  0.00    -0.649 OA 
HETATM   11  H   UNL     1     -12.418   5.845  69.976  1.00  0.00     0.000 HD 
ENDBRANCH   4   9
ENDBRANCH   3   4
TORSDOF 2
ENDMDL
MODEL      150
REMARK 921   NORMALIZED FREE ENERGY PREDICTED BY IDOCK:   -1.76 KCAL/MOL
REMARK 922        TOTAL FREE ENERGY PREDICTED BY IDOCK:   -2.61 KCAL/MOL
REMARK 923 INTER-LIGAND FREE ENERGY PREDICTED BY IDOCK:   -2.15 KCAL/MOL
REMARK 924 INTRA-LIGAND FREE ENERGY PREDICTED BY IDOCK:   -0.46 KCAL/MOL
REMARK 927      BINDING AFFINITY PREDICTED BY RF-SCORE:    0.00 PKD
ROOT
HETATM    1  O   UNL     1      -9.024   6.470  65.031  1.00  0.00    -0.357 OA 
HETATM    2  H   UNL     1      -8.571   6.057  64.305  1.00  0.00     0.000 HD 
HETATM    3  C   UNL     1      -8.380   6.206  66.279  1.00  0.00    -0.124 C  
ENDROOT
BRANCH   3   4
HETATM    4  C   UNL     1      -9.109   6.871  67.447  1.00  0.00    -0.122 C  
HETATM    5  N   UNL     1      -9.500   5.828  68.478  1.00  0.00    -0.120 N  
HETATM    6  O   UNL     1     -10.551   6.006  69.113  1.00  0.00    -0.230 OA 
HETATM    7 BR   UNL     1      -7.855   8.056  68.403  1.00  0.00    -0.124 Br 
HETATM    8  O   UNL     1      -8.721   4.882  68.672  1.00  0.00    -0.093 OA 
BRANCH   4   9
HETATM    9  C   UNL     1     -10.336   7.682  67.027  1.00  0.00    -0.330 C  
HETATM   10  O   UNL     1     -11.413   6.839  66.584  1.00  0.00    -0.649 OA 
HETATM   11  H   UNL     1     -12.175   7.342  66.323  1.00  0.00     0.000 HD 
ENDBRANCH   4   9
ENDBRANCH   3   4
TORSDOF 2
ENDMDL
MODEL      151
REMARK 921   NORMALIZED FREE ENERGY PREDICTED BY IDOCK:   -1.76 KCAL/MOL
REMARK 922        TOTAL FREE ENERGY PREDICTED BY IDOCK:   -2.60 KCAL/MOL
REMARK 923 INTER-LIGAND FREE ENERGY PREDICTED BY IDOCK:   -1.94 KCAL/MOL
REMARK 924 INTRA-LIGAND FREE ENERGY PREDICTED BY IDOCK:   -0.66 KCAL/MOL
REMARK 927      BINDING AFFINITY PREDICTED BY RF-SCORE:    0.00 PKD
ROOT
HETATM    1  O   UNL     1      -9.166   8.472  64.996  1.00  0.00    -0.425 OA 
HETATM    2  H   UNL     1      -9.352   9.133  64.340  1.00  0.00     0.000 HD 
HETATM    3  C   UNL     1      -9.795   8.769  66.244  1.00  0.00    -0.272 C  
ENDROOT
BRANCH   3   4
HETATM    4  C   UNL     1      -9.497   7.704  67.299  1.00  0.00    -0.148 C  
HETATM    5  N   UNL     1      -7.998   7.498  67.424  1.00  0.00    -0.114 N  
HETATM    6  O   UNL     1      -7.591   6.359  67.700  1.00  0.00    -0.097 OA 
HETATM    7 BR   UNL     1     -10.045   8.376  69.072  1.00  0.00    -0.216 Br 
HETATM    8  O   UNL     1      -7.263   8.489  67.298  1.00  0.00    -0.081 OA 
BRANCH   4   9
HETATM    9  C   UNL     1     -10.193   6.366  67.040  1.00  0.00    -0.205 C  
HETATM   10  O   UNL     1      -9.945   5.880  65.710  1.00  0.00    -0.383 OA 
HETATM   11  H   UNL     1     -10.376   5.050  65.548  1.00  0.00     0.000 HD 
ENDBRANCH   4   9
ENDBRANCH   3   4
TORSDOF 2
ENDMDL
MODEL      152
REMARK 921   NORMALIZED FREE ENERGY PREDICTED BY IDOCK:   -1.74 KCAL/MOL
REMARK 922        TOTAL FREE ENERGY PREDICTED BY IDOCK:   -2.58 KCAL/MOL
REMARK 923 INTER-LIGAND FREE ENERGY PREDICTED BY IDOCK:   -2.13 KCAL/MOL
REMARK 924 INTRA-LIGAND FREE ENERGY PREDICTED BY IDOCK:   -0.45 KCAL/MOL
REMARK 927      BINDING AFFINITY PREDICTED BY RF-SCORE:    0.00 PKD
ROOT
HETATM    1  O   UNL     1      -9.215   5.304  63.641  1.00  0.00    -0.342 OA 
HETATM    2  H   UNL     1      -8.934   5.224  62.737  1.00  0.00     0.000 HD 
HETATM    3  C   UNL     1      -8.364   4.577  64.528  1.00  0.00    -0.115 C  
ENDROOT
BRANCH   3   4
HETATM    4  C   UNL     1      -8.815   4.706  65.983  1.00  0.00    -0.121 C  
HETATM    5  N   UNL     1      -8.729   3.358  66.677  1.00  0.00    -0.119 N  
HETATM    6  O   UNL     1      -9.566   3.105  67.557  1.00  0.00    -0.194 OA 
HETATM    7 BR   UNL     1      -7.533   5.841  66.963  1.00  0.00    -0.081 Br 
HETATM    8  O   UNL     1      -7.794   2.604  66.367  1.00  0.00    -0.075 OA 
BRANCH   4   9
HETATM    9  C   UNL     1     -10.219   5.292  66.144  1.00  0.00    -0.184 C  
HETATM   10  O   UNL     1     -11.209   4.516  65.449  1.00  0.00    -0.902 OA 
HETATM   11  H   UNL     1     -12.081   4.879  65.548  1.00  0.00     0.000 HD 
ENDBRANCH   4   9
ENDBRANCH   3   4
TORSDOF 2
ENDMDL
MODEL      153
REMARK 921   NORMALIZED FREE ENERGY PREDICTED BY IDOCK:   -1.73 KCAL/MOL
REMARK 922        TOTAL FREE ENERGY PREDICTED BY IDOCK:   -2.56 KCAL/MOL
REMARK 923 INTER-LIGAND FREE ENERGY PREDICTED BY IDOCK:   -2.30 KCAL/MOL
REMARK 924 INTRA-LIGAND FREE ENERGY PREDICTED BY IDOCK:   -0.26 KCAL/MOL
REMARK 927      BINDING AFFINITY PREDICTED BY RF-SCORE:    0.00 PKD
ROOT
HETATM    1  O   UNL     1      -7.101   9.006  65.426  1.00  0.00    -0.079 OA 
HETATM    2  H   UNL     1      -6.177   8.915  65.227  1.00  0.00     0.000 HD 
HETATM    3  C   UNL     1      -7.625  10.251  64.959  1.00  0.00    -0.124 C  
ENDROOT
BRANCH   3   4
HETATM    4  C   UNL     1      -9.113  10.398  65.278  1.00  0.00    -0.193 C  
HETATM    5  N   UNL     1      -9.910  10.533  63.993  1.00  0.00    -0.322 N  
HETATM    6  O   UNL     1     -10.928  11.243  64.015  1.00  0.00    -0.377 OA 
HETATM    7 BR   UNL     1      -9.772   8.722  66.086  1.00  0.00    -0.279 Br 
HETATM    8  O   UNL     1      -9.535   9.885  63.005  1.00  0.00    -0.276 OA 
BRANCH   4   9
HETATM    9  C   UNL     1      -9.430  11.560  66.220  1.00  0.00    -0.217 C  
HETATM   10  O   UNL     1      -9.257  12.835  65.579  1.00  0.00    -0.435 OA 
HETATM   11  H   UNL     1      -9.453  13.558  66.163  1.00  0.00     0.000 HD 
ENDBRANCH   4   9
ENDBRANCH   3   4
TORSDOF 2
ENDMDL
MODEL      154
REMARK 921   NORMALIZED FREE ENERGY PREDICTED BY IDOCK:   -1.69 KCAL/MOL
REMARK 922        TOTAL FREE ENERGY PREDICTED BY IDOCK:   -2.52 KCAL/MOL
REMARK 923 INTER-LIGAND FREE ENERGY PREDICTED BY IDOCK:   -2.32 KCAL/MOL
REMARK 924 INTRA-LIGAND FREE ENERGY PREDICTED BY IDOCK:   -0.20 KCAL/MOL
REMARK 927      BINDING AFFINITY PREDICTED BY RF-SCORE:    0.00 PKD
ROOT
HETATM    1  O   UNL     1      -9.780   7.140  69.746  1.00  0.00    -0.165 OA 
HETATM    2  H   UNL     1      -9.884   6.434  70.374  1.00  0.00     0.000 HD 
HETATM    3  C   UNL     1     -10.712   8.198  69.977  1.00  0.00    -0.243 C  
ENDROOT
BRANCH   3   4
HETATM    4  C   UNL     1     -10.545   9.334  68.967  1.00  0.00    -0.205 C  
HETATM    5  N   UNL     1     -11.461  10.490  69.327  1.00  0.00    -0.261 N  
HETATM    6  O   UNL     1     -11.933  11.166  68.400  1.00  0.00    -0.561 OA 
HETATM    7 BR   UNL     1      -8.727  10.083  69.128  1.00  0.00    -0.183 Br 
HETATM    8  O   UNL     1     -11.645  10.732  70.529  1.00  0.00    -0.316 OA 
BRANCH   4   9
HETATM    9  C   UNL     1     -10.780   8.909  67.517  1.00  0.00    -0.152 C  
HETATM   10  O   UNL     1     -10.354   9.916  66.584  1.00  0.00    -0.231 OA 
HETATM   11  H   UNL     1     -10.499   9.653  65.684  1.00  0.00     0.000 HD 
ENDBRANCH   4   9
ENDBRANCH   3   4
TORSDOF 2
ENDMDL
MODEL      155
REMARK 921   NORMALIZED FREE ENERGY PREDICTED BY IDOCK:   -1.69 KCAL/MOL
REMARK 922        TOTAL FREE ENERGY PREDICTED BY IDOCK:   -2.52 KCAL/MOL
REMARK 923 INTER-LIGAND FREE ENERGY PREDICTED BY IDOCK:   -2.05 KCAL/MOL
REMARK 924 INTRA-LIGAND FREE ENERGY PREDICTED BY IDOCK:   -0.47 KCAL/MOL
REMARK 927      BINDING AFFINITY PREDICTED BY RF-SCORE:    0.00 PKD
ROOT
HETATM    1  O   UNL     1     -10.317   9.250  67.329  1.00  0.00    -0.232 OA 
HETATM    2  H   UNL     1     -10.690   8.415  67.588  1.00  0.00     0.000 HD 
HETATM    3  C   UNL     1      -9.838   9.225  65.983  1.00  0.00    -0.293 C  
ENDROOT
BRANCH   3   4
HETATM    4  C   UNL     1      -9.238  10.568  65.567  1.00  0.00    -0.188 C  
HETATM    5  N   UNL     1      -8.351  11.108  66.674  1.00  0.00    -0.155 N  
HETATM    6  O   UNL     1      -8.294  12.339  66.822  1.00  0.00    -0.168 OA 
HETATM    7 BR   UNL     1      -8.009  10.288  64.050  1.00  0.00    -0.084 Br 
HETATM    8  O   UNL     1      -7.688  10.296  67.336  1.00  0.00    -0.095 OA 
BRANCH   4   9
HETATM    9  C   UNL     1     -10.283  11.613  65.172  1.00  0.00    -0.274 C  
HETATM   10  O   UNL     1      -9.747  12.597  64.271  1.00  0.00    -0.561 OA 
HETATM   11  H   UNL     1     -10.395  13.246  64.025  1.00  0.00     0.000 HD 
ENDBRANCH   4   9
ENDBRANCH   3   4
TORSDOF 2
ENDMDL
MODEL      156
REMARK 921   NORMALIZED FREE ENERGY PREDICTED BY IDOCK:   -1.68 KCAL/MOL
REMARK 922        TOTAL FREE ENERGY PREDICTED BY IDOCK:   -2.52 KCAL/MOL
REMARK 923 INTER-LIGAND FREE ENERGY PREDICTED BY IDOCK:   -2.08 KCAL/MOL
REMARK 924 INTRA-LIGAND FREE ENERGY PREDICTED BY IDOCK:   -0.44 KCAL/MOL
REMARK 927      BINDING AFFINITY PREDICTED BY RF-SCORE:    0.00 PKD
ROOT
HETATM    1  O   UNL     1      -6.975   6.698  67.656  1.00  0.00    -0.077 OA 
HETATM    2  H   UNL     1      -6.170   6.203  67.758  1.00  0.00     0.000 HD 
HETATM    3  C   UNL     1      -8.103   5.992  68.176  1.00  0.00    -0.110 C  
ENDROOT
BRANCH   3   4
HETATM    4  C   UNL     1      -9.398   6.789  68.014  1.00  0.00    -0.118 C  
HETATM    5  N   UNL     1      -9.616   7.681  69.223  1.00  0.00    -0.159 N  
HETATM    6  O   UNL     1     -10.785   7.895  69.581  1.00  0.00    -0.244 OA 
HETATM    7 BR   UNL     1      -9.200   8.049  66.509  1.00  0.00    -0.253 Br 
HETATM    8  O   UNL     1      -8.620   8.192  69.756  1.00  0.00    -0.130 OA 
BRANCH   4   9
HETATM    9  C   UNL     1     -10.632   5.918  67.772  1.00  0.00    -0.259 C  
HETATM   10  O   UNL     1     -11.639   6.609  67.015  1.00  0.00    -0.727 OA 
HETATM   11  H   UNL     1     -12.405   6.068  66.864  1.00  0.00     0.000 HD 
ENDBRANCH   4   9
ENDBRANCH   3   4
TORSDOF 2
ENDMDL
MODEL      157
REMARK 921   NORMALIZED FREE ENERGY PREDICTED BY IDOCK:   -1.66 KCAL/MOL
REMARK 922        TOTAL FREE ENERGY PREDICTED BY IDOCK:   -2.48 KCAL/MOL
REMARK 923 INTER-LIGAND FREE ENERGY PREDICTED BY IDOCK:   -2.21 KCAL/MOL
REMARK 924 INTRA-LIGAND FREE ENERGY PREDICTED BY IDOCK:   -0.28 KCAL/MOL
REMARK 927      BINDING AFFINITY PREDICTED BY RF-SCORE:    0.00 PKD
ROOT
HETATM    1  O   UNL     1      -9.883   5.009  72.049  1.00  0.00    -0.162 OA 
HETATM    2  H   UNL     1     -10.203   4.145  72.282  1.00  0.00     0.000 HD 
HETATM    3  C   UNL     1     -10.922   5.989  72.083  1.00  0.00    -0.267 C  
ENDROOT
BRANCH   3   4
HETATM    4  C   UNL     1     -10.407   7.378  71.709  1.00  0.00    -0.192 C  
HETATM    5  N   UNL     1     -11.563   8.360  71.632  1.00  0.00    -0.272 N  
HETATM    6  O   UNL     1     -11.490   9.278  70.801  1.00  0.00    -0.268 OA 
HETATM    7 BR   UNL     1      -9.278   8.068  73.172  1.00  0.00    -0.342 Br 
HETATM    8  O   UNL     1     -12.494   8.225  72.441  1.00  0.00    -0.344 OA 
BRANCH   4   9
HETATM    9  C   UNL     1      -9.604   7.408  70.407  1.00  0.00    -0.165 C  
HETATM   10  O   UNL     1     -10.412   7.067  69.268  1.00  0.00    -0.197 OA 
HETATM   11  H   UNL     1      -9.914   7.086  68.460  1.00  0.00     0.000 HD 
ENDBRANCH   4   9
ENDBRANCH   3   4
TORSDOF 2
ENDMDL
MODEL      158
REMARK 921   NORMALIZED FREE ENERGY PREDICTED BY IDOCK:   -1.64 KCAL/MOL
REMARK 922        TOTAL FREE ENERGY PREDICTED BY IDOCK:   -2.47 KCAL/MOL
REMARK 923 INTER-LIGAND FREE ENERGY PREDICTED BY IDOCK:   -2.02 KCAL/MOL
REMARK 924 INTRA-LIGAND FREE ENERGY PREDICTED BY IDOCK:   -0.44 KCAL/MOL
REMARK 927      BINDING AFFINITY PREDICTED BY RF-SCORE:    0.00 PKD
ROOT
HETATM    1  O   UNL     1      -9.810   6.496  70.106  1.00  0.00    -0.166 OA 
HETATM    2  H   UNL     1     -10.061   5.621  69.836  1.00  0.00     0.000 HD 
HETATM    3  C   UNL     1     -10.784   7.471  69.726  1.00  0.00    -0.242 C  
ENDROOT
BRANCH   3   4
HETATM    4  C   UNL     1     -10.381   8.879  70.161  1.00  0.00    -0.206 C  
HETATM    5  N   UNL     1     -10.102   9.742  68.944  1.00  0.00    -0.175 N  
HETATM    6  O   UNL     1      -9.226  10.615  69.040  1.00  0.00    -0.175 OA 
HETATM    7 BR   UNL     1     -11.918   9.753  71.036  1.00  0.00    -0.470 Br 
HETATM    8  O   UNL     1     -10.801   9.566  67.935  1.00  0.00    -0.245 OA 
BRANCH   4   9
HETATM    9  C   UNL     1      -9.184   8.911  71.114  1.00  0.00    -0.256 C  
HETATM   10  O   UNL     1      -7.948   8.633  70.436  1.00  0.00    -0.086 OA 
HETATM   11  H   UNL     1      -7.205   8.653  71.027  1.00  0.00     0.000 HD 
ENDBRANCH   4   9
ENDBRANCH   3   4
TORSDOF 2
ENDMDL
MODEL      159
REMARK 921   NORMALIZED FREE ENERGY PREDICTED BY IDOCK:   -1.64 KCAL/MOL
REMARK 922        TOTAL FREE ENERGY PREDICTED BY IDOCK:   -2.46 KCAL/MOL
REMARK 923 INTER-LIGAND FREE ENERGY PREDICTED BY IDOCK:   -2.11 KCAL/MOL
REMARK 924 INTRA-LIGAND FREE ENERGY PREDICTED BY IDOCK:   -0.35 KCAL/MOL
REMARK 927      BINDING AFFINITY PREDICTED BY RF-SCORE:    0.00 PKD
ROOT
HETATM    1  O   UNL     1     -10.543  15.565  66.540  1.00  0.00    -0.299 OA 
HETATM    2  H   UNL     1     -10.881  15.673  65.659  1.00  0.00     0.000 HD 
HETATM    3  C   UNL     1      -9.114  15.569  66.567  1.00  0.00    -0.302 C  
ENDROOT
BRANCH   3   4
HETATM    4  C   UNL     1      -8.570  15.396  67.985  1.00  0.00    -0.151 C  
HETATM    5  N   UNL     1      -8.095  16.732  68.528  1.00  0.00    -0.229 N  
HETATM    6  O   UNL     1      -7.126  16.731  69.302  1.00  0.00    -0.229 OA 
HETATM    7 BR   UNL     1     -10.047  14.879  69.187  1.00  0.00    -0.206 Br 
HETATM    8  O   UNL     1      -8.734  17.747  68.213  1.00  0.00    -0.262 OA 
BRANCH   4   9
HETATM    9  C   UNL     1      -7.454  14.357  68.094  1.00  0.00    -0.128 C  
HETATM   10  O   UNL     1      -6.318  14.698  67.283  1.00  0.00    -0.303 OA 
HETATM   11  H   UNL     1      -5.625  14.053  67.350  1.00  0.00     0.000 HD 
ENDBRANCH   4   9
ENDBRANCH   3   4
TORSDOF 2
ENDMDL
MODEL      160
REMARK 921   NORMALIZED FREE ENERGY PREDICTED BY IDOCK:   -1.64 KCAL/MOL
REMARK 922        TOTAL FREE ENERGY PREDICTED BY IDOCK:   -2.46 KCAL/MOL
REMARK 923 INTER-LIGAND FREE ENERGY PREDICTED BY IDOCK:   -2.22 KCAL/MOL
REMARK 924 INTRA-LIGAND FREE ENERGY PREDICTED BY IDOCK:   -0.24 KCAL/MOL
REMARK 927      BINDING AFFINITY PREDICTED BY RF-SCORE:    0.00 PKD
ROOT
HETATM    1  O   UNL     1     -11.309   7.647  73.611  1.00  0.00    -0.516 OA 
HETATM    2  H   UNL     1     -11.364   8.486  74.054  1.00  0.00     0.000 HD 
HETATM    3  C   UNL     1      -9.961   7.305  73.283  1.00  0.00    -0.273 C  
ENDROOT
BRANCH   3   4
HETATM    4  C   UNL     1      -9.872   5.955  72.572  1.00  0.00    -0.161 C  
HETATM    5  N   UNL     1      -8.457   5.411  72.660  1.00  0.00    -0.114 N  
HETATM    6  O   UNL     1      -8.035   4.737  71.708  1.00  0.00    -0.095 OA 
HETATM    7 BR   UNL     1     -10.964   4.634  73.548  1.00  0.00    -0.407 Br 
HETATM    8  O   UNL     1      -7.818   5.622  73.701  1.00  0.00    -0.104 OA 
BRANCH   4   9
HETATM    9  C   UNL     1     -10.330   5.996  71.113  1.00  0.00    -0.214 C  
HETATM   10  O   UNL     1     -11.704   6.400  70.990  1.00  0.00    -0.333 OA 
HETATM   11  H   UNL     1     -11.989   6.425  70.085  1.00  0.00     0.000 HD 
ENDBRANCH   4   9
ENDBRANCH   3   4
TORSDOF 2
ENDMDL
MODEL      161
REMARK 921   NORMALIZED FREE ENERGY PREDICTED BY IDOCK:   -1.63 KCAL/MOL
REMARK 922        TOTAL FREE ENERGY PREDICTED BY IDOCK:   -2.46 KCAL/MOL
REMARK 923 INTER-LIGAND FREE ENERGY PREDICTED BY IDOCK:   -2.03 KCAL/MOL
REMARK 924 INTRA-LIGAND FREE ENERGY PREDICTED BY IDOCK:   -0.43 KCAL/MOL
REMARK 927      BINDING AFFINITY PREDICTED BY RF-SCORE:    0.00 PKD
ROOT
HETATM    1  O   UNL     1      -8.616   8.206  67.966  1.00  0.00    -0.128 OA 
HETATM    2  H   UNL     1      -7.755   8.573  67.803  1.00  0.00     0.000 HD 
HETATM    3  C   UNL     1      -8.581   7.194  68.974  1.00  0.00    -0.129 C  
ENDROOT
BRANCH   3   4
HETATM    4  C   UNL     1      -9.966   6.603  69.237  1.00  0.00    -0.158 C  
HETATM    5  N   UNL     1     -10.855   7.636  69.907  1.00  0.00    -0.250 N  
HETATM    6  O   UNL     1     -11.702   7.232  70.718  1.00  0.00    -0.299 OA 
HETATM    7 BR   UNL     1     -10.854   6.240  67.513  1.00  0.00    -0.451 Br 
HETATM    8  O   UNL     1     -10.725   8.821  69.568  1.00  0.00    -0.228 OA 
BRANCH   4   9
HETATM    9  C   UNL     1      -9.941   5.316  70.062  1.00  0.00    -0.245 C  
HETATM   10  O   UNL     1      -9.483   5.545  71.405  1.00  0.00    -0.146 OA 
HETATM   11  H   UNL     1      -9.467   4.746  71.918  1.00  0.00     0.000 HD 
ENDBRANCH   4   9
ENDBRANCH   3   4
TORSDOF 2
ENDMDL
MODEL      162
REMARK 921   NORMALIZED FREE ENERGY PREDICTED BY IDOCK:   -1.60 KCAL/MOL
REMARK 922        TOTAL FREE ENERGY PREDICTED BY IDOCK:   -2.42 KCAL/MOL
REMARK 923 INTER-LIGAND FREE ENERGY PREDICTED BY IDOCK:   -2.00 KCAL/MOL
REMARK 924 INTRA-LIGAND FREE ENERGY PREDICTED BY IDOCK:   -0.42 KCAL/MOL
REMARK 927      BINDING AFFINITY PREDICTED BY RF-SCORE:    0.00 PKD
ROOT
HETATM    1  O   UNL     1      -9.166   8.472  64.996  1.00  0.00    -0.425 OA 
HETATM    2  H   UNL     1      -9.352   9.133  64.340  1.00  0.00     0.000 HD 
HETATM    3  C   UNL     1      -9.795   8.769  66.244  1.00  0.00    -0.272 C  
ENDROOT
BRANCH   3   4
HETATM    4  C   UNL     1      -9.497   7.704  67.299  1.00  0.00    -0.148 C  
HETATM    5  N   UNL     1      -9.763   8.257  68.688  1.00  0.00    -0.153 N  
HETATM    6  O   UNL     1      -9.050   7.854  69.619  1.00  0.00    -0.151 OA 
HETATM    7 BR   UNL     1     -10.787   6.223  67.110  1.00  0.00    -0.465 Br 
HETATM    8  O   UNL     1     -10.714   9.041  68.829  1.00  0.00    -0.195 OA 
BRANCH   4   9
HETATM    9  C   UNL     1      -8.078   7.138  67.221  1.00  0.00    -0.115 C  
HETATM   10  O   UNL     1      -7.084   8.176  67.218  1.00  0.00    -0.076 OA 
HETATM   11  H   UNL     1      -6.203   7.826  67.170  1.00  0.00     0.000 HD 
ENDBRANCH   4   9
ENDBRANCH   3   4
TORSDOF 2
ENDMDL
MODEL      163
REMARK 921   NORMALIZED FREE ENERGY PREDICTED BY IDOCK:   -1.59 KCAL/MOL
REMARK 922        TOTAL FREE ENERGY PREDICTED BY IDOCK:   -2.41 KCAL/MOL
REMARK 923 INTER-LIGAND FREE ENERGY PREDICTED BY IDOCK:   -1.95 KCAL/MOL
REMARK 924 INTRA-LIGAND FREE ENERGY PREDICTED BY IDOCK:   -0.47 KCAL/MOL
REMARK 927      BINDING AFFINITY PREDICTED BY RF-SCORE:    0.00 PKD
ROOT
HETATM    1  O   UNL     1     -10.352   7.622  66.349  1.00  0.00    -0.488 OA 
HETATM    2  H   UNL     1     -10.507   7.218  65.503  1.00  0.00     0.000 HD 
HETATM    3  C   UNL     1      -9.905   8.973  66.221  1.00  0.00    -0.291 C  
ENDROOT
BRANCH   3   4
HETATM    4  C   UNL     1      -9.657   9.622  67.582  1.00  0.00    -0.142 C  
HETATM    5  N   UNL     1      -8.378  10.440  67.544  1.00  0.00    -0.115 N  
HETATM    6  O   UNL     1      -7.703  10.508  68.583  1.00  0.00    -0.093 OA 
HETATM    7 BR   UNL     1     -11.074  10.949  67.936  1.00  0.00    -0.385 Br 
HETATM    8  O   UNL     1      -8.105  11.042  66.495  1.00  0.00    -0.151 OA 
BRANCH   4   9
HETATM    9  C   UNL     1      -9.610   8.626  68.742  1.00  0.00    -0.156 C  
HETATM   10  O   UNL     1      -8.526   7.691  68.605  1.00  0.00    -0.128 OA 
HETATM   11  H   UNL     1      -8.497   7.072  69.325  1.00  0.00     0.000 HD 
ENDBRANCH   4   9
ENDBRANCH   3   4
TORSDOF 2
ENDMDL
MODEL      164
REMARK 921   NORMALIZED FREE ENERGY PREDICTED BY IDOCK:   -1.59 KCAL/MOL
REMARK 922        TOTAL FREE ENERGY PREDICTED BY IDOCK:   -2.41 KCAL/MOL
REMARK 923 INTER-LIGAND FREE ENERGY PREDICTED BY IDOCK:   -2.00 KCAL/MOL
REMARK 924 INTRA-LIGAND FREE ENERGY PREDICTED BY IDOCK:   -0.41 KCAL/MOL
REMARK 927      BINDING AFFINITY PREDICTED BY RF-SCORE:    0.00 PKD
ROOT
HETATM    1  O   UNL     1     -10.415   7.264  66.499  1.00  0.00    -0.493 OA 
HETATM    2  H   UNL     1     -10.889   7.635  65.764  1.00  0.00     0.000 HD 
HETATM    3  C   UNL     1     -10.956   7.692  67.751  1.00  0.00     0.049 C  
ENDROOT
BRANCH   3   4
HETATM    4  C   UNL     1     -10.195   7.094  68.934  1.00  0.00    -0.186 C  
HETATM    5  N   UNL     1     -10.452   5.600  69.018  1.00  0.00    -0.244 N  
HETATM    6  O   UNL     1     -10.476   5.078  70.144  1.00  0.00    -0.267 OA 
HETATM    7 BR   UNL     1      -8.257   7.237  68.598  1.00  0.00    -0.126 Br 
HETATM    8  O   UNL     1     -10.569   4.970  67.956  1.00  0.00    -0.028 OA 
BRANCH   4   9
HETATM    9  C   UNL     1     -10.517   7.759  70.273  1.00  0.00    -0.225 C  
HETATM   10  O   UNL     1     -11.927   7.753  70.553  1.00  0.00    -0.481 OA 
HETATM   11  H   UNL     1     -12.127   8.166  71.384  1.00  0.00     0.000 HD 
ENDBRANCH   4   9
ENDBRANCH   3   4
TORSDOF 2
ENDMDL
MODEL      165
REMARK 921   NORMALIZED FREE ENERGY PREDICTED BY IDOCK:   -1.59 KCAL/MOL
REMARK 922        TOTAL FREE ENERGY PREDICTED BY IDOCK:   -2.41 KCAL/MOL
REMARK 923 INTER-LIGAND FREE ENERGY PREDICTED BY IDOCK:   -2.15 KCAL/MOL
REMARK 924 INTRA-LIGAND FREE ENERGY PREDICTED BY IDOCK:   -0.27 KCAL/MOL
REMARK 927      BINDING AFFINITY PREDICTED BY RF-SCORE:    0.00 PKD
ROOT
HETATM    1  O   UNL     1     -10.689   7.089  74.247  1.00  0.00    -0.523 OA 
HETATM    2  H   UNL     1     -10.368   7.450  75.065  1.00  0.00     0.000 HD 
HETATM    3  C   UNL     1      -9.624   6.801  73.339  1.00  0.00    -0.171 C  
ENDROOT
BRANCH   3   4
HETATM    4  C   UNL     1     -10.140   6.221  72.022  1.00  0.00    -0.183 C  
HETATM    5  N   UNL     1     -10.351   4.723  72.160  1.00  0.00    -0.197 N  
HETATM    6  O   UNL     1     -10.153   4.016  71.159  1.00  0.00    -0.158 OA 
HETATM    7 BR   UNL     1     -11.943   6.935  71.661  1.00  0.00    -0.400 Br 
HETATM    8  O   UNL     1     -10.762   4.292  73.247  1.00  0.00    -0.184 OA 
BRANCH   4   9
HETATM    9  C   UNL     1      -9.239   6.517  70.822  1.00  0.00    -0.155 C  
HETATM   10  O   UNL     1      -9.944   7.209  69.777  1.00  0.00    -0.175 OA 
HETATM   11  H   UNL     1      -9.385   7.393  69.032  1.00  0.00     0.000 HD 
ENDBRANCH   4   9
ENDBRANCH   3   4
TORSDOF 2
ENDMDL
MODEL      166
REMARK 921   NORMALIZED FREE ENERGY PREDICTED BY IDOCK:   -1.57 KCAL/MOL
REMARK 922        TOTAL FREE ENERGY PREDICTED BY IDOCK:   -2.39 KCAL/MOL
REMARK 923 INTER-LIGAND FREE ENERGY PREDICTED BY IDOCK:   -2.22 KCAL/MOL
REMARK 924 INTRA-LIGAND FREE ENERGY PREDICTED BY IDOCK:   -0.18 KCAL/MOL
REMARK 927      BINDING AFFINITY PREDICTED BY RF-SCORE:    0.00 PKD
ROOT
HETATM    1  O   UNL     1      -7.781   7.500  68.201  1.00  0.00    -0.114 OA 
HETATM    2  H   UNL     1      -6.862   7.535  68.441  1.00  0.00     0.000 HD 
HETATM    3  C   UNL     1      -8.247   6.155  68.078  1.00  0.00    -0.114 C  
ENDROOT
BRANCH   3   4
HETATM    4  C   UNL     1      -9.725   6.098  67.693  1.00  0.00    -0.116 C  
HETATM    5  N   UNL     1     -10.023   4.802  66.960  1.00  0.00    -0.202 N  
HETATM    6  O   UNL     1     -10.893   4.824  66.076  1.00  0.00    -0.287 OA 
HETATM    7 BR   UNL     1     -10.819   5.993  69.332  1.00  0.00    -0.445 Br 
HETATM    8  O   UNL     1      -9.422   3.779  67.320  1.00  0.00    -0.186 OA 
BRANCH   4   9
HETATM    9  C   UNL     1     -10.192   7.293  66.861  1.00  0.00    -0.269 C  
HETATM   10  O   UNL     1     -10.882   8.269  67.659  1.00  0.00    -0.483 OA 
HETATM   11  H   UNL     1     -11.172   9.012  67.143  1.00  0.00     0.000 HD 
ENDBRANCH   4   9
ENDBRANCH   3   4
TORSDOF 2
ENDMDL
MODEL      167
REMARK 921   NORMALIZED FREE ENERGY PREDICTED BY IDOCK:   -1.57 KCAL/MOL
REMARK 922        TOTAL FREE ENERGY PREDICTED BY IDOCK:   -2.39 KCAL/MOL
REMARK 923 INTER-LIGAND FREE ENERGY PREDICTED BY IDOCK:   -2.18 KCAL/MOL
REMARK 924 INTRA-LIGAND FREE ENERGY PREDICTED BY IDOCK:   -0.20 KCAL/MOL
REMARK 927      BINDING AFFINITY PREDICTED BY RF-SCORE:    0.00 PKD
ROOT
HETATM    1  O   UNL     1     -12.247   6.469  72.685  1.00  0.00    -0.501 OA 
HETATM    2  H   UNL     1     -12.764   6.261  73.454  1.00  0.00     0.000 HD 
HETATM    3  C   UNL     1     -10.851   6.526  72.982  1.00  0.00    -0.261 C  
ENDROOT
BRANCH   3   4
HETATM    4  C   UNL     1     -10.018   6.859  71.744  1.00  0.00    -0.173 C  
HETATM    5  N   UNL     1      -8.685   6.135  71.803  1.00  0.00    -0.137 N  
HETATM    6  O   UNL     1      -7.697   6.699  71.305  1.00  0.00    -0.092 OA 
HETATM    7 BR   UNL     1     -10.906   6.116  70.146  1.00  0.00    -0.428 Br 
HETATM    8  O   UNL     1      -8.662   4.997  72.294  1.00  0.00    -0.123 OA 
BRANCH   4   9
HETATM    9  C   UNL     1      -9.795   8.358  71.536  1.00  0.00    -0.208 C  
HETATM   10  O   UNL     1     -11.030   9.062  71.324  1.00  0.00    -0.261 OA 
HETATM   11  H   UNL     1     -10.892   9.992  71.195  1.00  0.00     0.000 HD 
ENDBRANCH   4   9
ENDBRANCH   3   4
TORSDOF 2
ENDMDL
MODEL      168
REMARK 921   NORMALIZED FREE ENERGY PREDICTED BY IDOCK:   -1.56 KCAL/MOL
REMARK 922        TOTAL FREE ENERGY PREDICTED BY IDOCK:   -2.37 KCAL/MOL
REMARK 923 INTER-LIGAND FREE ENERGY PREDICTED BY IDOCK:   -1.93 KCAL/MOL
REMARK 924 INTRA-LIGAND FREE ENERGY PREDICTED BY IDOCK:   -0.44 KCAL/MOL
REMARK 927      BINDING AFFINITY PREDICTED BY RF-SCORE:    0.00 PKD
ROOT
HETATM    1  O   UNL     1     -10.766   7.334  66.914  1.00  0.00    -0.395 OA 
HETATM    2  H   UNL     1     -11.455   7.187  66.276  1.00  0.00     0.000 HD 
HETATM    3  C   UNL     1     -10.531   8.726  67.131  1.00  0.00    -0.283 C  
ENDROOT
BRANCH   3   4
HETATM    4  C   UNL     1      -9.424   8.963  68.159  1.00  0.00    -0.143 C  
HETATM    5  N   UNL     1      -9.963   8.758  69.563  1.00  0.00    -0.190 N  
HETATM    6  O   UNL     1      -9.488   9.455  70.473  1.00  0.00    -0.240 OA 
HETATM    7 BR   UNL     1      -8.043   7.568  67.958  1.00  0.00    -0.124 Br 
HETATM    8  O   UNL     1     -10.808   7.868  69.736  1.00  0.00    -0.249 OA 
BRANCH   4   9
HETATM    9  C   UNL     1      -8.761  10.337  68.045  1.00  0.00    -0.122 C  
HETATM   10  O   UNL     1      -9.629  11.393  68.489  1.00  0.00    -0.185 OA 
HETATM   11  H   UNL     1      -9.218  12.245  68.419  1.00  0.00     0.000 HD 
ENDBRANCH   4   9
ENDBRANCH   3   4
TORSDOF 2
ENDMDL
MODEL      169
REMARK 921   NORMALIZED FREE ENERGY PREDICTED BY IDOCK:   -1.53 KCAL/MOL
REMARK 922        TOTAL FREE ENERGY PREDICTED BY IDOCK:   -2.34 KCAL/MOL
REMARK 923 INTER-LIGAND FREE ENERGY PREDICTED BY IDOCK:   -1.90 KCAL/MOL
REMARK 924 INTRA-LIGAND FREE ENERGY PREDICTED BY IDOCK:   -0.44 KCAL/MOL
REMARK 927      BINDING AFFINITY PREDICTED BY RF-SCORE:    0.00 PKD
ROOT
HETATM    1  O   UNL     1      -7.112  10.738  70.508  1.00  0.00    -0.471 OA 
HETATM    2  H   UNL     1      -6.378  10.943  71.074  1.00  0.00     0.000 HD 
HETATM    3  C   UNL     1      -6.905  11.210  69.175  1.00  0.00    -0.102 C  
ENDROOT
BRANCH   3   4
HETATM    4  C   UNL     1      -8.087  10.880  68.264  1.00  0.00    -0.124 C  
HETATM    5  N   UNL     1      -8.789  12.156  67.838  1.00  0.00    -0.169 N  
HETATM    6  O   UNL     1     -10.017  12.111  67.662  1.00  0.00    -0.191 OA 
HETATM    7 BR   UNL     1      -7.410  10.110  66.578  1.00  0.00    -0.113 Br 
HETATM    8  O   UNL     1      -8.094  13.162  67.634  1.00  0.00    -0.149 OA 
BRANCH   4   9
HETATM    9  C   UNL     1      -9.091   9.907  68.884  1.00  0.00    -0.156 C  
HETATM   10  O   UNL     1      -9.903  10.539  69.888  1.00  0.00    -0.420 OA 
HETATM   11  H   UNL     1     -10.527   9.936  70.274  1.00  0.00     0.000 HD 
ENDBRANCH   4   9
ENDBRANCH   3   4
TORSDOF 2
ENDMDL
MODEL      170
REMARK 921   NORMALIZED FREE ENERGY PREDICTED BY IDOCK:   -1.52 KCAL/MOL
REMARK 922        TOTAL FREE ENERGY PREDICTED BY IDOCK:   -2.33 KCAL/MOL
REMARK 923 INTER-LIGAND FREE ENERGY PREDICTED BY IDOCK:   -2.09 KCAL/MOL
REMARK 924 INTRA-LIGAND FREE ENERGY PREDICTED BY IDOCK:   -0.24 KCAL/MOL
REMARK 927      BINDING AFFINITY PREDICTED BY RF-SCORE:    0.00 PKD
ROOT
HETATM    1  O   UNL     1     -10.460   7.244  67.053  1.00  0.00    -0.278 OA 
HETATM    2  H   UNL     1     -10.834   6.771  66.319  1.00  0.00     0.000 HD 
HETATM    3  C   UNL     1     -10.632   8.656  66.919  1.00  0.00    -0.200 C  
ENDROOT
BRANCH   3   4
HETATM    4  C   UNL     1     -10.031   9.418  68.100  1.00  0.00    -0.175 C  
HETATM    5  N   UNL     1     -10.677  10.786  68.222  1.00  0.00    -0.196 N  
HETATM    6  O   UNL     1      -9.978  11.723  68.638  1.00  0.00    -0.212 OA 
HETATM    7 BR   UNL     1     -10.514   8.500  69.778  1.00  0.00    -0.220 Br 
HETATM    8  O   UNL     1     -11.884  10.885  67.952  1.00  0.00    -0.590 OA 
BRANCH   4   9
HETATM    9  C   UNL     1      -8.509   9.559  68.032  1.00  0.00    -0.119 C  
HETATM   10  O   UNL     1      -7.871   8.329  67.652  1.00  0.00    -0.104 OA 
HETATM   11  H   UNL     1      -6.926   8.415  67.610  1.00  0.00     0.000 HD 
ENDBRANCH   4   9
ENDBRANCH   3   4
TORSDOF 2
ENDMDL
MODEL      171
REMARK 921   NORMALIZED FREE ENERGY PREDICTED BY IDOCK:   -1.51 KCAL/MOL
REMARK 922        TOTAL FREE ENERGY PREDICTED BY IDOCK:   -2.32 KCAL/MOL
REMARK 923 INTER-LIGAND FREE ENERGY PREDICTED BY IDOCK:   -1.62 KCAL/MOL
REMARK 924 INTRA-LIGAND FREE ENERGY PREDICTED BY IDOCK:   -0.70 KCAL/MOL
REMARK 927      BINDING AFFINITY PREDICTED BY RF-SCORE:    0.00 PKD
ROOT
HETATM    1  O   UNL     1      -6.967   7.278  67.798  1.00  0.00    -0.071 OA 
HETATM    2  H   UNL     1      -6.147   6.823  67.944  1.00  0.00     0.000 HD 
HETATM    3  C   UNL     1      -8.067   6.605  68.413  1.00  0.00    -0.115 C  
ENDROOT
BRANCH   3   4
HETATM    4  C   UNL     1      -9.388   7.338  68.178  1.00  0.00    -0.131 C  
HETATM    5  N   UNL     1      -9.552   7.655  66.703  1.00  0.00    -0.201 N  
HETATM    6  O   UNL     1     -10.149   8.699  66.398  1.00  0.00    -0.284 OA 
HETATM    7 BR   UNL     1     -10.886   6.121  68.585  1.00  0.00    -0.413 Br 
HETATM    8  O   UNL     1      -9.131   6.829  65.880  1.00  0.00    -0.122 OA 
BRANCH   4   9
HETATM    9  C   UNL     1      -9.543   8.611  69.011  1.00  0.00    -0.163 C  
HETATM   10  O   UNL     1      -8.563   9.605  68.664  1.00  0.00    -0.116 OA 
HETATM   11  H   UNL     1      -8.659  10.395  69.181  1.00  0.00     0.000 HD 
ENDBRANCH   4   9
ENDBRANCH   3   4
TORSDOF 2
ENDMDL
MODEL      172
REMARK 921   NORMALIZED FREE ENERGY PREDICTED BY IDOCK:   -1.47 KCAL/MOL
REMARK 922        TOTAL FREE ENERGY PREDICTED BY IDOCK:   -2.28 KCAL/MOL
REMARK 923 INTER-LIGAND FREE ENERGY PREDICTED BY IDOCK:   -1.84 KCAL/MOL
REMARK 924 INTRA-LIGAND FREE ENERGY PREDICTED BY IDOCK:   -0.44 KCAL/MOL
REMARK 927      BINDING AFFINITY PREDICTED BY RF-SCORE:    0.00 PKD
ROOT
HETATM    1  O   UNL     1      -7.763   7.559  67.876  1.00  0.00    -0.111 OA 
HETATM    2  H   UNL     1      -6.879   7.324  67.619  1.00  0.00     0.000 HD 
HETATM    3  C   UNL     1      -7.940   7.491  69.292  1.00  0.00    -0.121 C  
ENDROOT
BRANCH   3   4
HETATM    4  C   UNL     1      -9.362   7.870  69.707  1.00  0.00    -0.153 C  
HETATM    5  N   UNL     1     -10.180   6.618  69.967  1.00  0.00    -0.183 N  
HETATM    6  O   UNL     1     -11.392   6.652  69.702  1.00  0.00    -0.335 OA 
HETATM    7 BR   UNL     1      -9.306   8.786  71.454  1.00  0.00    -0.340 Br 
HETATM    8  O   UNL     1      -9.607   5.645  70.481  1.00  0.00    -0.165 OA 
BRANCH   4   9
HETATM    9  C   UNL     1     -10.080   8.768  68.699  1.00  0.00    -0.189 C  
HETATM   10  O   UNL     1     -10.521   8.036  67.544  1.00  0.00    -0.244 OA 
HETATM   11  H   UNL     1     -10.967   8.593  66.917  1.00  0.00     0.000 HD 
ENDBRANCH   4   9
ENDBRANCH   3   4
TORSDOF 2
ENDMDL
MODEL      173
REMARK 921   NORMALIZED FREE ENERGY PREDICTED BY IDOCK:   -1.46 KCAL/MOL
REMARK 922        TOTAL FREE ENERGY PREDICTED BY IDOCK:   -2.27 KCAL/MOL
REMARK 923 INTER-LIGAND FREE ENERGY PREDICTED BY IDOCK:   -2.03 KCAL/MOL
REMARK 924 INTRA-LIGAND FREE ENERGY PREDICTED BY IDOCK:   -0.24 KCAL/MOL
REMARK 927      BINDING AFFINITY PREDICTED BY RF-SCORE:    0.00 PKD
ROOT
HETATM    1  O   UNL     1     -11.108  12.081  66.055  1.00  0.00    -0.296 OA 
HETATM    2  H   UNL     1     -11.417  12.865  65.616  1.00  0.00     0.000 HD 
HETATM    3  C   UNL     1      -9.727  12.179  66.410  1.00  0.00    -0.231 C  
ENDROOT
BRANCH   3   4
HETATM    4  C   UNL     1      -9.230  10.919  67.117  1.00  0.00    -0.148 C  
HETATM    5  N   UNL     1      -9.675  10.925  68.569  1.00  0.00    -0.176 N  
HETATM    6  O   UNL     1      -8.925  10.402  69.407  1.00  0.00    -0.194 OA 
HETATM    7 BR   UNL     1     -10.126   9.342  66.340  1.00  0.00    -0.304 Br 
HETATM    8  O   UNL     1     -10.789  11.403  68.833  1.00  0.00    -0.196 OA 
BRANCH   4   9
HETATM    9  C   UNL     1      -7.716  10.721  67.032  1.00  0.00    -0.121 C  
HETATM   10  O   UNL     1      -7.184  11.163  65.772  1.00  0.00    -0.361 OA 
HETATM   11  H   UNL     1      -6.244  11.041  65.719  1.00  0.00     0.000 HD 
ENDBRANCH   4   9
ENDBRANCH   3   4
TORSDOF 2
ENDMDL
MODEL      174
REMARK 921   NORMALIZED FREE ENERGY PREDICTED BY IDOCK:   -1.46 KCAL/MOL
REMARK 922        TOTAL FREE ENERGY PREDICTED BY IDOCK:   -2.26 KCAL/MOL
REMARK 923 INTER-LIGAND FREE ENERGY PREDICTED BY IDOCK:   -2.05 KCAL/MOL
REMARK 924 INTRA-LIGAND FREE ENERGY PREDICTED BY IDOCK:   -0.22 KCAL/MOL
REMARK 927      BINDING AFFINITY PREDICTED BY RF-SCORE:    0.00 PKD
ROOT
HETATM    1  O   UNL     1     -11.139  11.816  66.105  1.00  0.00    -0.300 OA 
HETATM    2  H   UNL     1     -11.386  12.621  65.665  1.00  0.00     0.000 HD 
HETATM    3  C   UNL     1      -9.757  11.809  66.467  1.00  0.00    -0.206 C  
ENDROOT
BRANCH   3   4
HETATM    4  C   UNL     1      -9.360  10.515  67.177  1.00  0.00    -0.154 C  
HETATM    5  N   UNL     1      -8.231   9.833  66.425  1.00  0.00    -0.119 N  
HETATM    6  O   UNL     1      -8.195   8.593  66.434  1.00  0.00    -0.107 OA 
HETATM    7 BR   UNL     1      -8.581  10.952  68.936  1.00  0.00    -0.110 Br 
HETATM    8  O   UNL     1      -7.373  10.551  65.890  1.00  0.00    -0.137 OA 
BRANCH   4   9
HETATM    9  C   UNL     1     -10.522   9.541  67.377  1.00  0.00    -0.272 C  
HETATM   10  O   UNL     1     -11.560  10.102  68.198  1.00  0.00    -0.641 OA 
HETATM   11  H   UNL     1     -12.282   9.498  68.323  1.00  0.00     0.000 HD 
ENDBRANCH   4   9
ENDBRANCH   3   4
TORSDOF 2
ENDMDL
MODEL      175
REMARK 921   NORMALIZED FREE ENERGY PREDICTED BY IDOCK:   -1.45 KCAL/MOL
REMARK 922        TOTAL FREE ENERGY PREDICTED BY IDOCK:   -2.26 KCAL/MOL
REMARK 923 INTER-LIGAND FREE ENERGY PREDICTED BY IDOCK:   -1.56 KCAL/MOL
REMARK 924 INTRA-LIGAND FREE ENERGY PREDICTED BY IDOCK:   -0.70 KCAL/MOL
REMARK 927      BINDING AFFINITY PREDICTED BY RF-SCORE:    0.00 PKD
ROOT
HETATM    1  O   UNL     1      -8.088  10.842  69.630  1.00  0.00    -0.368 OA 
HETATM    2  H   UNL     1      -7.651  11.560  70.072  1.00  0.00     0.000 HD 
HETATM    3  C   UNL     1      -7.853  10.863  68.220  1.00  0.00    -0.118 C  
ENDROOT
BRANCH   3   4
HETATM    4  C   UNL     1      -8.556   9.708  67.508  1.00  0.00    -0.126 C  
HETATM    5  N   UNL     1     -10.000   9.614  67.966  1.00  0.00    -0.154 N  
HETATM    6  O   UNL     1     -10.518   8.488  68.022  1.00  0.00    -0.221 OA 
HETATM    7 BR   UNL     1      -8.681  10.113  65.581  1.00  0.00    -0.186 Br 
HETATM    8  O   UNL     1     -10.603  10.670  68.207  1.00  0.00    -0.171 OA 
BRANCH   4   9
HETATM    9  C   UNL     1      -7.858   8.358  67.687  1.00  0.00    -0.107 C  
HETATM   10  O   UNL     1      -7.829   7.945  69.063  1.00  0.00    -0.106 OA 
HETATM   11  H   UNL     1      -7.396   7.107  69.174  1.00  0.00     0.000 HD 
ENDBRANCH   4   9
ENDBRANCH   3   4
TORSDOF 2
ENDMDL
MODEL      176
REMARK 921   NORMALIZED FREE ENERGY PREDICTED BY IDOCK:   -1.44 KCAL/MOL
REMARK 922        TOTAL FREE ENERGY PREDICTED BY IDOCK:   -2.24 KCAL/MOL
REMARK 923 INTER-LIGAND FREE ENERGY PREDICTED BY IDOCK:   -1.55 KCAL/MOL
REMARK 924 INTRA-LIGAND FREE ENERGY PREDICTED BY IDOCK:   -0.70 KCAL/MOL
REMARK 927      BINDING AFFINITY PREDICTED BY RF-SCORE:    0.00 PKD
ROOT
HETATM    1  O   UNL     1      -9.937   5.031  67.947  1.00  0.00    -0.156 OA 
HETATM    2  H   UNL     1     -10.245   4.969  67.051  1.00  0.00     0.000 HD 
HETATM    3  C   UNL     1     -10.735   5.928  68.723  1.00  0.00    -0.284 C  
ENDROOT
BRANCH   3   4
HETATM    4  C   UNL     1     -10.241   6.028  70.165  1.00  0.00    -0.208 C  
HETATM    5  N   UNL     1      -8.769   6.401  70.187  1.00  0.00    -0.138 N  
HETATM    6  O   UNL     1      -8.070   5.946  71.106  1.00  0.00    -0.117 OA 
HETATM    7 BR   UNL     1     -11.140   7.541  71.056  1.00  0.00    -0.286 Br 
HETATM    8  O   UNL     1      -8.355   7.184  69.320  1.00  0.00    -0.130 OA 
BRANCH   4   9
HETATM    9  C   UNL     1     -10.474   4.759  70.987  1.00  0.00    -0.044 C  
HETATM   10  O   UNL     1      -9.695   3.653  70.503  1.00  0.00    -0.186 OA 
HETATM   11  H   UNL     1      -9.839   2.865  71.013  1.00  0.00     0.000 HD 
ENDBRANCH   4   9
ENDBRANCH   3   4
TORSDOF 2
ENDMDL
MODEL      177
REMARK 921   NORMALIZED FREE ENERGY PREDICTED BY IDOCK:   -1.44 KCAL/MOL
REMARK 922        TOTAL FREE ENERGY PREDICTED BY IDOCK:   -2.24 KCAL/MOL
REMARK 923 INTER-LIGAND FREE ENERGY PREDICTED BY IDOCK:   -1.56 KCAL/MOL
REMARK 924 INTRA-LIGAND FREE ENERGY PREDICTED BY IDOCK:   -0.68 KCAL/MOL
REMARK 927      BINDING AFFINITY PREDICTED BY RF-SCORE:    0.00 PKD
ROOT
HETATM    1  O   UNL     1     -10.712   4.099  65.410  1.00  0.00    -0.503 OA 
HETATM    2  H   UNL     1     -11.466   3.524  65.474  1.00  0.00     0.000 HD 
HETATM    3  C   UNL     1      -9.501   3.426  65.759  1.00  0.00    -0.116 C  
ENDROOT
BRANCH   3   4
HETATM    4  C   UNL     1      -8.287   4.350  65.656  1.00  0.00    -0.114 C  
HETATM    5  N   UNL     1      -8.504   5.592  66.501  1.00  0.00    -0.112 N  
HETATM    6  O   UNL     1      -8.009   6.658  66.103  1.00  0.00    -0.102 OA 
HETATM    7 BR   UNL     1      -6.727   3.466  66.479  1.00  0.00    -0.053 Br 
HETATM    8  O   UNL     1      -9.115   5.466  67.573  1.00  0.00    -0.109 OA 
BRANCH   4   9
HETATM    9  C   UNL     1      -7.932   4.745  64.221  1.00  0.00    -0.101 C  
HETATM   10  O   UNL     1      -9.018   5.420  63.564  1.00  0.00    -0.346 OA 
HETATM   11  H   UNL     1      -8.799   5.665  62.674  1.00  0.00     0.000 HD 
ENDBRANCH   4   9
ENDBRANCH   3   4
TORSDOF 2
ENDMDL
MODEL      178
REMARK 921   NORMALIZED FREE ENERGY PREDICTED BY IDOCK:   -1.40 KCAL/MOL
REMARK 922        TOTAL FREE ENERGY PREDICTED BY IDOCK:   -2.20 KCAL/MOL
REMARK 923 INTER-LIGAND FREE ENERGY PREDICTED BY IDOCK:   -1.99 KCAL/MOL
REMARK 924 INTRA-LIGAND FREE ENERGY PREDICTED BY IDOCK:   -0.21 KCAL/MOL
REMARK 927      BINDING AFFINITY PREDICTED BY RF-SCORE:    0.00 PKD
ROOT
HETATM    1  O   UNL     1      -7.055  17.365  69.190  1.00  0.00    -0.245 OA 
HETATM    2  H   UNL     1      -7.169  17.165  70.112  1.00  0.00     0.000 HD 
HETATM    3  C   UNL     1      -7.294  18.746  68.912  1.00  0.00    -0.294 C  
ENDROOT
BRANCH   3   4
HETATM    4  C   UNL     1      -7.111  19.069  67.429  1.00  0.00    -0.212 C  
HETATM    5  N   UNL     1      -8.032  20.206  67.026  1.00  0.00    -0.311 N  
HETATM    6  O   UNL     1      -8.488  20.200  65.872  1.00  0.00    -0.265 OA 
HETATM    7 BR   UNL     1      -5.296  19.786  67.141  1.00  0.00    -0.163 Br 
HETATM    8  O   UNL     1      -8.236  21.109  67.850  1.00  0.00     0.154 OA 
BRANCH   4   9
HETATM    9  C   UNL     1      -7.322  17.867  66.506  1.00  0.00    -0.244 C  
HETATM   10  O   UNL     1      -6.857  18.125  65.171  1.00  0.00    -0.414 OA 
HETATM   11  H   UNL     1      -6.987  17.380  64.598  1.00  0.00     0.000 HD 
ENDBRANCH   4   9
ENDBRANCH   3   4
TORSDOF 2
ENDMDL
MODEL      179
REMARK 921   NORMALIZED FREE ENERGY PREDICTED BY IDOCK:   -1.39 KCAL/MOL
REMARK 922        TOTAL FREE ENERGY PREDICTED BY IDOCK:   -2.18 KCAL/MOL
REMARK 923 INTER-LIGAND FREE ENERGY PREDICTED BY IDOCK:   -1.92 KCAL/MOL
REMARK 924 INTRA-LIGAND FREE ENERGY PREDICTED BY IDOCK:   -0.26 KCAL/MOL
REMARK 927      BINDING AFFINITY PREDICTED BY RF-SCORE:    0.00 PKD
ROOT
HETATM    1  O   UNL     1     -10.007   4.727  67.841  1.00  0.00    -0.152 OA 
HETATM    2  H   UNL     1     -10.396   4.447  67.021  1.00  0.00     0.000 HD 
HETATM    3  C   UNL     1     -10.784   5.744  68.478  1.00  0.00    -0.217 C  
ENDROOT
BRANCH   3   4
HETATM    4  C   UNL     1     -10.160   6.194  69.798  1.00  0.00    -0.181 C  
HETATM    5  N   UNL     1     -11.162   7.007  70.598  1.00  0.00    -0.274 N  
HETATM    6  O   UNL     1     -10.727   7.925  71.310  1.00  0.00    -0.225 OA 
HETATM    7 BR   UNL     1      -9.807   4.612  70.922  1.00  0.00    -0.271 Br 
HETATM    8  O   UNL     1     -12.356   6.676  70.542  1.00  0.00    -0.314 OA 
BRANCH   4   9
HETATM    9  C   UNL     1      -8.859   6.982  69.628  1.00  0.00    -0.141 C  
HETATM   10  O   UNL     1      -9.070   8.229  68.945  1.00  0.00    -0.146 OA 
HETATM   11  H   UNL     1      -8.263   8.718  68.839  1.00  0.00     0.000 HD 
ENDBRANCH   4   9
ENDBRANCH   3   4
TORSDOF 2
ENDMDL
MODEL      180
REMARK 921   NORMALIZED FREE ENERGY PREDICTED BY IDOCK:   -1.33 KCAL/MOL
REMARK 922        TOTAL FREE ENERGY PREDICTED BY IDOCK:   -2.12 KCAL/MOL
REMARK 923 INTER-LIGAND FREE ENERGY PREDICTED BY IDOCK:   -1.67 KCAL/MOL
REMARK 924 INTRA-LIGAND FREE ENERGY PREDICTED BY IDOCK:   -0.45 KCAL/MOL
REMARK 927      BINDING AFFINITY PREDICTED BY RF-SCORE:    0.00 PKD
ROOT
HETATM    1  O   UNL     1     -10.910   9.912  67.251  1.00  0.00    -0.267 OA 
HETATM    2  H   UNL     1     -10.856  10.545  66.545  1.00  0.00     0.000 HD 
HETATM    3  C   UNL     1      -9.628   9.635  67.818  1.00  0.00    -0.139 C  
ENDROOT
BRANCH   3   4
HETATM    4  C   UNL     1      -9.716   8.616  68.954  1.00  0.00    -0.170 C  
HETATM    5  N   UNL     1     -10.704   7.520  68.597  1.00  0.00    -0.132 N  
HETATM    6  O   UNL     1     -11.359   7.008  69.518  1.00  0.00    -0.189 OA 
HETATM    7 BR   UNL     1      -7.988   7.679  69.120  1.00  0.00    -0.122 Br 
HETATM    8  O   UNL     1     -10.765   7.156  67.413  1.00  0.00    -0.265 OA 
BRANCH   4   9
HETATM    9  C   UNL     1     -10.078   9.231  70.307  1.00  0.00    -0.219 C  
HETATM   10  O   UNL     1      -9.642   8.412  71.405  1.00  0.00    -0.163 OA 
HETATM   11  H   UNL     1      -9.867   8.794  72.245  1.00  0.00     0.000 HD 
ENDBRANCH   4   9
ENDBRANCH   3   4
TORSDOF 2
ENDMDL
MODEL      181
REMARK 921   NORMALIZED FREE ENERGY PREDICTED BY IDOCK:   -1.33 KCAL/MOL
REMARK 922        TOTAL FREE ENERGY PREDICTED BY IDOCK:   -2.12 KCAL/MOL
REMARK 923 INTER-LIGAND FREE ENERGY PREDICTED BY IDOCK:   -1.66 KCAL/MOL
REMARK 924 INTRA-LIGAND FREE ENERGY PREDICTED BY IDOCK:   -0.45 KCAL/MOL
REMARK 927      BINDING AFFINITY PREDICTED BY RF-SCORE:    0.00 PKD
ROOT
HETATM    1  O   UNL     1      -6.022  11.414  67.645  1.00  0.00    -0.047 OA 
HETATM    2  H   UNL     1      -5.167  11.821  67.717  1.00  0.00     0.000 HD 
HETATM    3  C   UNL     1      -6.996  12.313  67.109  1.00  0.00    -0.102 C  
ENDROOT
BRANCH   3   4
HETATM    4  C   UNL     1      -8.372  11.658  66.994  1.00  0.00    -0.169 C  
HETATM    5  N   UNL     1      -8.409  10.731  65.792  1.00  0.00    -0.166 N  
HETATM    6  O   UNL     1      -9.484  10.615  65.183  1.00  0.00    -0.194 OA 
HETATM    7 BR   UNL     1      -8.655  10.465  68.539  1.00  0.00    -0.141 Br 
HETATM    8  O   UNL     1      -7.381  10.096  65.516  1.00  0.00    -0.130 OA 
BRANCH   4   9
HETATM    9  C   UNL     1      -9.527  12.659  66.922  1.00  0.00    -0.229 C  
HETATM   10  O   UNL     1      -9.503  13.423  65.705  1.00  0.00    -0.485 OA 
HETATM   11  H   UNL     1     -10.219  14.044  65.660  1.00  0.00     0.000 HD 
ENDBRANCH   4   9
ENDBRANCH   3   4
TORSDOF 2
ENDMDL
MODEL      182
REMARK 921   NORMALIZED FREE ENERGY PREDICTED BY IDOCK:   -1.32 KCAL/MOL
REMARK 922        TOTAL FREE ENERGY PREDICTED BY IDOCK:   -2.11 KCAL/MOL
REMARK 923 INTER-LIGAND FREE ENERGY PREDICTED BY IDOCK:   -1.65 KCAL/MOL
REMARK 924 INTRA-LIGAND FREE ENERGY PREDICTED BY IDOCK:   -0.46 KCAL/MOL
REMARK 927      BINDING AFFINITY PREDICTED BY RF-SCORE:    0.00 PKD
ROOT
HETATM    1  O   UNL     1      -9.069   4.348  73.396  1.00  0.00    -0.110 OA 
HETATM    2  H   UNL     1      -9.009   3.463  73.734  1.00  0.00     0.000 HD 
HETATM    3  C   UNL     1      -9.944   4.429  72.269  1.00  0.00    -0.177 C  
ENDROOT
BRANCH   3   4
HETATM    4  C   UNL     1     -10.042   5.855  71.725  1.00  0.00    -0.187 C  
HETATM    5  N   UNL     1      -9.811   5.857  70.225  1.00  0.00    -0.178 N  
HETATM    6  O   UNL     1      -9.251   6.845  69.726  1.00  0.00    -0.147 OA 
HETATM    7 BR   UNL     1     -11.893   6.504  71.935  1.00  0.00    -0.384 Br 
HETATM    8  O   UNL     1     -10.243   4.897  69.569  1.00  0.00    -0.234 OA 
BRANCH   4   9
HETATM    9  C   UNL     1      -9.090   6.841  72.405  1.00  0.00    -0.134 C  
HETATM   10  O   UNL     1      -7.713   6.545  72.120  1.00  0.00    -0.096 OA 
HETATM   11  H   UNL     1      -7.122   7.156  72.542  1.00  0.00     0.000 HD 
ENDBRANCH   4   9
ENDBRANCH   3   4
TORSDOF 2
ENDMDL
MODEL      183
REMARK 921   NORMALIZED FREE ENERGY PREDICTED BY IDOCK:   -1.32 KCAL/MOL
REMARK 922        TOTAL FREE ENERGY PREDICTED BY IDOCK:   -2.11 KCAL/MOL
REMARK 923 INTER-LIGAND FREE ENERGY PREDICTED BY IDOCK:   -1.84 KCAL/MOL
REMARK 924 INTRA-LIGAND FREE ENERGY PREDICTED BY IDOCK:   -0.27 KCAL/MOL
REMARK 927      BINDING AFFINITY PREDICTED BY RF-SCORE:    0.00 PKD
ROOT
HETATM    1  O   UNL     1      -8.327   8.769  68.033  1.00  0.00    -0.117 OA 
HETATM    2  H   UNL     1      -8.039   8.358  68.840  1.00  0.00     0.000 HD 
HETATM    3  C   UNL     1      -8.185  10.190  68.080  1.00  0.00    -0.113 C  
ENDROOT
BRANCH   3   4
HETATM    4  C   UNL     1      -8.648  10.852  66.783  1.00  0.00    -0.137 C  
HETATM    5  N   UNL     1     -10.064  10.416  66.452  1.00  0.00    -0.220 N  
HETATM    6  O   UNL     1     -10.372  10.309  65.254  1.00  0.00    -0.278 OA 
HETATM    7 BR   UNL     1      -8.792  12.800  67.064  1.00  0.00    -0.196 Br 
HETATM    8  O   UNL     1     -10.854  10.242  67.392  1.00  0.00    -0.279 OA 
BRANCH   4   9
HETATM    9  C   UNL     1      -7.724  10.590  65.592  1.00  0.00    -0.139 C  
HETATM   10  O   UNL     1      -6.437  11.206  65.763  1.00  0.00    -0.357 OA 
HETATM   11  H   UNL     1      -5.863  11.043  65.025  1.00  0.00     0.000 HD 
ENDBRANCH   4   9
ENDBRANCH   3   4
TORSDOF 2
ENDMDL
MODEL      184
REMARK 921   NORMALIZED FREE ENERGY PREDICTED BY IDOCK:   -1.31 KCAL/MOL
REMARK 922        TOTAL FREE ENERGY PREDICTED BY IDOCK:   -2.10 KCAL/MOL
REMARK 923 INTER-LIGAND FREE ENERGY PREDICTED BY IDOCK:   -1.65 KCAL/MOL
REMARK 924 INTRA-LIGAND FREE ENERGY PREDICTED BY IDOCK:   -0.45 KCAL/MOL
REMARK 927      BINDING AFFINITY PREDICTED BY RF-SCORE:    0.00 PKD
ROOT
HETATM    1  O   UNL     1      -8.263   3.203  70.876  1.00  0.00    -0.056 OA 
HETATM    2  H   UNL     1      -7.436   2.997  70.458  1.00  0.00     0.000 HD 
HETATM    3  C   UNL     1      -8.225   4.470  71.536  1.00  0.00    -0.101 C  
ENDROOT
BRANCH   3   4
HETATM    4  C   UNL     1      -9.557   4.802  72.208  1.00  0.00    -0.150 C  
HETATM    5  N   UNL     1     -10.546   5.320  71.180  1.00  0.00    -0.208 N  
HETATM    6  O   UNL     1     -11.368   6.174  71.545  1.00  0.00    -0.284 OA 
HETATM    7 BR   UNL     1     -10.378   3.138  72.879  1.00  0.00    -0.240 Br 
HETATM    8  O   UNL     1     -10.516   4.824  70.044  1.00  0.00    -0.194 OA 
BRANCH   4   9
HETATM    9  C   UNL     1      -9.432   5.795  73.365  1.00  0.00    -0.138 C  
HETATM   10  O   UNL     1     -10.527   5.685  74.290  1.00  0.00    -0.274 OA 
HETATM   11  H   UNL     1     -10.450   6.301  75.008  1.00  0.00     0.000 HD 
ENDBRANCH   4   9
ENDBRANCH   3   4
TORSDOF 2
ENDMDL
MODEL      185
REMARK 921   NORMALIZED FREE ENERGY PREDICTED BY IDOCK:   -1.27 KCAL/MOL
REMARK 922        TOTAL FREE ENERGY PREDICTED BY IDOCK:   -2.05 KCAL/MOL
REMARK 923 INTER-LIGAND FREE ENERGY PREDICTED BY IDOCK:   -1.41 KCAL/MOL
REMARK 924 INTRA-LIGAND FREE ENERGY PREDICTED BY IDOCK:   -0.64 KCAL/MOL
REMARK 927      BINDING AFFINITY PREDICTED BY RF-SCORE:    0.00 PKD
ROOT
HETATM    1  O   UNL     1      -9.406   4.966  71.447  1.00  0.00    -0.141 OA 
HETATM    2  H   UNL     1      -9.144   4.081  71.673  1.00  0.00     0.000 HD 
HETATM    3  C   UNL     1      -8.281   5.788  71.128  1.00  0.00    -0.122 C  
ENDROOT
BRANCH   3   4
HETATM    4  C   UNL     1      -8.702   7.212  70.763  1.00  0.00    -0.147 C  
HETATM    5  N   UNL     1      -9.355   7.885  71.957  1.00  0.00    -0.151 N  
HETATM    6  O   UNL     1     -10.262   8.702  71.736  1.00  0.00    -0.251 OA 
HETATM    7 BR   UNL     1      -7.090   8.295  70.415  1.00  0.00    -0.038 Br 
HETATM    8  O   UNL     1      -8.912   7.624  73.085  1.00  0.00    -0.152 OA 
BRANCH   4   9
HETATM    9  C   UNL     1      -9.624   7.289  69.545  1.00  0.00    -0.155 C  
HETATM   10  O   UNL     1     -10.925   6.742  69.819  1.00  0.00    -0.257 OA 
HETATM   11  H   UNL     1     -11.497   6.790  69.063  1.00  0.00     0.000 HD 
ENDBRANCH   4   9
ENDBRANCH   3   4
TORSDOF 2
ENDMDL
MODEL      186
REMARK 921   NORMALIZED FREE ENERGY PREDICTED BY IDOCK:   -1.27 KCAL/MOL
REMARK 922        TOTAL FREE ENERGY PREDICTED BY IDOCK:   -2.05 KCAL/MOL
REMARK 923 INTER-LIGAND FREE ENERGY PREDICTED BY IDOCK:   -1.36 KCAL/MOL
REMARK 924 INTRA-LIGAND FREE ENERGY PREDICTED BY IDOCK:   -0.69 KCAL/MOL
REMARK 927      BINDING AFFINITY PREDICTED BY RF-SCORE:    0.00 PKD
ROOT
HETATM    1  O   UNL     1     -10.250   6.299  68.166  1.00  0.00    -0.141 OA 
HETATM    2  H   UNL     1     -10.302   6.287  67.218  1.00  0.00     0.000 HD 
HETATM    3  C   UNL     1      -9.108   7.024  68.627  1.00  0.00    -0.132 C  
ENDROOT
BRANCH   3   4
HETATM    4  C   UNL     1      -9.024   7.043  70.154  1.00  0.00    -0.145 C  
HETATM    5  N   UNL     1      -9.299   5.657  70.708  1.00  0.00    -0.160 N  
HETATM    6  O   UNL     1      -9.872   5.575  71.806  1.00  0.00    -0.164 OA 
HETATM    7 BR   UNL     1      -7.167   7.426  70.696  1.00  0.00    -0.069 Br 
HETATM    8  O   UNL     1      -8.888   4.681  70.063  1.00  0.00    -0.083 OA 
BRANCH   4   9
HETATM    9  C   UNL     1      -9.953   8.066  70.809  1.00  0.00    -0.188 C  
HETATM   10  O   UNL     1     -11.332   7.834  70.475  1.00  0.00    -0.274 OA 
HETATM   11  H   UNL     1     -11.909   8.469  70.882  1.00  0.00     0.000 HD 
ENDBRANCH   4   9
ENDBRANCH   3   4
TORSDOF 2
ENDMDL
MODEL      187
REMARK 921   NORMALIZED FREE ENERGY PREDICTED BY IDOCK:   -1.25 KCAL/MOL
REMARK 922        TOTAL FREE ENERGY PREDICTED BY IDOCK:   -2.03 KCAL/MOL
REMARK 923 INTER-LIGAND FREE ENERGY PREDICTED BY IDOCK:   -1.58 KCAL/MOL
REMARK 924 INTRA-LIGAND FREE ENERGY PREDICTED BY IDOCK:   -0.45 KCAL/MOL
REMARK 927      BINDING AFFINITY PREDICTED BY RF-SCORE:    0.00 PKD
ROOT
HETATM    1  O   UNL     1     -10.172   7.245  66.184  1.00  0.00    -0.428 OA 
HETATM    2  H   UNL     1     -11.027   7.027  65.831  1.00  0.00     0.000 HD 
HETATM    3  C   UNL     1     -10.200   8.463  66.932  1.00  0.00    -0.313 C  
ENDROOT
BRANCH   3   4
HETATM    4  C   UNL     1      -8.826   8.814  67.500  1.00  0.00    -0.134 C  
HETATM    5  N   UNL     1      -8.489  10.262  67.194  1.00  0.00    -0.125 N  
HETATM    6  O   UNL     1      -7.299  10.552  66.996  1.00  0.00    -0.093 OA 
HETATM    7 BR   UNL     1      -8.899   8.736  69.470  1.00  0.00    -0.146 Br 
HETATM    8  O   UNL     1      -9.413  11.090  67.212  1.00  0.00    -0.163 OA 
BRANCH   4   9
HETATM    9  C   UNL     1      -7.703   7.898  67.009  1.00  0.00    -0.100 C  
HETATM   10  O   UNL     1      -7.537   7.966  65.583  1.00  0.00    -0.078 OA 
HETATM   11  H   UNL     1      -6.841   7.397  65.278  1.00  0.00     0.000 HD 
ENDBRANCH   4   9
ENDBRANCH   3   4
TORSDOF 2
ENDMDL
MODEL      188
REMARK 921   NORMALIZED FREE ENERGY PREDICTED BY IDOCK:   -1.24 KCAL/MOL
REMARK 922        TOTAL FREE ENERGY PREDICTED BY IDOCK:   -2.02 KCAL/MOL
REMARK 923 INTER-LIGAND FREE ENERGY PREDICTED BY IDOCK:   -1.58 KCAL/MOL
REMARK 924 INTRA-LIGAND FREE ENERGY PREDICTED BY IDOCK:   -0.44 KCAL/MOL
REMARK 927      BINDING AFFINITY PREDICTED BY RF-SCORE:    0.00 PKD
ROOT
HETATM    1  O   UNL     1      -9.023   8.626  63.923  1.00  0.00    -0.401 OA 
HETATM    2  H   UNL     1      -9.109   8.509  62.984  1.00  0.00     0.000 HD 
HETATM    3  C   UNL     1      -9.642   9.834  64.369  1.00  0.00    -0.090 C  
ENDROOT
BRANCH   3   4
HETATM    4  C   UNL     1      -9.505  10.021  65.879  1.00  0.00    -0.205 C  
HETATM    5  N   UNL     1      -8.042   9.967  66.281  1.00  0.00    -0.113 N  
HETATM    6  O   UNL     1      -7.763   9.487  67.391  1.00  0.00    -0.095 OA 
HETATM    7 BR   UNL     1     -10.075  11.848  66.361  1.00  0.00    -0.250 Br 
HETATM    8  O   UNL     1      -7.208  10.454  65.503  1.00  0.00    -0.144 OA 
BRANCH   4   9
HETATM    9  C   UNL     1     -10.314   9.016  66.701  1.00  0.00    -0.219 C  
HETATM   10  O   UNL     1     -10.524   7.784  65.991  1.00  0.00    -0.059 OA 
HETATM   11  H   UNL     1     -11.026   7.160  66.501  1.00  0.00     0.000 HD 
ENDBRANCH   4   9
ENDBRANCH   3   4
TORSDOF 2
ENDMDL
MODEL      189
REMARK 921   NORMALIZED FREE ENERGY PREDICTED BY IDOCK:   -1.20 KCAL/MOL
REMARK 922        TOTAL FREE ENERGY PREDICTED BY IDOCK:   -1.97 KCAL/MOL
REMARK 923 INTER-LIGAND FREE ENERGY PREDICTED BY IDOCK:   -1.71 KCAL/MOL
REMARK 924 INTRA-LIGAND FREE ENERGY PREDICTED BY IDOCK:   -0.26 KCAL/MOL
REMARK 927      BINDING AFFINITY PREDICTED BY RF-SCORE:    0.00 PKD
ROOT
HETATM    1  O   UNL     1      -9.018   5.661  67.637  1.00  0.00    -0.110 OA 
HETATM    2  H   UNL     1      -8.671   5.553  66.760  1.00  0.00     0.000 HD 
HETATM    3  C   UNL     1      -8.886   7.007  68.100  1.00  0.00    -0.129 C  
ENDROOT
BRANCH   3   4
HETATM    4  C   UNL     1      -9.445   7.181  69.512  1.00  0.00    -0.151 C  
HETATM    5  N   UNL     1      -9.902   8.614  69.718  1.00  0.00    -0.180 N  
HETATM    6  O   UNL     1      -9.789   9.100  70.854  1.00  0.00    -0.243 OA 
HETATM    7 BR   UNL     1     -11.093   6.112  69.694  1.00  0.00    -0.483 Br 
HETATM    8  O   UNL     1     -10.415   9.204  68.756  1.00  0.00    -0.215 OA 
BRANCH   4   9
HETATM    9  C   UNL     1      -8.467   6.776  70.616  1.00  0.00    -0.137 C  
HETATM   10  O   UNL     1      -7.274   7.578  70.600  1.00  0.00    -0.065 OA 
HETATM   11  H   UNL     1      -6.667   7.327  71.286  1.00  0.00     0.000 HD 
ENDBRANCH   4   9
ENDBRANCH   3   4
TORSDOF 2
ENDMDL
MODEL      190
REMARK 921   NORMALIZED FREE ENERGY PREDICTED BY IDOCK:   -1.18 KCAL/MOL
REMARK 922        TOTAL FREE ENERGY PREDICTED BY IDOCK:   -1.95 KCAL/MOL
REMARK 923 INTER-LIGAND FREE ENERGY PREDICTED BY IDOCK:   -1.71 KCAL/MOL
REMARK 924 INTRA-LIGAND FREE ENERGY PREDICTED BY IDOCK:   -0.24 KCAL/MOL
REMARK 927      BINDING AFFINITY PREDICTED BY RF-SCORE:    0.00 PKD
ROOT
HETATM    1  O   UNL     1      -8.954   5.434  70.190  1.00  0.00    -0.129 OA 
HETATM    2  H   UNL     1      -8.258   5.027  70.692  1.00  0.00     0.000 HD 
HETATM    3  C   UNL     1      -8.709   6.824  69.968  1.00  0.00    -0.141 C  
ENDROOT
BRANCH   3   4
HETATM    4  C   UNL     1      -9.829   7.478  69.159  1.00  0.00    -0.170 C  
HETATM    5  N   UNL     1      -9.242   8.407  68.112  1.00  0.00    -0.138 N  
HETATM    6  O   UNL     1      -9.884   9.426  67.816  1.00  0.00    -0.157 OA 
HETATM    7 BR   UNL     1     -10.766   6.093  68.111  1.00  0.00    -0.389 Br 
HETATM    8  O   UNL     1      -8.179   8.071  67.567  1.00  0.00    -0.121 OA 
BRANCH   4   9
HETATM    9  C   UNL     1     -10.851   8.228  70.015  1.00  0.00    -0.232 C  
HETATM   10  O   UNL     1     -10.317   9.456  70.538  1.00  0.00    -0.238 OA 
HETATM   11  H   UNL     1     -10.951   9.922  71.070  1.00  0.00     0.000 HD 
ENDBRANCH   4   9
ENDBRANCH   3   4
TORSDOF 2
ENDMDL
MODEL      191
REMARK 921   NORMALIZED FREE ENERGY PREDICTED BY IDOCK:   -1.18 KCAL/MOL
REMARK 922        TOTAL FREE ENERGY PREDICTED BY IDOCK:   -1.95 KCAL/MOL
REMARK 923 INTER-LIGAND FREE ENERGY PREDICTED BY IDOCK:   -1.50 KCAL/MOL
REMARK 924 INTRA-LIGAND FREE ENERGY PREDICTED BY IDOCK:   -0.45 KCAL/MOL
REMARK 927      BINDING AFFINITY PREDICTED BY RF-SCORE:    0.00 PKD
ROOT
HETATM    1  O   UNL     1     -10.428   5.277  67.378  1.00  0.00    -0.199 OA 
HETATM    2  H   UNL     1     -11.028   4.717  66.899  1.00  0.00     0.000 HD 
HETATM    3  C   UNL     1     -10.920   6.614  67.485  1.00  0.00    -0.338 C  
ENDROOT
BRANCH   3   4
HETATM    4  C   UNL     1      -9.956   7.515  68.256  1.00  0.00    -0.173 C  
HETATM    5  N   UNL     1      -9.446   8.625  67.355  1.00  0.00    -0.146 N  
HETATM    6  O   UNL     1      -8.289   9.034  67.537  1.00  0.00    -0.115 OA 
HETATM    7 BR   UNL     1     -10.946   8.459  69.678  1.00  0.00    -0.018 Br 
HETATM    8  O   UNL     1     -10.229   9.102  66.521  1.00  0.00    -0.278 OA 
BRANCH   4   9
HETATM    9  C   UNL     1      -8.780   6.765  68.885  1.00  0.00    -0.129 C  
HETATM   10  O   UNL     1      -7.864   6.271  67.893  1.00  0.00    -0.101 OA 
HETATM   11  H   UNL     1      -7.134   5.805  68.282  1.00  0.00     0.000 HD 
ENDBRANCH   4   9
ENDBRANCH   3   4
TORSDOF 2
ENDMDL
MODEL      192
REMARK 921   NORMALIZED FREE ENERGY PREDICTED BY IDOCK:   -1.11 KCAL/MOL
REMARK 922        TOTAL FREE ENERGY PREDICTED BY IDOCK:   -1.87 KCAL/MOL
REMARK 923 INTER-LIGAND FREE ENERGY PREDICTED BY IDOCK:   -1.44 KCAL/MOL
REMARK 924 INTRA-LIGAND FREE ENERGY PREDICTED BY IDOCK:   -0.44 KCAL/MOL
REMARK 927      BINDING AFFINITY PREDICTED BY RF-SCORE:    0.00 PKD
ROOT
HETATM    1  O   UNL     1      -6.775  10.130  71.200  1.00  0.00    -0.335 OA 
HETATM    2  H   UNL     1      -6.013  10.620  71.485  1.00  0.00     0.000 HD 
HETATM    3  C   UNL     1      -6.717   9.818  69.807  1.00  0.00    -0.069 C  
ENDROOT
BRANCH   3   4
HETATM    4  C   UNL     1      -7.943   9.030  69.348  1.00  0.00    -0.100 C  
HETATM    5  N   UNL     1      -8.729   9.835  68.329  1.00  0.00    -0.119 N  
HETATM    6  O   UNL     1      -9.963   9.702  68.312  1.00  0.00    -0.147 OA 
HETATM    7 BR   UNL     1      -7.352   7.431  68.355  1.00  0.00    -0.106 Br 
HETATM    8  O   UNL     1      -8.095  10.541  67.531  1.00  0.00    -0.107 OA 
BRANCH   4   9
HETATM    9  C   UNL     1      -8.859   8.592  70.493  1.00  0.00    -0.154 C  
HETATM   10  O   UNL     1      -9.456   9.714  71.165  1.00  0.00    -0.304 OA 
HETATM   11  H   UNL     1     -10.024   9.442  71.875  1.00  0.00     0.000 HD 
ENDBRANCH   4   9
ENDBRANCH   3   4
TORSDOF 2
ENDMDL
MODEL      193
REMARK 921   NORMALIZED FREE ENERGY PREDICTED BY IDOCK:   -1.09 KCAL/MOL
REMARK 922        TOTAL FREE ENERGY PREDICTED BY IDOCK:   -1.85 KCAL/MOL
REMARK 923 INTER-LIGAND FREE ENERGY PREDICTED BY IDOCK:   -1.39 KCAL/MOL
REMARK 924 INTRA-LIGAND FREE ENERGY PREDICTED BY IDOCK:   -0.46 KCAL/MOL
REMARK 927      BINDING AFFINITY PREDICTED BY RF-SCORE:    0.00 PKD
ROOT
HETATM    1  O   UNL     1      -7.974   8.372  69.140  1.00  0.00    -0.106 OA 
HETATM    2  H   UNL     1      -7.115   8.759  69.261  1.00  0.00     0.000 HD 
HETATM    3  C   UNL     1      -7.890   7.017  68.695  1.00  0.00    -0.119 C  
ENDROOT
BRANCH   3   4
HETATM    4  C   UNL     1      -9.272   6.394  68.501  1.00  0.00    -0.124 C  
HETATM    5  N   UNL     1      -9.855   5.989  69.843  1.00  0.00    -0.165 N  
HETATM    6  O   UNL     1     -10.583   4.985  69.879  1.00  0.00    -0.237 OA 
HETATM    7 BR   UNL     1     -10.515   7.770  67.827  1.00  0.00    -0.257 Br 
HETATM    8  O   UNL     1      -9.617   6.712  70.822  1.00  0.00    -0.174 OA 
BRANCH   4   9
HETATM    9  C   UNL     1      -9.283   5.204  67.541  1.00  0.00    -0.117 C  
HETATM   10  O   UNL     1      -8.478   4.115  68.024  1.00  0.00    -0.093 OA 
HETATM   11  H   UNL     1      -8.484   3.375  67.429  1.00  0.00     0.000 HD 
ENDBRANCH   4   9
ENDBRANCH   3   4
TORSDOF 2
ENDMDL
MODEL      194
REMARK 921   NORMALIZED FREE ENERGY PREDICTED BY IDOCK:   -0.97 KCAL/MOL
REMARK 922        TOTAL FREE ENERGY PREDICTED BY IDOCK:   -1.72 KCAL/MOL
REMARK 923 INTER-LIGAND FREE ENERGY PREDICTED BY IDOCK:   -1.47 KCAL/MOL
REMARK 924 INTRA-LIGAND FREE ENERGY PREDICTED BY IDOCK:   -0.24 KCAL/MOL
REMARK 927      BINDING AFFINITY PREDICTED BY RF-SCORE:    0.00 PKD
ROOT
HETATM    1  O   UNL     1      -8.829   8.153  64.445  1.00  0.00    -0.390 OA 
HETATM    2  H   UNL     1      -9.504   7.620  64.040  1.00  0.00     0.000 HD 
HETATM    3  C   UNL     1      -8.907   8.117  65.871  1.00  0.00    -0.158 C  
ENDROOT
BRANCH   3   4
HETATM    4  C   UNL     1      -7.821   8.973  66.522  1.00  0.00    -0.100 C  
HETATM    5  N   UNL     1      -7.904   8.858  68.034  1.00  0.00    -0.101 N  
HETATM    6  O   UNL     1      -7.596   9.853  68.708  1.00  0.00    -0.077 OA 
HETATM    7 BR   UNL     1      -6.051   8.227  66.073  1.00  0.00    -0.045 Br 
HETATM    8  O   UNL     1      -8.221   7.761  68.517  1.00  0.00    -0.125 OA 
BRANCH   4   9
HETATM    9  C   UNL     1      -7.861  10.443  66.103  1.00  0.00    -0.135 C  
HETATM   10  O   UNL     1      -7.381  10.634  64.762  1.00  0.00    -0.343 OA 
HETATM   11  H   UNL     1      -7.405  11.546  64.501  1.00  0.00     0.000 HD 
ENDBRANCH   4   9
ENDBRANCH   3   4
TORSDOF 2
ENDMDL
MODEL      195
REMARK 921   NORMALIZED FREE ENERGY PREDICTED BY IDOCK:   -0.94 KCAL/MOL
REMARK 922        TOTAL FREE ENERGY PREDICTED BY IDOCK:   -1.68 KCAL/MOL
REMARK 923 INTER-LIGAND FREE ENERGY PREDICTED BY IDOCK:   -1.63 KCAL/MOL
REMARK 924 INTRA-LIGAND FREE ENERGY PREDICTED BY IDOCK:   -0.06 KCAL/MOL
REMARK 927      BINDING AFFINITY PREDICTED BY RF-SCORE:    0.00 PKD
ROOT
HETATM    1  O   UNL     1      -7.056   8.976  65.517  1.00  0.00    -0.079 OA 
HETATM    2  H   UNL     1      -6.187   8.929  65.136  1.00  0.00     0.000 HD 
HETATM    3  C   UNL     1      -7.565  10.311  65.518  1.00  0.00    -0.149 C  
ENDROOT
BRANCH   3   4
HETATM    4  C   UNL     1      -8.963  10.387  66.130  1.00  0.00    -0.157 C  
HETATM    5  N   UNL     1      -9.262   9.117  66.906  1.00  0.00    -0.143 N  
HETATM    6  O   UNL     1     -10.436   8.716  66.931  1.00  0.00    -0.294 OA 
HETATM    7 BR   UNL     1      -8.997  11.812  67.495  1.00  0.00    -0.174 Br 
HETATM    8  O   UNL     1      -8.330   8.579  67.521  1.00  0.00    -0.125 OA 
BRANCH   4   9
HETATM    9  C   UNL     1     -10.070  10.653  65.109  1.00  0.00    -0.307 C  
HETATM   10  O   UNL     1     -10.172   9.598  64.138  1.00  0.00    -0.198 OA 
HETATM   11  H   UNL     1     -10.859   9.762  63.504  1.00  0.00     0.000 HD 
ENDBRANCH   4   9
ENDBRANCH   3   4
TORSDOF 2
ENDMDL
MODEL      196
REMARK 921   NORMALIZED FREE ENERGY PREDICTED BY IDOCK:   -0.93 KCAL/MOL
REMARK 922        TOTAL FREE ENERGY PREDICTED BY IDOCK:   -1.67 KCAL/MOL
REMARK 923 INTER-LIGAND FREE ENERGY PREDICTED BY IDOCK:   -1.43 KCAL/MOL
REMARK 924 INTRA-LIGAND FREE ENERGY PREDICTED BY IDOCK:   -0.24 KCAL/MOL
REMARK 927      BINDING AFFINITY PREDICTED BY RF-SCORE:    0.00 PKD
ROOT
HETATM    1  O   UNL     1      -6.892  12.291  69.899  1.00  0.00    -0.353 OA 
HETATM    2  H   UNL     1      -6.193  12.669  70.421  1.00  0.00     0.000 HD 
HETATM    3  C   UNL     1      -6.787  10.868  69.822  1.00  0.00    -0.134 C  
ENDROOT
BRANCH   3   4
HETATM    4  C   UNL     1      -7.911  10.259  68.983  1.00  0.00    -0.125 C  
HETATM    5  N   UNL     1      -8.667   9.224  69.797  1.00  0.00    -0.147 N  
HETATM    6  O   UNL     1      -9.134   8.244  69.197  1.00  0.00    -0.147 OA 
HETATM    7 BR   UNL     1      -9.256  11.649  68.593  1.00  0.00    -0.055 Br 
HETATM    8  O   UNL     1      -8.825   9.439  71.008  1.00  0.00    -0.250 OA 
BRANCH   4   9
HETATM    9  C   UNL     1      -7.434   9.647  67.665  1.00  0.00    -0.091 C  
HETATM   10  O   UNL     1      -8.522   9.410  66.756  1.00  0.00    -0.125 OA 
HETATM   11  H   UNL     1      -8.227   9.030  65.938  1.00  0.00     0.000 HD 
ENDBRANCH   4   9
ENDBRANCH   3   4
TORSDOF 2
ENDMDL
MODEL      197
REMARK 921   NORMALIZED FREE ENERGY PREDICTED BY IDOCK:   -0.89 KCAL/MOL
REMARK 922        TOTAL FREE ENERGY PREDICTED BY IDOCK:   -1.63 KCAL/MOL
REMARK 923 INTER-LIGAND FREE ENERGY PREDICTED BY IDOCK:   -1.17 KCAL/MOL
REMARK 924 INTRA-LIGAND FREE ENERGY PREDICTED BY IDOCK:   -0.46 KCAL/MOL
REMARK 927      BINDING AFFINITY PREDICTED BY RF-SCORE:    0.00 PKD
ROOT
HETATM    1  O   UNL     1      -8.124  11.977  67.174  1.00  0.00    -0.165 OA 
HETATM    2  H   UNL     1      -7.195  12.094  67.013  1.00  0.00     0.000 HD 
HETATM    3  C   UNL     1      -8.459  10.604  67.383  1.00  0.00    -0.122 C  
ENDROOT
BRANCH   3   4
HETATM    4  C   UNL     1      -9.953  10.416  67.644  1.00  0.00    -0.174 C  
HETATM    5  N   UNL     1     -10.262  10.666  69.110  1.00  0.00    -0.213 N  
HETATM    6  O   UNL     1     -11.176  10.007  69.630  1.00  0.00    -0.244 OA 
HETATM    7 BR   UNL     1     -10.961  11.817  66.688  1.00  0.00    -0.360 Br 
HETATM    8  O   UNL     1      -9.623  11.553  69.695  1.00  0.00     0.551 OA 
BRANCH   4   9
HETATM    9  C   UNL     1     -10.485   9.045  67.221  1.00  0.00    -0.273 C  
HETATM   10  O   UNL     1      -9.912   7.981  67.999  1.00  0.00    -0.165 OA 
HETATM   11  H   UNL     1     -10.242   7.130  67.736  1.00  0.00     0.000 HD 
ENDBRANCH   4   9
ENDBRANCH   3   4
TORSDOF 2
ENDMDL
MODEL      198
REMARK 921   NORMALIZED FREE ENERGY PREDICTED BY IDOCK:   -0.88 KCAL/MOL
REMARK 922        TOTAL FREE ENERGY PREDICTED BY IDOCK:   -1.62 KCAL/MOL
REMARK 923 INTER-LIGAND FREE ENERGY PREDICTED BY IDOCK:   -1.38 KCAL/MOL
REMARK 924 INTRA-LIGAND FREE ENERGY PREDICTED BY IDOCK:   -0.24 KCAL/MOL
REMARK 927      BINDING AFFINITY PREDICTED BY RF-SCORE:    0.00 PKD
ROOT
HETATM    1  O   UNL     1      -9.717   7.673  66.149  1.00  0.00    -0.424 OA 
HETATM    2  H   UNL     1     -10.415   8.014  65.602  1.00  0.00     0.000 HD 
HETATM    3  C   UNL     1      -9.803   8.161  67.489  1.00  0.00    -0.177 C  
ENDROOT
BRANCH   3   4
HETATM    4  C   UNL     1      -8.680   7.611  68.369  1.00  0.00    -0.127 C  
HETATM    5  N   UNL     1      -7.840   8.752  68.915  1.00  0.00    -0.102 N  
HETATM    6  O   UNL     1      -6.629   8.547  69.089  1.00  0.00    -0.046 OA 
HETATM    7 BR   UNL     1      -9.464   6.772  69.973  1.00  0.00    -0.161 Br 
HETATM    8  O   UNL     1      -8.417   9.808  69.211  1.00  0.00    -0.128 OA 
BRANCH   4   9
HETATM    9  C   UNL     1      -7.787   6.591  67.661  1.00  0.00    -0.110 C  
HETATM   10  O   UNL     1      -8.507   5.399  67.306  1.00  0.00    -0.108 OA 
HETATM   11  H   UNL     1      -7.953   4.765  66.867  1.00  0.00     0.000 HD 
ENDBRANCH   4   9
ENDBRANCH   3   4
TORSDOF 2
ENDMDL
MODEL      199
REMARK 921   NORMALIZED FREE ENERGY PREDICTED BY IDOCK:   -0.86 KCAL/MOL
REMARK 922        TOTAL FREE ENERGY PREDICTED BY IDOCK:   -1.60 KCAL/MOL
REMARK 923 INTER-LIGAND FREE ENERGY PREDICTED BY IDOCK:   -1.14 KCAL/MOL
REMARK 924 INTRA-LIGAND FREE ENERGY PREDICTED BY IDOCK:   -0.46 KCAL/MOL
REMARK 927      BINDING AFFINITY PREDICTED BY RF-SCORE:    0.00 PKD
ROOT
HETATM    1  O   UNL     1      -7.181   9.289  65.629  1.00  0.00    -0.087 OA 
HETATM    2  H   UNL     1      -6.808   8.947  64.825  1.00  0.00     0.000 HD 
HETATM    3  C   UNL     1      -6.778  10.639  65.871  1.00  0.00    -0.116 C  
ENDROOT
BRANCH   3   4
HETATM    4  C   UNL     1      -7.379  11.189  67.164  1.00  0.00    -0.121 C  
HETATM    5  N   UNL     1      -6.423  12.182  67.801  1.00  0.00    -0.082 N  
HETATM    6  O   UNL     1      -6.399  12.250  69.040  1.00  0.00    -0.074 OA 
HETATM    7 BR   UNL     1      -8.979  12.260  66.733  1.00  0.00    -0.192 Br 
HETATM    8  O   UNL     1      -5.758  12.911  67.051  1.00  0.00    -0.323 OA 
BRANCH   4   9
HETATM    9  C   UNL     1      -7.764  10.107  68.175  1.00  0.00    -0.088 C  
HETATM   10  O   UNL     1      -6.630   9.324  68.584  1.00  0.00    -0.053 OA 
HETATM   11  H   UNL     1      -6.869   8.652  69.211  1.00  0.00     0.000 HD 
ENDBRANCH   4   9
ENDBRANCH   3   4
TORSDOF 2
ENDMDL
MODEL      200
REMARK 921   NORMALIZED FREE ENERGY PREDICTED BY IDOCK:   -0.82 KCAL/MOL
REMARK 922        TOTAL FREE ENERGY PREDICTED BY IDOCK:   -1.55 KCAL/MOL
REMARK 923 INTER-LIGAND FREE ENERGY PREDICTED BY IDOCK:   -1.38 KCAL/MOL
REMARK 924 INTRA-LIGAND FREE ENERGY PREDICTED BY IDOCK:   -0.17 KCAL/MOL
REMARK 927      BINDING AFFINITY PREDICTED BY RF-SCORE:    0.00 PKD
ROOT
HETATM    1  O   UNL     1      -9.731  10.382  68.631  1.00  0.00    -0.161 OA 
HETATM    2  H   UNL     1      -9.796  10.818  69.473  1.00  0.00     0.000 HD 
HETATM    3  C   UNL     1      -8.412  10.465  68.089  1.00  0.00    -0.121 C  
ENDROOT
BRANCH   3   4
HETATM    4  C   UNL     1      -8.308   9.763  66.735  1.00  0.00    -0.124 C  
HETATM    5  N   UNL     1      -7.670   8.396  66.904  1.00  0.00    -0.091 N  
HETATM    6  O   UNL     1      -6.961   7.969  65.979  1.00  0.00    -0.057 OA 
HETATM    7 BR   UNL     1     -10.122   9.375  66.064  1.00  0.00    -0.196 Br 
HETATM    8  O   UNL     1      -7.935   7.754  67.931  1.00  0.00    -0.121 OA 
BRANCH   4   9
HETATM    9  C   UNL     1      -7.551  10.570  65.679  1.00  0.00    -0.134 C  
HETATM   10  O   UNL     1      -8.417  11.030  64.628  1.00  0.00    -0.372 OA 
HETATM   11  H   UNL     1      -7.948  11.531  63.973  1.00  0.00     0.000 HD 
ENDBRANCH   4   9
ENDBRANCH   3   4
TORSDOF 2
ENDMDL
MODEL      201
REMARK 921   NORMALIZED FREE ENERGY PREDICTED BY IDOCK:   -0.80 KCAL/MOL
REMARK 922        TOTAL FREE ENERGY PREDICTED BY IDOCK:   -1.53 KCAL/MOL
REMARK 923 INTER-LIGAND FREE ENERGY PREDICTED BY IDOCK:   -0.84 KCAL/MOL
REMARK 924 INTRA-LIGAND FREE ENERGY PREDICTED BY IDOCK:   -0.69 KCAL/MOL
REMARK 927      BINDING AFFINITY PREDICTED BY RF-SCORE:    0.00 PKD
ROOT
HETATM    1  O   UNL     1      -6.611   8.568  66.938  1.00  0.00    -0.056 OA 
HETATM    2  H   UNL     1      -5.984   9.210  66.628  1.00  0.00     0.000 HD 
HETATM    3  C   UNL     1      -6.850   8.691  68.341  1.00  0.00    -0.065 C  
ENDROOT
BRANCH   3   4
HETATM    4  C   UNL     1      -7.860   7.657  68.840  1.00  0.00    -0.123 C  
HETATM    5  N   UNL     1      -7.411   6.260  68.451  1.00  0.00    -0.084 N  
HETATM    6  O   UNL     1      -8.287   5.420  68.195  1.00  0.00    -0.099 OA 
HETATM    7 BR   UNL     1      -7.850   7.641  70.813  1.00  0.00    -0.098 Br 
HETATM    8  O   UNL     1      -6.195   6.016  68.464  1.00  0.00    -0.029 OA 
BRANCH   4   9
HETATM    9  C   UNL     1      -9.288   7.906  68.353  1.00  0.00    -0.140 C  
HETATM   10  O   UNL     1      -9.381   7.877  66.919  1.00  0.00    -0.146 OA 
HETATM   11  H   UNL     1     -10.267   8.032  66.615  1.00  0.00     0.000 HD 
ENDBRANCH   4   9
ENDBRANCH   3   4
TORSDOF 2
ENDMDL
MODEL      202
REMARK 921   NORMALIZED FREE ENERGY PREDICTED BY IDOCK:   -0.73 KCAL/MOL
REMARK 922        TOTAL FREE ENERGY PREDICTED BY IDOCK:   -1.45 KCAL/MOL
REMARK 923 INTER-LIGAND FREE ENERGY PREDICTED BY IDOCK:   -1.19 KCAL/MOL
REMARK 924 INTRA-LIGAND FREE ENERGY PREDICTED BY IDOCK:   -0.26 KCAL/MOL
REMARK 927      BINDING AFFINITY PREDICTED BY RF-SCORE:    0.00 PKD
ROOT
HETATM    1  O   UNL     1      -6.126   9.968  71.045  1.00  0.00    -0.166 OA 
HETATM    2  H   UNL     1      -5.234  10.241  70.862  1.00  0.00     0.000 HD 
HETATM    3  C   UNL     1      -6.676   9.197  69.975  1.00  0.00    -0.047 C  
ENDROOT
BRANCH   3   4
HETATM    4  C   UNL     1      -8.110   8.757  70.269  1.00  0.00    -0.116 C  
HETATM    5  N   UNL     1      -8.506   7.618  69.346  1.00  0.00    -0.131 N  
HETATM    6  O   UNL     1      -9.691   7.549  68.987  1.00  0.00    -0.159 OA 
HETATM    7 BR   UNL     1      -8.190   7.970  72.076  1.00  0.00    -0.193 Br 
HETATM    8  O   UNL     1      -7.637   6.787  69.044  1.00  0.00    -0.096 OA 
BRANCH   4   9
HETATM    9  C   UNL     1      -9.133   9.890  70.176  1.00  0.00    -0.124 C  
HETATM   10  O   UNL     1      -9.207  10.442  68.851  1.00  0.00    -0.159 OA 
HETATM   11  H   UNL     1      -9.842  11.146  68.793  1.00  0.00     0.000 HD 
ENDBRANCH   4   9
ENDBRANCH   3   4
TORSDOF 2
ENDMDL
MODEL      203
REMARK 921   NORMALIZED FREE ENERGY PREDICTED BY IDOCK:   -0.68 KCAL/MOL
REMARK 922        TOTAL FREE ENERGY PREDICTED BY IDOCK:   -1.39 KCAL/MOL
REMARK 923 INTER-LIGAND FREE ENERGY PREDICTED BY IDOCK:   -0.93 KCAL/MOL
REMARK 924 INTRA-LIGAND FREE ENERGY PREDICTED BY IDOCK:   -0.46 KCAL/MOL
REMARK 927      BINDING AFFINITY PREDICTED BY RF-SCORE:    0.00 PKD
ROOT
HETATM    1  O   UNL     1      -6.399  10.852  68.866  1.00  0.00    -0.044 OA 
HETATM    2  H   UNL     1      -6.124  10.156  69.451  1.00  0.00     0.000 HD 
HETATM    3  C   UNL     1      -6.645  12.072  69.569  1.00  0.00    -0.079 C  
ENDROOT
BRANCH   3   4
HETATM    4  C   UNL     1      -7.087  13.192  68.628  1.00  0.00    -0.103 C  
HETATM    5  N   UNL     1      -8.331  12.773  67.866  1.00  0.00    -0.160 N  
HETATM    6  O   UNL     1      -8.472  13.196  66.708  1.00  0.00    -0.123 OA 
HETATM    7 BR   UNL     1      -7.671  14.745  69.697  1.00  0.00     0.086 Br 
HETATM    8  O   UNL     1      -9.168  12.076  68.458  1.00  0.00    -0.185 OA 
BRANCH   4   9
HETATM    9  C   UNL     1      -5.999  13.643  67.652  1.00  0.00    -0.075 C  
HETATM   10  O   UNL     1      -6.243  14.967  67.147  1.00  0.00    -0.249 OA 
HETATM   11  H   UNL     1      -5.568  15.247  66.542  1.00  0.00     0.000 HD 
ENDBRANCH   4   9
ENDBRANCH   3   4
TORSDOF 2
ENDMDL
MODEL      204
REMARK 921   NORMALIZED FREE ENERGY PREDICTED BY IDOCK:   -0.66 KCAL/MOL
REMARK 922        TOTAL FREE ENERGY PREDICTED BY IDOCK:   -1.38 KCAL/MOL
REMARK 923 INTER-LIGAND FREE ENERGY PREDICTED BY IDOCK:   -1.03 KCAL/MOL
REMARK 924 INTRA-LIGAND FREE ENERGY PREDICTED BY IDOCK:   -0.35 KCAL/MOL
REMARK 927      BINDING AFFINITY PREDICTED BY RF-SCORE:    0.00 PKD
ROOT
HETATM    1  O   UNL     1      -6.844   9.540  69.143  1.00  0.00    -0.049 OA 
HETATM    2  H   UNL     1      -6.781   8.956  69.890  1.00  0.00     0.000 HD 
HETATM    3  C   UNL     1      -6.638  10.904  69.515  1.00  0.00    -0.109 C  
ENDROOT
BRANCH   3   4
HETATM    4  C   UNL     1      -6.738  11.843  68.312  1.00  0.00    -0.063 C  
HETATM    5  N   UNL     1      -5.623  11.547  67.326  1.00  0.00    -0.071 N  
HETATM    6  O   UNL     1      -5.157  12.495  66.676  1.00  0.00    -0.298 OA 
HETATM    7 BR   UNL     1      -8.392  11.445  67.313  1.00  0.00    -0.156 Br 
HETATM    8  O   UNL     1      -5.275  10.365  67.180  1.00  0.00    -0.040 OA 
BRANCH   4   9
HETATM    9  C   UNL     1      -6.729  13.326  68.686  1.00  0.00    -0.095 C  
HETATM   10  O   UNL     1      -7.350  14.140  67.678  1.00  0.00    -0.149 OA 
HETATM   11  H   UNL     1      -7.345  15.061  67.909  1.00  0.00     0.000 HD 
ENDBRANCH   4   9
ENDBRANCH   3   4
TORSDOF 2
ENDMDL
MODEL      205
REMARK 921   NORMALIZED FREE ENERGY PREDICTED BY IDOCK:    1.97 KCAL/MOL
REMARK 922        TOTAL FREE ENERGY PREDICTED BY IDOCK:    1.56 KCAL/MOL
REMARK 923 INTER-LIGAND FREE ENERGY PREDICTED BY IDOCK:    1.36 KCAL/MOL
REMARK 924 INTRA-LIGAND FREE ENERGY PREDICTED BY IDOCK:    0.20 KCAL/MOL
REMARK 927      BINDING AFFINITY PREDICTED BY RF-SCORE:    0.00 PKD
ROOT
HETATM    1  O   UNL     1      -9.548  13.931  64.722  1.00  0.00    -0.452 OA 
HETATM    2  H   UNL     1      -8.955  13.562  64.078  1.00  0.00     0.000 HD 
HETATM    3  C   UNL     1      -9.456  15.356  64.774  1.00  0.00     1.551 C  
ENDROOT
BRANCH   3   4
HETATM    4  C   UNL     1     -10.411  15.951  65.810  1.00  0.00    -0.376 C  
HETATM    5  N   UNL     1     -11.692  15.138  65.865  1.00  0.00    -0.103 N  
HETATM    6  O   UNL     1     -12.749  15.739  66.116  1.00  0.00     1.727 OA 
HETATM    7 BR   UNL     1      -9.626  15.746  67.608  1.00  0.00    -0.221 Br 
HETATM    8  O   UNL     1     -11.609  13.911  65.711  1.00  0.00    -0.322 OA 
BRANCH   4   9
HETATM    9  C   UNL     1     -10.734  17.428  65.575  1.00  0.00    -0.078 C  
HETATM   10  O   UNL     1     -11.424  17.637  64.331  1.00  0.00    -0.370 OA 
HETATM   11  H   UNL     1     -11.624  18.553  64.185  1.00  0.00     0.000 HD 
ENDBRANCH   4   9
ENDBRANCH   3   4
TORSDOF 2
ENDMDL
