MODEL        1
REMARK 921   NORMALIZED FREE ENERGY PREDICTED BY IDOCK:   -7.26 KCAL/MOL
REMARK 922        TOTAL FREE ENERGY PREDICTED BY IDOCK:  -10.38 KCAL/MOL
REMARK 923 INTER-LIGAND FREE ENERGY PREDICTED BY IDOCK:   -9.81 KCAL/MOL
REMARK 924 INTRA-LIGAND FREE ENERGY PREDICTED BY IDOCK:   -0.58 KCAL/MOL
REMARK 927      BINDING AFFINITY PREDICTED BY RF-SCORE:    0.00 PKD
ROOT
HETATM    1  C   UNL     1      -8.319   5.247  73.092  1.00  0.00    -0.115 C  
HETATM    2  C   UNL     1      -9.787   5.730  73.072  1.00  0.00    -0.179 C  
HETATM    3  C   UNL     1     -10.059   6.397  74.444  1.00  0.00    -0.367 C  
HETATM    4  C   UNL     1     -10.677   4.470  72.961  1.00  0.00    -0.298 C  
ENDROOT
BRANCH   2   5
HETATM    5  C   UNL     1     -10.109   6.732  71.944  1.00  0.00    -0.195 A  
HETATM    6  C   UNL     1     -10.759   6.389  70.742  1.00  0.00    -0.302 A  
HETATM    7  C   UNL     1     -10.913   7.317  69.682  1.00  0.00    -0.204 A  
HETATM    8  C   UNL     1     -10.442   8.626  69.809  1.00  0.00    -0.220 A  
HETATM    9  C   UNL     1      -9.678   8.063  72.064  1.00  0.00    -0.264 A  
HETATM   10  C   UNL     1      -9.839   8.980  71.025  1.00  0.00    -0.352 A  
BRANCH   8  11
HETATM   11  C   UNL     1     -10.358   9.652  68.681  1.00  0.00    -0.203 C  
BRANCH  11  12
HETATM   12  N   UNL     1     -11.555  10.423  68.293  1.00  0.00    -0.322 NA 
HETATM   13  C   UNL     1     -12.378  10.851  69.437  1.00  0.00    -0.118 C  
HETATM   14  C   UNL     1     -11.954  12.123  70.240  1.00  0.00    -0.305 C  
HETATM   15  N   UNL     1     -11.173  13.203  69.581  1.00  0.00    -0.093 NA 
HETATM   16  C   UNL     1     -10.426  12.695  68.427  1.00  0.00    -0.238 C  
HETATM   17  C   UNL     1     -11.156  11.648  67.562  1.00  0.00    -0.276 C  
BRANCH  15  18
HETATM   18  C   UNL     1     -11.936  14.473  69.397  1.00  0.00    -0.322 C  
BRANCH  18  19
HETATM   19  C   UNL     1     -12.446  15.002  70.754  1.00  0.00    -0.411 A  
HETATM   20  C   UNL     1     -13.822  15.161  70.994  1.00  0.00    -0.423 A  
HETATM   21  C   UNL     1     -11.549  15.302  71.796  1.00  0.00    -0.498 A  
HETATM   22  C   UNL     1     -14.283  15.578  72.248  1.00  0.00    -0.617 A  
HETATM   23  C   UNL     1     -12.012  15.724  73.044  1.00  0.00    -0.596 A  
HETATM   24  C   UNL     1     -13.379  15.854  73.272  1.00  0.00    -0.660 A  
ENDBRANCH  18  19
BRANCH  18  25
HETATM   25  C   UNL     1     -11.190  15.611  68.666  1.00  0.00    -0.338 A  
HETATM   26  C   UNL     1      -9.794  17.626  67.272  1.00  0.00    -0.303 A  
HETATM   27  C   UNL     1      -9.933  17.708  68.655  1.00  0.00    -0.367 A  
HETATM   28 CL   UNL     1      -8.878  18.813  66.430  1.00  0.00    -0.312 Cl 
HETATM   29  C   UNL     1     -11.082  15.581  67.262  1.00  0.00    -0.271 A  
HETATM   30  C   UNL     1     -10.643  16.716  69.342  1.00  0.00    -0.333 A  
HETATM   31  C   UNL     1     -10.385  16.575  66.573  1.00  0.00    -0.307 A  
ENDBRANCH  18  25
ENDBRANCH  15  18
ENDBRANCH  11  12
ENDBRANCH   8  11
ENDBRANCH   2   5
TORSDOF 6
ENDMDL
MODEL        2
REMARK 921   NORMALIZED FREE ENERGY PREDICTED BY IDOCK:   -7.22 KCAL/MOL
REMARK 922        TOTAL FREE ENERGY PREDICTED BY IDOCK:  -10.33 KCAL/MOL
REMARK 923 INTER-LIGAND FREE ENERGY PREDICTED BY IDOCK:   -9.79 KCAL/MOL
REMARK 924 INTRA-LIGAND FREE ENERGY PREDICTED BY IDOCK:   -0.54 KCAL/MOL
REMARK 927      BINDING AFFINITY PREDICTED BY RF-SCORE:    0.00 PKD
ROOT
HETATM    1  C   UNL     1     -12.452   6.606  71.772  1.00  0.00    -0.360 C  
HETATM    2  C   UNL     1     -10.908   6.689  71.777  1.00  0.00    -0.265 C  
HETATM    3  C   UNL     1     -10.380   5.269  71.453  1.00  0.00    -0.290 C  
HETATM    4  C   UNL     1     -10.479   7.048  73.218  1.00  0.00    -0.365 C  
ENDROOT
BRANCH   2   5
HETATM    5  C   UNL     1     -10.325   7.695  70.762  1.00  0.00    -0.203 A  
HETATM    6  C   UNL     1      -9.614   8.858  71.119  1.00  0.00    -0.342 A  
HETATM    7  C   UNL     1      -9.215   9.817  70.156  1.00  0.00    -0.253 A  
HETATM    8  C   UNL     1      -9.493   9.622  68.801  1.00  0.00    -0.148 A  
HETATM    9  C   UNL     1     -10.560   7.502  69.392  1.00  0.00    -0.225 A  
HETATM   10  C   UNL     1     -10.157   8.440  68.442  1.00  0.00    -0.224 A  
BRANCH   8  11
HETATM   11  C   UNL     1      -9.306  10.662  67.699  1.00  0.00    -0.146 C  
BRANCH  11  12
HETATM   12  N   UNL     1     -10.467  11.414  67.186  1.00  0.00    -0.215 NA 
HETATM   13  C   UNL     1     -11.614  11.430  68.111  1.00  0.00    -0.294 C  
HETATM   14  C   UNL     1     -11.617  12.449  69.297  1.00  0.00    -0.319 C  
HETATM   15  N   UNL     1     -10.871  13.730  69.188  1.00  0.00    -0.212 NA 
HETATM   16  C   UNL     1      -9.782  13.636  68.212  1.00  0.00    -0.231 C  
HETATM   17  C   UNL     1     -10.091  12.825  66.937  1.00  0.00    -0.232 C  
BRANCH  15  18
HETATM   18  C   UNL     1     -11.751  14.935  69.116  1.00  0.00    -0.309 C  
BRANCH  18  19
HETATM   19  C   UNL     1     -12.310  15.284  70.512  1.00  0.00    -0.434 A  
HETATM   20  C   UNL     1     -13.695  15.331  70.742  1.00  0.00    -0.255 A  
HETATM   21  C   UNL     1     -11.446  15.526  71.596  1.00  0.00    -0.496 A  
HETATM   22  C   UNL     1     -14.197  15.582  72.023  1.00  0.00    -0.606 A  
HETATM   23  C   UNL     1     -11.950  15.783  72.873  1.00  0.00    -0.599 A  
HETATM   24  C   UNL     1     -13.325  15.802  73.088  1.00  0.00    -0.685 A  
ENDBRANCH  18  19
BRANCH  18  25
HETATM   25  C   UNL     1     -11.114  16.202  68.502  1.00  0.00    -0.357 A  
HETATM   26  C   UNL     1      -9.987  18.563  67.450  1.00  0.00    -0.330 A  
HETATM   27  C   UNL     1     -10.459  17.576  66.590  1.00  0.00    -0.270 A  
HETATM   28 CL   UNL     1      -9.370  20.036  66.812  1.00  0.00    -0.479 Cl 
HETATM   29  C   UNL     1     -10.580  17.191  69.350  1.00  0.00    -0.161 A  
HETATM   30  C   UNL     1     -11.001  16.397  67.114  1.00  0.00    -0.082 A  
HETATM   31  C   UNL     1     -10.029  18.364  68.830  1.00  0.00    -0.404 A  
ENDBRANCH  18  25
ENDBRANCH  15  18
ENDBRANCH  11  12
ENDBRANCH   8  11
ENDBRANCH   2   5
TORSDOF 6
ENDMDL
MODEL        3
REMARK 921   NORMALIZED FREE ENERGY PREDICTED BY IDOCK:   -7.12 KCAL/MOL
REMARK 922        TOTAL FREE ENERGY PREDICTED BY IDOCK:  -10.20 KCAL/MOL
REMARK 923 INTER-LIGAND FREE ENERGY PREDICTED BY IDOCK:   -9.44 KCAL/MOL
REMARK 924 INTRA-LIGAND FREE ENERGY PREDICTED BY IDOCK:   -0.76 KCAL/MOL
REMARK 927      BINDING AFFINITY PREDICTED BY RF-SCORE:    0.00 PKD
ROOT
HETATM    1  C   UNL     1     -11.207   4.629  73.439  1.00  0.00    -0.423 C  
HETATM    2  C   UNL     1     -10.109   5.165  72.493  1.00  0.00    -0.226 C  
HETATM    3  C   UNL     1      -9.801   4.038  71.476  1.00  0.00    -0.251 C  
HETATM    4  C   UNL     1      -8.845   5.401  73.353  1.00  0.00    -0.113 C  
ENDROOT
BRANCH   2   5
HETATM    5  C   UNL     1     -10.502   6.448  71.730  1.00  0.00    -0.246 A  
HETATM    6  C   UNL     1     -10.591   6.539  70.327  1.00  0.00    -0.278 A  
HETATM    7  C   UNL     1     -10.826   7.772  69.669  1.00  0.00    -0.185 A  
HETATM    8  C   UNL     1     -11.006   8.947  70.404  1.00  0.00    -0.275 A  
HETATM    9  C   UNL     1     -10.724   7.634  72.449  1.00  0.00    -0.333 A  
HETATM   10  C   UNL     1     -10.966   8.846  71.802  1.00  0.00    -0.431 A  
BRANCH   8  11
HETATM   11  C   UNL     1     -11.059  10.357  69.822  1.00  0.00    -0.295 C  
BRANCH  11  12
HETATM   12  N   UNL     1     -10.991  10.557  68.362  1.00  0.00    -0.242 NA 
HETATM   13  C   UNL     1     -11.909  11.598  67.866  1.00  0.00    -0.203 C  
HETATM   14  C   UNL     1     -11.485  13.098  67.981  1.00  0.00    -0.311 C  
HETATM   15  N   UNL     1     -10.047  13.474  67.993  1.00  0.00    -0.237 NA 
HETATM   16  C   UNL     1      -9.207  12.364  68.453  1.00  0.00    -0.145 C  
HETATM   17  C   UNL     1      -9.622  10.961  67.965  1.00  0.00    -0.162 C  
BRANCH  15  18
HETATM   18  C   UNL     1      -9.605  14.205  66.769  1.00  0.00    -0.282 C  
BRANCH  18  19
HETATM   19  C   UNL     1     -10.468  13.804  65.554  1.00  0.00    -0.327 A  
HETATM   20  C   UNL     1     -10.176  12.647  64.813  1.00  0.00    -0.307 A  
HETATM   21  C   UNL     1     -11.592  14.566  65.183  1.00  0.00    -0.371 A  
HETATM   22  C   UNL     1     -11.000  12.251  63.754  1.00  0.00    -0.495 A  
HETATM   23  C   UNL     1     -12.409  14.172  64.122  1.00  0.00    -0.372 A  
HETATM   24  C   UNL     1     -12.118  13.010  63.413  1.00  0.00    -0.591 A  
ENDBRANCH  18  19
BRANCH  18  25
HETATM   25  C   UNL     1      -9.577  15.746  66.874  1.00  0.00    -0.243 A  
HETATM   26  C   UNL     1      -9.616  18.559  67.077  1.00  0.00    -0.298 A  
HETATM   27  C   UNL     1      -8.713  17.937  66.219  1.00  0.00    -0.197 A  
HETATM   28 CL   UNL     1      -9.694  20.275  67.145  1.00  0.00    -0.564 Cl 
HETATM   29  C   UNL     1     -10.442  16.397  67.775  1.00  0.00    -0.300 A  
HETATM   30  C   UNL     1      -8.683  16.541  66.134  1.00  0.00    -0.335 A  
HETATM   31  C   UNL     1     -10.467  17.789  67.870  1.00  0.00    -0.401 A  
ENDBRANCH  18  25
ENDBRANCH  15  18
ENDBRANCH  11  12
ENDBRANCH   8  11
ENDBRANCH   2   5
TORSDOF 6
ENDMDL
MODEL        4
REMARK 921   NORMALIZED FREE ENERGY PREDICTED BY IDOCK:   -7.07 KCAL/MOL
REMARK 922        TOTAL FREE ENERGY PREDICTED BY IDOCK:  -10.13 KCAL/MOL
REMARK 923 INTER-LIGAND FREE ENERGY PREDICTED BY IDOCK:   -9.33 KCAL/MOL
REMARK 924 INTRA-LIGAND FREE ENERGY PREDICTED BY IDOCK:   -0.80 KCAL/MOL
REMARK 927      BINDING AFFINITY PREDICTED BY RF-SCORE:    0.00 PKD
ROOT
HETATM    1  C   UNL     1     -11.249   4.317  73.372  1.00  0.00    -0.361 C  
HETATM    2  C   UNL     1     -10.103   4.925  72.532  1.00  0.00    -0.233 C  
HETATM    3  C   UNL     1      -9.694   3.855  71.489  1.00  0.00    -0.247 C  
HETATM    4  C   UNL     1      -8.909   5.150  73.489  1.00  0.00    -0.116 C  
ENDROOT
BRANCH   2   5
HETATM    5  C   UNL     1     -10.478   6.232  71.803  1.00  0.00    -0.249 A  
HETATM    6  C   UNL     1     -10.597   6.353  70.404  1.00  0.00    -0.294 A  
HETATM    7  C   UNL     1     -10.812   7.604  69.775  1.00  0.00    -0.222 A  
HETATM    8  C   UNL     1     -10.944   8.769  70.536  1.00  0.00    -0.272 A  
HETATM    9  C   UNL     1     -10.652   7.409  72.548  1.00  0.00    -0.304 A  
HETATM   10  C   UNL     1     -10.875   8.639  71.930  1.00  0.00    -0.419 A  
BRANCH   8  11
HETATM   11  C   UNL     1     -10.971  10.191  69.982  1.00  0.00    -0.307 C  
BRANCH  11  12
HETATM   12  N   UNL     1     -10.971  10.416  68.523  1.00  0.00    -0.238 NA 
HETATM   13  C   UNL     1     -11.907  11.469  68.090  1.00  0.00    -0.236 C  
HETATM   14  C   UNL     1     -11.471  12.966  68.210  1.00  0.00    -0.311 C  
HETATM   15  N   UNL     1     -10.032  13.336  68.162  1.00  0.00    -0.229 NA 
HETATM   16  C   UNL     1      -9.176  12.214  68.562  1.00  0.00    -0.099 C  
HETATM   17  C   UNL     1      -9.621  10.822  68.070  1.00  0.00    -0.163 C  
BRANCH  15  18
HETATM   18  C   UNL     1      -9.644  14.087  66.931  1.00  0.00    -0.271 C  
BRANCH  18  19
HETATM   19  C   UNL     1     -10.518  13.657  65.734  1.00  0.00    -0.296 A  
HETATM   20  C   UNL     1     -11.662  14.391  65.377  1.00  0.00    -0.362 A  
HETATM   21  C   UNL     1     -10.170  12.542  64.948  1.00  0.00    -0.301 A  
HETATM   22  C   UNL     1     -12.414  14.037  64.252  1.00  0.00    -0.303 A  
HETATM   23  C   UNL     1     -10.926  12.188  63.829  1.00  0.00    -0.494 A  
HETATM   24  C   UNL     1     -12.043  12.940  63.477  1.00  0.00    -0.633 A  
ENDBRANCH  18  19
BRANCH  18  25
HETATM   25  C   UNL     1      -9.671  15.627  67.041  1.00  0.00    -0.234 A  
HETATM   26  C   UNL     1      -9.811  18.435  67.261  1.00  0.00    -0.317 A  
HETATM   27  C   UNL     1      -8.952  17.853  66.332  1.00  0.00    -0.247 A  
HETATM   28 CL   UNL     1      -9.954  20.147  67.343  1.00  0.00    -0.553 Cl 
HETATM   29  C   UNL     1     -10.490  16.240  68.009  1.00  0.00    -0.293 A  
HETATM   30  C   UNL     1      -8.871  16.459  66.238  1.00  0.00    -0.367 A  
HETATM   31  C   UNL     1     -10.565  17.630  68.113  1.00  0.00    -0.359 A  
ENDBRANCH  18  25
ENDBRANCH  15  18
ENDBRANCH  11  12
ENDBRANCH   8  11
ENDBRANCH   2   5
TORSDOF 6
ENDMDL
MODEL        5
REMARK 921   NORMALIZED FREE ENERGY PREDICTED BY IDOCK:   -7.00 KCAL/MOL
REMARK 922        TOTAL FREE ENERGY PREDICTED BY IDOCK:  -10.04 KCAL/MOL
REMARK 923 INTER-LIGAND FREE ENERGY PREDICTED BY IDOCK:   -9.22 KCAL/MOL
REMARK 924 INTRA-LIGAND FREE ENERGY PREDICTED BY IDOCK:   -0.81 KCAL/MOL
REMARK 927      BINDING AFFINITY PREDICTED BY RF-SCORE:    0.00 PKD
ROOT
HETATM    1  C   UNL     1     -10.249  19.857  69.059  1.00  0.00    -0.344 C  
HETATM    2  C   UNL     1      -9.444  19.168  67.933  1.00  0.00    -0.381 C  
HETATM    3  C   UNL     1      -8.036  18.868  68.506  1.00  0.00    -0.383 C  
HETATM    4  C   UNL     1      -9.293  20.196  66.789  1.00  0.00    -0.513 C  
ENDROOT
BRANCH   2   5
HETATM    5  C   UNL     1     -10.075  17.857  67.416  1.00  0.00    -0.341 A  
HETATM    6  C   UNL     1     -10.812  16.963  68.217  1.00  0.00    -0.357 A  
HETATM    7  C   UNL     1     -11.257  15.710  67.727  1.00  0.00    -0.297 A  
HETATM    8  C   UNL     1     -10.998  15.330  66.408  1.00  0.00    -0.299 A  
HETATM    9  C   UNL     1      -9.859  17.471  66.083  1.00  0.00    -0.256 A  
HETATM   10  C   UNL     1     -10.306  16.242  65.598  1.00  0.00    -0.385 A  
BRANCH   8  11
HETATM   11  C   UNL     1     -11.235  13.940  65.822  1.00  0.00    -0.303 C  
BRANCH  11  12
HETATM   12  N   UNL     1     -10.182  12.910  65.911  1.00  0.00    -0.286 NA 
HETATM   13  C   UNL     1      -9.216  13.147  66.998  1.00  0.00    -0.233 C  
HETATM   14  C   UNL     1      -9.598  12.724  68.455  1.00  0.00    -0.175 C  
HETATM   15  N   UNL     1     -10.558  11.613  68.688  1.00  0.00    -0.203 NA 
HETATM   16  C   UNL     1     -11.444  11.420  67.536  1.00  0.00    -0.260 C  
HETATM   17  C   UNL     1     -10.788  11.580  66.150  1.00  0.00    -0.278 C  
BRANCH  15  18
HETATM   18  C   UNL     1      -9.935  10.394  69.284  1.00  0.00    -0.228 C  
BRANCH  18  19
HETATM   19  C   UNL     1     -10.808   9.842  70.430  1.00  0.00    -0.380 A  
HETATM   20  C   UNL     1     -12.146  10.247  70.574  1.00  0.00    -0.401 A  
HETATM   21  C   UNL     1     -10.298   8.894  71.336  1.00  0.00    -0.377 A  
HETATM   22  C   UNL     1     -12.954   9.695  71.575  1.00  0.00    -0.486 A  
HETATM   23  C   UNL     1     -11.105   8.350  72.337  1.00  0.00    -0.431 A  
HETATM   24  C   UNL     1     -12.435   8.744  72.451  1.00  0.00    -0.421 A  
ENDBRANCH  18  19
BRANCH  18  25
HETATM   25  C   UNL     1      -9.620   9.245  68.299  1.00  0.00    -0.160 A  
HETATM   26  C   UNL     1      -8.997   7.207  66.453  1.00  0.00    -0.155 A  
HETATM   27  C   UNL     1     -10.245   7.227  67.070  1.00  0.00    -0.348 A  
HETATM   28 CL   UNL     1      -8.643   6.011  65.269  1.00  0.00    -0.134 Cl 
HETATM   29  C   UNL     1      -8.347   9.171  67.703  1.00  0.00    -0.116 A  
HETATM   30  C   UNL     1     -10.545   8.228  68.000  1.00  0.00    -0.188 A  
HETATM   31  C   UNL     1      -8.041   8.167  66.783  1.00  0.00    -0.103 A  
ENDBRANCH  18  25
ENDBRANCH  15  18
ENDBRANCH  11  12
ENDBRANCH   8  11
ENDBRANCH   2   5
TORSDOF 6
ENDMDL
MODEL        6
REMARK 921   NORMALIZED FREE ENERGY PREDICTED BY IDOCK:   -6.98 KCAL/MOL
REMARK 922        TOTAL FREE ENERGY PREDICTED BY IDOCK:  -10.00 KCAL/MOL
REMARK 923 INTER-LIGAND FREE ENERGY PREDICTED BY IDOCK:   -9.43 KCAL/MOL
REMARK 924 INTRA-LIGAND FREE ENERGY PREDICTED BY IDOCK:   -0.58 KCAL/MOL
REMARK 927      BINDING AFFINITY PREDICTED BY RF-SCORE:    0.00 PKD
ROOT
HETATM    1  C   UNL     1     -11.229   3.837  73.535  1.00  0.00    -0.299 C  
HETATM    2  C   UNL     1     -10.103   4.423  72.654  1.00  0.00    -0.229 C  
HETATM    3  C   UNL     1      -9.817   3.385  71.539  1.00  0.00    -0.212 C  
HETATM    4  C   UNL     1      -8.844   4.538  73.544  1.00  0.00    -0.101 C  
ENDROOT
BRANCH   2   5
HETATM    5  C   UNL     1     -10.447   5.783  72.009  1.00  0.00    -0.267 A  
HETATM    6  C   UNL     1     -10.879   5.941  70.677  1.00  0.00    -0.363 A  
HETATM    7  C   UNL     1     -11.054   7.220  70.093  1.00  0.00    -0.281 A  
HETATM    8  C   UNL     1     -10.827   8.379  70.839  1.00  0.00    -0.267 A  
HETATM    9  C   UNL     1     -10.262   6.961  72.750  1.00  0.00    -0.214 A  
HETATM   10  C   UNL     1     -10.444   8.220  72.179  1.00  0.00    -0.371 A  
BRANCH   8  11
HETATM   11  C   UNL     1     -10.778   9.798  70.279  1.00  0.00    -0.302 C  
BRANCH  11  12
HETATM   12  N   UNL     1     -11.043  10.038  68.847  1.00  0.00    -0.208 NA 
HETATM   13  C   UNL     1     -11.992  11.136  68.598  1.00  0.00    -0.219 C  
HETATM   14  C   UNL     1     -11.472  12.610  68.636  1.00  0.00    -0.308 C  
HETATM   15  N   UNL     1     -10.052  12.914  68.317  1.00  0.00    -0.239 NA 
HETATM   16  C   UNL     1      -9.190  11.751  68.547  1.00  0.00    -0.151 C  
HETATM   17  C   UNL     1      -9.784  10.385  68.147  1.00  0.00    -0.151 C  
BRANCH  15  18
HETATM   18  C   UNL     1      -9.868  13.658  67.035  1.00  0.00    -0.251 C  
BRANCH  18  19
HETATM   19  C   UNL     1     -10.746  13.048  65.922  1.00  0.00    -0.292 A  
HETATM   20  C   UNL     1     -12.098  13.407  65.792  1.00  0.00    -0.481 A  
HETATM   21  C   UNL     1     -10.204  12.146  64.986  1.00  0.00    -0.312 A  
HETATM   22  C   UNL     1     -12.873  12.902  64.742  1.00  0.00    -0.359 A  
HETATM   23  C   UNL     1     -10.981  11.639  63.943  1.00  0.00    -0.478 A  
HETATM   24  C   UNL     1     -12.313  12.024  63.816  1.00  0.00    -0.602 A  
ENDBRANCH  18  19
BRANCH  18  25
HETATM   25  C   UNL     1     -10.124  15.180  67.094  1.00  0.00    -0.239 A  
HETATM   26  C   UNL     1     -10.523  17.972  67.141  1.00  0.00    -0.367 A  
HETATM   27  C   UNL     1     -10.694  17.226  68.304  1.00  0.00    -0.349 A  
HETATM   28 CL   UNL     1     -10.690  19.683  67.184  1.00  0.00    -0.602 Cl 
HETATM   29  C   UNL     1     -10.011  15.949  65.919  1.00  0.00    -0.377 A  
HETATM   30  C   UNL     1     -10.513  15.839  68.274  1.00  0.00    -0.259 A  
HETATM   31  C   UNL     1     -10.201  17.332  65.944  1.00  0.00    -0.273 A  
ENDBRANCH  18  25
ENDBRANCH  15  18
ENDBRANCH  11  12
ENDBRANCH   8  11
ENDBRANCH   2   5
TORSDOF 6
ENDMDL
MODEL        7
REMARK 921   NORMALIZED FREE ENERGY PREDICTED BY IDOCK:   -6.94 KCAL/MOL
REMARK 922        TOTAL FREE ENERGY PREDICTED BY IDOCK:   -9.95 KCAL/MOL
REMARK 923 INTER-LIGAND FREE ENERGY PREDICTED BY IDOCK:   -9.18 KCAL/MOL
REMARK 924 INTRA-LIGAND FREE ENERGY PREDICTED BY IDOCK:   -0.76 KCAL/MOL
REMARK 927      BINDING AFFINITY PREDICTED BY RF-SCORE:    0.00 PKD
ROOT
HETATM    1  C   UNL     1     -10.097  19.625  68.774  1.00  0.00    -0.532 C  
HETATM    2  C   UNL     1      -9.666  19.066  67.399  1.00  0.00    -0.371 C  
HETATM    3  C   UNL     1      -8.124  18.921  67.435  1.00  0.00    -0.280 C  
HETATM    4  C   UNL     1     -10.029  20.134  66.341  1.00  0.00    -0.573 C  
ENDROOT
BRANCH   2   5
HETATM    5  C   UNL     1     -10.299  17.703  67.044  1.00  0.00    -0.330 A  
HETATM    6  C   UNL     1     -10.855  16.818  67.989  1.00  0.00    -0.341 A  
HETATM    7  C   UNL     1     -11.302  15.523  67.631  1.00  0.00    -0.260 A  
HETATM    8  C   UNL     1     -11.230  15.088  66.304  1.00  0.00    -0.309 A  
HETATM    9  C   UNL     1     -10.271  17.259  65.713  1.00  0.00    -0.212 A  
HETATM   10  C   UNL     1     -10.722  15.988  65.357  1.00  0.00    -0.399 A  
BRANCH   8  11
HETATM   11  C   UNL     1     -11.481  13.661  65.825  1.00  0.00    -0.315 C  
BRANCH  11  12
HETATM   12  N   UNL     1     -10.374  12.685  65.796  1.00  0.00    -0.274 NA 
HETATM   13  C   UNL     1      -9.311  12.970  66.775  1.00  0.00    -0.244 C  
HETATM   14  C   UNL     1      -9.513  12.532  68.262  1.00  0.00    -0.201 C  
HETATM   15  N   UNL     1     -10.386  11.375  68.593  1.00  0.00    -0.198 NA 
HETATM   16  C   UNL     1     -11.379  11.136  67.542  1.00  0.00    -0.278 C  
HETATM   17  C   UNL     1     -10.885  11.326  66.094  1.00  0.00    -0.222 C  
BRANCH  15  18
HETATM   18  C   UNL     1      -9.643  10.189  69.114  1.00  0.00    -0.212 C  
BRANCH  18  19
HETATM   19  C   UNL     1     -10.346   9.612  70.361  1.00  0.00    -0.350 A  
HETATM   20  C   UNL     1     -11.709   9.860  70.597  1.00  0.00    -0.404 A  
HETATM   21  C   UNL     1      -9.650   8.794  71.270  1.00  0.00    -0.323 A  
HETATM   22  C   UNL     1     -12.359   9.281  71.693  1.00  0.00    -0.450 A  
HETATM   23  C   UNL     1     -10.300   8.223  72.365  1.00  0.00    -0.402 A  
HETATM   24  C   UNL     1     -11.656   8.459  72.572  1.00  0.00    -0.426 A  
ENDBRANCH  18  19
BRANCH  18  25
HETATM   25  C   UNL     1      -9.399   9.046  68.104  1.00  0.00    -0.151 A  
HETATM   26  C   UNL     1      -8.995   6.901  66.319  1.00  0.00    -0.151 A  
HETATM   27  C   UNL     1      -8.045   7.914  66.413  1.00  0.00    -0.108 A  
HETATM   28 CL   UNL     1      -8.715   5.553  65.288  1.00  0.00    -0.153 Cl 
HETATM   29  C   UNL     1     -10.370   8.038  67.949  1.00  0.00    -0.282 A  
HETATM   30  C   UNL     1      -8.257   8.987  67.286  1.00  0.00    -0.103 A  
HETATM   31  C   UNL     1     -10.167   6.971  67.072  1.00  0.00    -0.330 A  
ENDBRANCH  18  25
ENDBRANCH  15  18
ENDBRANCH  11  12
ENDBRANCH   8  11
ENDBRANCH   2   5
TORSDOF 6
ENDMDL
MODEL        8
REMARK 921   NORMALIZED FREE ENERGY PREDICTED BY IDOCK:   -6.92 KCAL/MOL
REMARK 922        TOTAL FREE ENERGY PREDICTED BY IDOCK:   -9.93 KCAL/MOL
REMARK 923 INTER-LIGAND FREE ENERGY PREDICTED BY IDOCK:   -9.34 KCAL/MOL
REMARK 924 INTRA-LIGAND FREE ENERGY PREDICTED BY IDOCK:   -0.59 KCAL/MOL
REMARK 927      BINDING AFFINITY PREDICTED BY RF-SCORE:    0.00 PKD
ROOT
HETATM    1  C   UNL     1      -8.609   4.209  73.678  1.00  0.00    -0.092 C  
HETATM    2  C   UNL     1     -10.042   4.659  73.313  1.00  0.00    -0.201 C  
HETATM    3  C   UNL     1     -10.473   5.696  74.380  1.00  0.00    -0.214 C  
HETATM    4  C   UNL     1     -10.955   3.418  73.447  1.00  0.00    -0.306 C  
ENDROOT
BRANCH   2   5
HETATM    5  C   UNL     1     -10.169   5.287  71.909  1.00  0.00    -0.264 A  
HETATM    6  C   UNL     1      -9.209   5.145  70.888  1.00  0.00    -0.188 A  
HETATM    7  C   UNL     1      -9.308   5.850  69.663  1.00  0.00    -0.162 A  
HETATM    8  C   UNL     1     -10.391   6.697  69.416  1.00  0.00    -0.228 A  
HETATM    9  C   UNL     1     -11.267   6.114  71.624  1.00  0.00    -0.342 A  
HETATM   10  C   UNL     1     -11.371   6.799  70.414  1.00  0.00    -0.399 A  
BRANCH   8  11
HETATM   11  C   UNL     1     -10.512   7.662  68.239  1.00  0.00    -0.174 C  
BRANCH  11  12
HETATM   12  N   UNL     1      -9.581   8.802  68.119  1.00  0.00    -0.144 NA 
HETATM   13  C   UNL     1      -9.862   9.673  66.965  1.00  0.00    -0.195 C  
HETATM   14  C   UNL     1     -10.990  10.749  67.086  1.00  0.00    -0.260 C  
HETATM   15  N   UNL     1     -11.348  11.316  68.412  1.00  0.00    -0.254 NA 
HETATM   16  C   UNL     1     -10.989  10.403  69.501  1.00  0.00    -0.262 C  
HETATM   17  C   UNL     1      -9.654   9.650  69.332  1.00  0.00    -0.191 C  
BRANCH  15  18
HETATM   18  C   UNL     1     -10.975  12.754  68.573  1.00  0.00    -0.258 C  
BRANCH  18  19
HETATM   19  C   UNL     1     -11.159  13.515  67.244  1.00  0.00    -0.302 A  
HETATM   20  C   UNL     1     -10.073  14.159  66.626  1.00  0.00    -0.275 A  
HETATM   21  C   UNL     1     -12.410  13.552  66.599  1.00  0.00    -0.351 A  
HETATM   22  C   UNL     1     -10.230  14.792  65.388  1.00  0.00    -0.415 A  
HETATM   23  C   UNL     1     -12.564  14.190  65.366  1.00  0.00    -0.485 A  
HETATM   24  C   UNL     1     -11.472  14.802  64.757  1.00  0.00    -0.410 A  
ENDBRANCH  18  19
BRANCH  18  25
HETATM   25  C   UNL     1     -11.710  13.522  69.694  1.00  0.00    -0.378 A  
HETATM   26  C   UNL     1     -12.982  14.982  71.745  1.00  0.00    -0.347 A  
HETATM   27  C   UNL     1     -13.118  13.597  71.691  1.00  0.00    -0.455 A  
HETATM   28 CL   UNL     1     -13.692  15.866  73.038  1.00  0.00    -0.649 Cl 
HETATM   29  C   UNL     1     -11.634  14.927  69.739  1.00  0.00    -0.339 A  
HETATM   30  C   UNL     1     -12.501  12.876  70.662  1.00  0.00    -0.333 A  
HETATM   31  C   UNL     1     -12.257  15.649  70.758  1.00  0.00    -0.463 A  
ENDBRANCH  18  25
ENDBRANCH  15  18
ENDBRANCH  11  12
ENDBRANCH   8  11
ENDBRANCH   2   5
TORSDOF 6
ENDMDL
MODEL        9
REMARK 921   NORMALIZED FREE ENERGY PREDICTED BY IDOCK:   -6.87 KCAL/MOL
REMARK 922        TOTAL FREE ENERGY PREDICTED BY IDOCK:   -9.86 KCAL/MOL
REMARK 923 INTER-LIGAND FREE ENERGY PREDICTED BY IDOCK:   -9.46 KCAL/MOL
REMARK 924 INTRA-LIGAND FREE ENERGY PREDICTED BY IDOCK:   -0.40 KCAL/MOL
REMARK 927      BINDING AFFINITY PREDICTED BY RF-SCORE:    0.00 PKD
ROOT
HETATM    1  C   UNL     1      -7.652   4.177  65.568  1.00  0.00    -0.085 C  
HETATM    2  C   UNL     1      -9.137   4.469  65.882  1.00  0.00    -0.133 C  
HETATM    3  C   UNL     1      -9.528   3.571  67.082  1.00  0.00    -0.219 C  
HETATM    4  C   UNL     1      -9.958   4.018  64.652  1.00  0.00    -0.205 C  
ENDROOT
BRANCH   2   5
HETATM    5  C   UNL     1      -9.432   5.943  66.230  1.00  0.00    -0.161 A  
HETATM    6  C   UNL     1      -8.632   7.029  65.822  1.00  0.00    -0.138 A  
HETATM    7  C   UNL     1      -8.870   8.349  66.277  1.00  0.00    -0.190 A  
HETATM    8  C   UNL     1      -9.939   8.623  67.135  1.00  0.00    -0.297 A  
HETATM    9  C   UNL     1     -10.522   6.248  67.061  1.00  0.00    -0.341 A  
HETATM   10  C   UNL     1     -10.764   7.549  67.501  1.00  0.00    -0.296 A  
BRANCH   8  11
HETATM   11  C   UNL     1     -10.180   9.946  67.856  1.00  0.00    -0.193 C  
BRANCH  11  12
HETATM   12  N   UNL     1     -11.449  10.674  67.661  1.00  0.00    -0.479 NA 
HETATM   13  C   UNL     1     -12.136  11.011  68.921  1.00  0.00    -0.169 C  
HETATM   14  C   UNL     1     -11.666  12.266  69.726  1.00  0.00    -0.298 C  
HETATM   15  N   UNL     1     -11.024  13.410  69.027  1.00  0.00    -0.249 NA 
HETATM   16  C   UNL     1     -10.411  12.991  67.763  1.00  0.00    -0.228 C  
HETATM   17  C   UNL     1     -11.202  11.948  66.947  1.00  0.00    -0.325 C  
BRANCH  15  18
HETATM   18  C   UNL     1     -11.859  14.649  69.004  1.00  0.00    -0.310 C  
BRANCH  18  19
HETATM   19  C   UNL     1     -12.329  15.013  70.428  1.00  0.00    -0.401 A  
HETATM   20  C   UNL     1     -13.696  15.155  70.721  1.00  0.00    -0.244 A  
HETATM   21  C   UNL     1     -11.404  15.174  71.476  1.00  0.00    -0.388 A  
HETATM   22  C   UNL     1     -14.122  15.420  72.027  1.00  0.00    -0.647 A  
HETATM   23  C   UNL     1     -11.831  15.445  72.777  1.00  0.00    -0.563 A  
HETATM   24  C   UNL     1     -13.191  15.559  73.054  1.00  0.00    -0.648 A  
ENDBRANCH  18  19
BRANCH  18  25
HETATM   25  C   UNL     1     -11.207  15.892  68.360  1.00  0.00    -0.368 A  
HETATM   26  C   UNL     1     -10.055  18.214  67.249  1.00  0.00    -0.347 A  
HETATM   27  C   UNL     1     -10.479  17.182  66.416  1.00  0.00    -0.255 A  
HETATM   28 CL   UNL     1      -9.424  19.663  66.570  1.00  0.00    -0.434 Cl 
HETATM   29  C   UNL     1     -10.720  16.926  69.183  1.00  0.00    -0.298 A  
HETATM   30  C   UNL     1     -11.033  16.023  66.971  1.00  0.00    -0.154 A  
HETATM   31  C   UNL     1     -10.158  18.079  68.633  1.00  0.00    -0.401 A  
ENDBRANCH  18  25
ENDBRANCH  15  18
ENDBRANCH  11  12
ENDBRANCH   8  11
ENDBRANCH   2   5
TORSDOF 6
ENDMDL
MODEL       10
REMARK 921   NORMALIZED FREE ENERGY PREDICTED BY IDOCK:   -6.87 KCAL/MOL
REMARK 922        TOTAL FREE ENERGY PREDICTED BY IDOCK:   -9.85 KCAL/MOL
REMARK 923 INTER-LIGAND FREE ENERGY PREDICTED BY IDOCK:   -8.72 KCAL/MOL
REMARK 924 INTRA-LIGAND FREE ENERGY PREDICTED BY IDOCK:   -1.13 KCAL/MOL
REMARK 927      BINDING AFFINITY PREDICTED BY RF-SCORE:    0.00 PKD
ROOT
HETATM    1  C   UNL     1     -10.343  19.905  66.004  1.00  0.00    -0.591 C  
HETATM    2  C   UNL     1      -9.792  18.921  67.061  1.00  0.00    -0.368 C  
HETATM    3  C   UNL     1     -10.172  19.494  68.450  1.00  0.00    -0.536 C  
HETATM    4  C   UNL     1      -8.251  18.937  66.936  1.00  0.00    -0.276 C  
ENDROOT
BRANCH   2   5
HETATM    5  C   UNL     1     -10.340  17.484  66.934  1.00  0.00    -0.315 A  
HETATM    6  C   UNL     1     -10.904  16.754  68.000  1.00  0.00    -0.341 A  
HETATM    7  C   UNL     1     -11.270  15.393  67.865  1.00  0.00    -0.329 A  
HETATM    8  C   UNL     1     -11.108  14.730  66.645  1.00  0.00    -0.333 A  
HETATM    9  C   UNL     1     -10.222  16.810  65.709  1.00  0.00    -0.311 A  
HETATM   10  C   UNL     1     -10.594  15.472  65.572  1.00  0.00    -0.413 A  
BRANCH   8  11
HETATM   11  C   UNL     1     -11.266  13.228  66.423  1.00  0.00    -0.302 C  
BRANCH  11  12
HETATM   12  N   UNL     1     -10.074  12.362  66.352  1.00  0.00    -0.231 NA 
HETATM   13  C   UNL     1      -9.189  12.479  67.524  1.00  0.00    -0.188 C  
HETATM   14  C   UNL     1      -9.549  11.691  68.826  1.00  0.00    -0.072 C  
HETATM   15  N   UNL     1     -10.338  10.434  68.749  1.00  0.00    -0.184 NA 
HETATM   16  C   UNL     1     -11.149  10.383  67.529  1.00  0.00    -0.267 C  
HETATM   17  C   UNL     1     -10.481  10.941  66.256  1.00  0.00    -0.245 C  
BRANCH  15  18
HETATM   18  C   UNL     1      -9.558   9.210  69.103  1.00  0.00    -0.161 C  
BRANCH  18  19
HETATM   19  C   UNL     1      -9.936   8.714  70.515  1.00  0.00    -0.220 A  
HETATM   20  C   UNL     1     -11.209   8.973  71.052  1.00  0.00    -0.361 A  
HETATM   21  C   UNL     1      -9.030   7.959  71.283  1.00  0.00    -0.155 A  
HETATM   22  C   UNL     1     -11.570   8.466  72.305  1.00  0.00    -0.453 A  
HETATM   23  C   UNL     1      -9.392   7.459  72.535  1.00  0.00    -0.185 A  
HETATM   24  C   UNL     1     -10.664   7.705  73.043  1.00  0.00    -0.449 A  
ENDBRANCH  18  19
BRANCH  18  25
HETATM   25  C   UNL     1      -9.668   8.028  68.114  1.00  0.00    -0.179 A  
HETATM   26  C   UNL     1      -9.903   5.821  66.374  1.00  0.00    -0.138 A  
HETATM   27  C   UNL     1      -8.816   6.683  66.259  1.00  0.00    -0.156 A  
HETATM   28 CL   UNL     1     -10.009   4.432  65.366  1.00  0.00    -0.219 Cl 
HETATM   29  C   UNL     1     -10.785   7.174  68.173  1.00  0.00    -0.214 A  
HETATM   30  C   UNL     1      -8.711   7.788  67.111  1.00  0.00    -0.125 A  
HETATM   31  C   UNL     1     -10.898   6.077  67.317  1.00  0.00    -0.403 A  
ENDBRANCH  18  25
ENDBRANCH  15  18
ENDBRANCH  11  12
ENDBRANCH   8  11
ENDBRANCH   2   5
TORSDOF 6
ENDMDL
MODEL       11
REMARK 921   NORMALIZED FREE ENERGY PREDICTED BY IDOCK:   -6.86 KCAL/MOL
REMARK 922        TOTAL FREE ENERGY PREDICTED BY IDOCK:   -9.85 KCAL/MOL
REMARK 923 INTER-LIGAND FREE ENERGY PREDICTED BY IDOCK:   -8.95 KCAL/MOL
REMARK 924 INTRA-LIGAND FREE ENERGY PREDICTED BY IDOCK:   -0.89 KCAL/MOL
REMARK 927      BINDING AFFINITY PREDICTED BY RF-SCORE:    0.00 PKD
ROOT
HETATM    1  C   UNL     1     -10.152  19.602  68.885  1.00  0.00    -0.491 C  
HETATM    2  C   UNL     1      -9.459  19.203  67.563  1.00  0.00    -0.365 C  
HETATM    3  C   UNL     1      -7.952  19.518  67.731  1.00  0.00    -0.329 C  
HETATM    4  C   UNL     1     -10.026  20.124  66.458  1.00  0.00    -0.586 C  
ENDROOT
BRANCH   2   5
HETATM    5  C   UNL     1      -9.631  17.717  67.182  1.00  0.00    -0.276 A  
HETATM    6  C   UNL     1      -8.889  17.067  66.175  1.00  0.00    -0.251 A  
HETATM    7  C   UNL     1      -9.175  15.739  65.773  1.00  0.00    -0.255 A  
HETATM    8  C   UNL     1     -10.198  15.014  66.390  1.00  0.00    -0.286 A  
HETATM    9  C   UNL     1     -10.627  16.957  67.813  1.00  0.00    -0.340 A  
HETATM   10  C   UNL     1     -10.902  15.646  67.425  1.00  0.00    -0.315 A  
BRANCH   8  11
HETATM   11  C   UNL     1     -10.740  13.668  65.917  1.00  0.00    -0.281 C  
BRANCH  11  12
HETATM   12  N   UNL     1      -9.904  12.456  66.024  1.00  0.00    -0.255 NA 
HETATM   13  C   UNL     1      -8.892  12.529  67.091  1.00  0.00    -0.202 C  
HETATM   14  C   UNL     1      -9.323  12.229  68.564  1.00  0.00    -0.099 C  
HETATM   15  N   UNL     1     -10.475  11.332  68.842  1.00  0.00    -0.207 NA 
HETATM   16  C   UNL     1     -11.403  11.283  67.708  1.00  0.00    -0.285 C  
HETATM   17  C   UNL     1     -10.753  11.275  66.309  1.00  0.00    -0.257 C  
BRANCH  15  18
HETATM   18  C   UNL     1     -10.090  10.031  69.467  1.00  0.00    -0.227 C  
BRANCH  18  19
HETATM   19  C   UNL     1     -11.132   9.605  70.522  1.00  0.00    -0.369 A  
HETATM   20  C   UNL     1     -10.868   8.549  71.411  1.00  0.00    -0.327 A  
HETATM   21  C   UNL     1     -12.357  10.288  70.645  1.00  0.00    -0.416 A  
HETATM   22  C   UNL     1     -11.788   8.210  72.409  1.00  0.00    -0.448 A  
HETATM   23  C   UNL     1     -13.276   9.943  71.638  1.00  0.00    -0.519 A  
HETATM   24  C   UNL     1     -12.987   8.909  72.525  1.00  0.00    -0.415 A  
ENDBRANCH  18  19
BRANCH  18  25
HETATM   25  C   UNL     1      -9.857   8.855  68.492  1.00  0.00    -0.182 A  
HETATM   26  C   UNL     1      -9.374   6.761  66.667  1.00  0.00    -0.165 A  
HETATM   27  C   UNL     1     -10.648   6.937  67.199  1.00  0.00    -0.408 A  
HETATM   28 CL   UNL     1      -9.095   5.533  65.495  1.00  0.00    -0.139 Cl 
HETATM   29  C   UNL     1      -8.566   8.621  67.981  1.00  0.00    -0.137 A  
HETATM   30  C   UNL     1     -10.881   7.966  68.119  1.00  0.00     0.002 A  
HETATM   31  C   UNL     1      -8.328   7.590  67.072  1.00  0.00    -0.121 A  
ENDBRANCH  18  25
ENDBRANCH  15  18
ENDBRANCH  11  12
ENDBRANCH   8  11
ENDBRANCH   2   5
TORSDOF 6
ENDMDL
MODEL       12
REMARK 921   NORMALIZED FREE ENERGY PREDICTED BY IDOCK:   -6.86 KCAL/MOL
REMARK 922        TOTAL FREE ENERGY PREDICTED BY IDOCK:   -9.84 KCAL/MOL
REMARK 923 INTER-LIGAND FREE ENERGY PREDICTED BY IDOCK:   -8.64 KCAL/MOL
REMARK 924 INTRA-LIGAND FREE ENERGY PREDICTED BY IDOCK:   -1.20 KCAL/MOL
REMARK 927      BINDING AFFINITY PREDICTED BY RF-SCORE:    0.00 PKD
ROOT
HETATM    1  C   UNL     1      -8.299  20.255  66.979  1.00  0.00    -0.373 C  
HETATM    2  C   UNL     1      -9.609  19.449  67.128  1.00  0.00    -0.412 C  
HETATM    3  C   UNL     1     -10.531  19.868  65.955  1.00  0.00    -0.580 C  
HETATM    4  C   UNL     1     -10.271  19.901  68.450  1.00  0.00    -0.557 C  
ENDROOT
BRANCH   2   5
HETATM    5  C   UNL     1      -9.416  17.918  67.104  1.00  0.00    -0.263 A  
HETATM    6  C   UNL     1      -8.261  17.272  66.620  1.00  0.00    -0.296 A  
HETATM    7  C   UNL     1      -8.186  15.863  66.496  1.00  0.00    -0.307 A  
HETATM    8  C   UNL     1      -9.261  15.057  66.882  1.00  0.00    -0.265 A  
HETATM    9  C   UNL     1     -10.468  17.087  67.522  1.00  0.00    -0.334 A  
HETATM   10  C   UNL     1     -10.391  15.698  67.410  1.00  0.00    -0.275 A  
BRANCH   8  11
HETATM   11  C   UNL     1      -9.389  13.560  66.611  1.00  0.00    -0.245 C  
BRANCH  11  12
HETATM   12  N   UNL     1     -10.587  12.827  67.064  1.00  0.00    -0.240 NA 
HETATM   13  C   UNL     1     -11.056  11.814  66.104  1.00  0.00    -0.307 C  
HETATM   14  C   UNL     1     -10.350  10.419  66.070  1.00  0.00    -0.192 C  
HETATM   15  N   UNL     1      -9.689   9.881  67.287  1.00  0.00    -0.166 NA 
HETATM   16  C   UNL     1      -9.301  10.956  68.206  1.00  0.00    -0.168 C  
HETATM   17  C   UNL     1     -10.302  12.122  68.336  1.00  0.00    -0.229 C  
BRANCH  15  18
HETATM   18  C   UNL     1     -10.380   8.695  67.875  1.00  0.00    -0.229 C  
BRANCH  18  19
HETATM   19  C   UNL     1     -10.075   7.425  67.054  1.00  0.00    -0.328 A  
HETATM   20  C   UNL     1      -8.889   7.318  66.308  1.00  0.00    -0.179 A  
HETATM   21  C   UNL     1     -10.959   6.329  67.061  1.00  0.00    -0.442 A  
HETATM   22  C   UNL     1      -8.585   6.140  65.617  1.00  0.00    -0.148 A  
HETATM   23  C   UNL     1     -10.656   5.157  66.366  1.00  0.00    -0.336 A  
HETATM   24  C   UNL     1      -9.465   5.059  65.652  1.00  0.00    -0.153 A  
ENDBRANCH  18  19
BRANCH  18  25
HETATM   25  C   UNL     1     -10.085   8.410  69.365  1.00  0.00    -0.198 A  
HETATM   26  C   UNL     1      -9.584   7.967  72.104  1.00  0.00    -0.197 A  
HETATM   27  C   UNL     1      -8.660   7.544  71.153  1.00  0.00    -0.121 A  
HETATM   28 CL   UNL     1      -9.246   7.767  73.779  1.00  0.00    -0.339 Cl 
HETATM   29  C   UNL     1     -11.028   8.778  70.343  1.00  0.00    -0.262 A  
HETATM   30  C   UNL     1      -8.919   7.748  69.792  1.00  0.00    -0.146 A  
HETATM   31  C   UNL     1     -10.777   8.566  71.700  1.00  0.00    -0.351 A  
ENDBRANCH  18  25
ENDBRANCH  15  18
ENDBRANCH  11  12
ENDBRANCH   8  11
ENDBRANCH   2   5
TORSDOF 6
ENDMDL
MODEL       13
REMARK 921   NORMALIZED FREE ENERGY PREDICTED BY IDOCK:   -6.84 KCAL/MOL
REMARK 922        TOTAL FREE ENERGY PREDICTED BY IDOCK:   -9.82 KCAL/MOL
REMARK 923 INTER-LIGAND FREE ENERGY PREDICTED BY IDOCK:   -8.61 KCAL/MOL
REMARK 924 INTRA-LIGAND FREE ENERGY PREDICTED BY IDOCK:   -1.21 KCAL/MOL
REMARK 927      BINDING AFFINITY PREDICTED BY RF-SCORE:    0.00 PKD
ROOT
HETATM    1  C   UNL     1      -6.480   7.151  63.837  1.00  0.00    -0.044 C  
HETATM    2  C   UNL     1      -6.314   8.680  63.684  1.00  0.00    -0.081 C  
HETATM    3  C   UNL     1      -5.543   8.919  62.362  1.00  0.00    -0.083 C  
HETATM    4  C   UNL     1      -5.426   9.159  64.856  1.00  0.00    -0.046 C  
ENDROOT
BRANCH   2   5
HETATM    5  C   UNL     1      -7.645   9.461  63.648  1.00  0.00    -0.116 A  
HETATM    6  C   UNL     1      -7.996  10.381  62.640  1.00  0.00    -0.169 A  
HETATM    7  C   UNL     1      -9.169  11.170  62.721  1.00  0.00    -0.374 A  
HETATM    8  C   UNL     1     -10.041  11.039  63.805  1.00  0.00    -0.420 A  
HETATM    9  C   UNL     1      -8.554   9.318  64.708  1.00  0.00    -0.207 A  
HETATM   10  C   UNL     1      -9.715  10.087  64.783  1.00  0.00    -0.363 A  
BRANCH   8  11
HETATM   11  C   UNL     1     -11.216  11.962  64.116  1.00  0.00    -0.376 C  
BRANCH  11  12
HETATM   12  N   UNL     1     -10.980  13.394  64.383  1.00  0.00    -0.388 NA 
HETATM   13  C   UNL     1     -12.206  14.143  64.711  1.00  0.00    -0.440 C  
HETATM   14  C   UNL     1     -12.765  14.076  66.170  1.00  0.00    -0.265 C  
HETATM   15  N   UNL     1     -11.852  13.820  67.314  1.00  0.00    -0.383 NA 
HETATM   16  C   UNL     1     -10.640  13.116  66.885  1.00  0.00    -0.263 C  
HETATM   17  C   UNL     1     -10.054  13.554  65.528  1.00  0.00    -0.268 C  
BRANCH  15  18
HETATM   18  C   UNL     1     -11.676  14.994  68.220  1.00  0.00    -0.314 C  
BRANCH  18  19
HETATM   19  C   UNL     1     -12.145  14.652  69.650  1.00  0.00    -0.355 A  
HETATM   20  C   UNL     1     -12.557  15.663  70.534  1.00  0.00    -0.423 A  
HETATM   21  C   UNL     1     -12.206  13.316  70.091  1.00  0.00    -0.376 A  
HETATM   22  C   UNL     1     -13.043  15.343  71.807  1.00  0.00    -0.529 A  
HETATM   23  C   UNL     1     -12.686  13.000  71.363  1.00  0.00    -0.375 A  
HETATM   24  C   UNL     1     -13.113  14.013  72.218  1.00  0.00    -0.516 A  
ENDBRANCH  18  19
BRANCH  18  25
HETATM   25  C   UNL     1     -10.252  15.588  68.290  1.00  0.00    -0.222 A  
HETATM   26  C   UNL     1      -7.656  16.689  68.329  1.00  0.00    -0.181 A  
HETATM   27  C   UNL     1      -7.960  15.600  69.141  1.00  0.00    -0.227 A  
HETATM   28 CL   UNL     1      -6.054  17.313  68.293  1.00  0.00    -0.146 Cl 
HETATM   29  C   UNL     1      -9.933  16.722  67.520  1.00  0.00    -0.266 A  
HETATM   30  C   UNL     1      -9.254  15.067  69.134  1.00  0.00    -0.183 A  
HETATM   31  C   UNL     1      -8.646  17.263  67.533  1.00  0.00    -0.213 A  
ENDBRANCH  18  25
ENDBRANCH  15  18
ENDBRANCH  11  12
ENDBRANCH   8  11
ENDBRANCH   2   5
TORSDOF 6
ENDMDL
MODEL       14
REMARK 921   NORMALIZED FREE ENERGY PREDICTED BY IDOCK:   -6.77 KCAL/MOL
REMARK 922        TOTAL FREE ENERGY PREDICTED BY IDOCK:   -9.73 KCAL/MOL
REMARK 923 INTER-LIGAND FREE ENERGY PREDICTED BY IDOCK:   -9.54 KCAL/MOL
REMARK 924 INTRA-LIGAND FREE ENERGY PREDICTED BY IDOCK:   -0.19 KCAL/MOL
REMARK 927      BINDING AFFINITY PREDICTED BY RF-SCORE:    0.00 PKD
ROOT
HETATM    1  C   UNL     1      -7.174   5.487  66.704  1.00  0.00    -0.074 C  
HETATM    2  C   UNL     1      -8.404   5.891  65.860  1.00  0.00    -0.136 C  
HETATM    3  C   UNL     1      -9.492   4.816  66.109  1.00  0.00    -0.164 C  
HETATM    4  C   UNL     1      -7.980   5.816  64.375  1.00  0.00    -0.126 C  
ENDROOT
BRANCH   2   5
HETATM    5  C   UNL     1      -8.975   7.284  66.201  1.00  0.00    -0.179 A  
HETATM    6  C   UNL     1      -9.926   7.524  67.212  1.00  0.00    -0.273 A  
HETATM    7  C   UNL     1     -10.517   8.798  67.397  1.00  0.00    -0.349 A  
HETATM    8  C   UNL     1     -10.148   9.877  66.589  1.00  0.00    -0.297 A  
HETATM    9  C   UNL     1      -8.592   8.391  65.427  1.00  0.00    -0.193 A  
HETATM   10  C   UNL     1      -9.165   9.648  65.616  1.00  0.00    -0.270 A  
BRANCH   8  11
HETATM   11  C   UNL     1     -10.849  11.233  66.546  1.00  0.00    -0.265 C  
BRANCH  11  12
HETATM   12  N   UNL     1     -10.110  12.459  66.905  1.00  0.00    -0.218 NA 
HETATM   13  C   UNL     1     -10.660  13.680  66.291  1.00  0.00    -0.289 C  
HETATM   14  C   UNL     1     -11.900  14.366  66.953  1.00  0.00    -0.410 C  
HETATM   15  N   UNL     1     -12.153  14.218  68.410  1.00  0.00    -0.310 NA 
HETATM   16  C   UNL     1     -11.528  13.003  68.941  1.00  0.00    -0.299 C  
HETATM   17  C   UNL     1     -10.137  12.660  68.372  1.00  0.00    -0.222 C  
BRANCH  15  18
HETATM   18  C   UNL     1     -11.964  15.480  69.186  1.00  0.00    -0.309 C  
BRANCH  18  19
HETATM   19  C   UNL     1     -12.237  15.241  70.686  1.00  0.00    -0.412 A  
HETATM   20  C   UNL     1     -11.655  16.065  71.664  1.00  0.00    -0.538 A  
HETATM   21  C   UNL     1     -13.104  14.216  71.109  1.00  0.00    -0.398 A  
HETATM   22  C   UNL     1     -11.956  15.886  73.019  1.00  0.00    -0.596 A  
HETATM   23  C   UNL     1     -13.398  14.036  72.462  1.00  0.00    -0.639 A  
HETATM   24  C   UNL     1     -12.831  14.877  73.416  1.00  0.00    -0.638 A  
ENDBRANCH  18  19
BRANCH  18  25
HETATM   25  C   UNL     1     -10.591  16.170  69.032  1.00  0.00    -0.273 A  
HETATM   26  C   UNL     1      -8.114  17.471  68.675  1.00  0.00    -0.263 A  
HETATM   27  C   UNL     1      -8.151  16.176  69.186  1.00  0.00    -0.230 A  
HETATM   28 CL   UNL     1      -6.602  18.237  68.385  1.00  0.00    -0.206 Cl 
HETATM   29  C   UNL     1     -10.529  17.499  68.570  1.00  0.00    -0.361 A  
HETATM   30  C   UNL     1      -9.382  15.539  69.379  1.00  0.00    -0.279 A  
HETATM   31  C   UNL     1      -9.303  18.140  68.385  1.00  0.00    -0.319 A  
ENDBRANCH  18  25
ENDBRANCH  15  18
ENDBRANCH  11  12
ENDBRANCH   8  11
ENDBRANCH   2   5
TORSDOF 6
ENDMDL
MODEL       15
REMARK 921   NORMALIZED FREE ENERGY PREDICTED BY IDOCK:   -6.74 KCAL/MOL
REMARK 922        TOTAL FREE ENERGY PREDICTED BY IDOCK:   -9.69 KCAL/MOL
REMARK 923 INTER-LIGAND FREE ENERGY PREDICTED BY IDOCK:   -8.88 KCAL/MOL
REMARK 924 INTRA-LIGAND FREE ENERGY PREDICTED BY IDOCK:   -0.80 KCAL/MOL
REMARK 927      BINDING AFFINITY PREDICTED BY RF-SCORE:    0.00 PKD
ROOT
HETATM    1  C   UNL     1      -9.779   3.930  68.922  1.00  0.00    -0.121 C  
HETATM    2  C   UNL     1      -9.531   5.184  69.791  1.00  0.00    -0.210 C  
HETATM    3  C   UNL     1      -8.011   5.232  70.087  1.00  0.00    -0.080 C  
HETATM    4  C   UNL     1     -10.278   4.964  71.127  1.00  0.00    -0.261 C  
ENDROOT
BRANCH   2   5
HETATM    5  C   UNL     1      -9.966   6.509  69.129  1.00  0.00    -0.163 A  
HETATM    6  C   UNL     1     -10.552   6.601  67.851  1.00  0.00    -0.305 A  
HETATM    7  C   UNL     1     -10.810   7.849  67.233  1.00  0.00    -0.189 A  
HETATM    8  C   UNL     1     -10.513   9.044  67.894  1.00  0.00    -0.291 A  
HETATM    9  C   UNL     1      -9.711   7.722  69.789  1.00  0.00    -0.176 A  
HETATM   10  C   UNL     1      -9.976   8.951  69.186  1.00  0.00    -0.192 A  
BRANCH   8  11
HETATM   11  C   UNL     1     -10.548  10.436  67.268  1.00  0.00    -0.267 C  
BRANCH  11  12
HETATM   12  N   UNL     1     -11.737  11.293  67.437  1.00  0.00    -0.584 NA 
HETATM   13  C   UNL     1     -12.013  11.650  68.839  1.00  0.00    -0.292 C  
HETATM   14  C   UNL     1     -11.212  12.822  69.494  1.00  0.00    -0.077 C  
HETATM   15  N   UNL     1     -10.668  13.921  68.655  1.00  0.00    -0.255 NA 
HETATM   16  C   UNL     1     -10.472  13.490  67.267  1.00  0.00    -0.248 C  
HETATM   17  C   UNL     1     -11.561  12.562  66.692  1.00  0.00    -0.380 C  
BRANCH  15  18
HETATM   18  C   UNL     1     -11.341  15.236  68.873  1.00  0.00    -0.305 C  
BRANCH  18  19
HETATM   19  C   UNL     1     -11.916  15.321  70.303  1.00  0.00    -0.367 A  
HETATM   20  C   UNL     1     -13.283  15.101  70.543  1.00  0.00    -0.268 A  
HETATM   21  C   UNL     1     -11.080  15.583  71.404  1.00  0.00    -0.318 A  
HETATM   22  C   UNL     1     -13.789  15.114  71.847  1.00  0.00    -0.607 A  
HETATM   23  C   UNL     1     -11.589  15.601  72.704  1.00  0.00    -0.484 A  
HETATM   24  C   UNL     1     -12.941  15.358  72.926  1.00  0.00    -0.577 A  
ENDBRANCH  18  19
BRANCH  18  25
HETATM   25  C   UNL     1     -10.478  16.490  68.607  1.00  0.00    -0.304 A  
HETATM   26  C   UNL     1      -8.847  18.751  68.186  1.00  0.00    -0.306 A  
HETATM   27  C   UNL     1     -10.230  18.861  68.066  1.00  0.00    -0.452 A  
HETATM   28 CL   UNL     1      -7.855  20.145  68.006  1.00  0.00    -0.286 Cl 
HETATM   29  C   UNL     1      -9.075  16.394  68.667  1.00  0.00    -0.233 A  
HETATM   30  C   UNL     1     -11.036  17.733  68.257  1.00  0.00    -0.006 A  
HETATM   31  C   UNL     1      -8.267  17.515  68.467  1.00  0.00    -0.278 A  
ENDBRANCH  18  25
ENDBRANCH  15  18
ENDBRANCH  11  12
ENDBRANCH   8  11
ENDBRANCH   2   5
TORSDOF 6
ENDMDL
MODEL       16
REMARK 921   NORMALIZED FREE ENERGY PREDICTED BY IDOCK:   -6.67 KCAL/MOL
REMARK 922        TOTAL FREE ENERGY PREDICTED BY IDOCK:   -9.58 KCAL/MOL
REMARK 923 INTER-LIGAND FREE ENERGY PREDICTED BY IDOCK:   -8.35 KCAL/MOL
REMARK 924 INTRA-LIGAND FREE ENERGY PREDICTED BY IDOCK:   -1.24 KCAL/MOL
REMARK 927      BINDING AFFINITY PREDICTED BY RF-SCORE:    0.00 PKD
ROOT
HETATM    1  C   UNL     1     -10.279  19.557  68.218  1.00  0.00    -0.552 C  
HETATM    2  C   UNL     1      -9.961  18.871  66.871  1.00  0.00    -0.391 C  
HETATM    3  C   UNL     1      -8.428  18.971  66.666  1.00  0.00    -0.311 C  
HETATM    4  C   UNL     1     -10.653  19.700  65.765  1.00  0.00    -0.537 C  
ENDROOT
BRANCH   2   5
HETATM    5  C   UNL     1     -10.390  17.390  66.798  1.00  0.00    -0.305 A  
HETATM    6  C   UNL     1     -10.902  16.659  67.888  1.00  0.00    -0.321 A  
HETATM    7  C   UNL     1     -11.156  15.268  67.805  1.00  0.00    -0.318 A  
HETATM    8  C   UNL     1     -10.930  14.574  66.614  1.00  0.00    -0.321 A  
HETATM    9  C   UNL     1     -10.206  16.680  65.601  1.00  0.00    -0.285 A  
HETATM   10  C   UNL     1     -10.467  15.312  65.515  1.00  0.00    -0.396 A  
BRANCH   8  11
HETATM   11  C   UNL     1     -10.964  13.056  66.451  1.00  0.00    -0.281 C  
BRANCH  11  12
HETATM   12  N   UNL     1      -9.718  12.273  66.562  1.00  0.00    -0.228 NA 
HETATM   13  C   UNL     1      -9.117  12.306  67.906  1.00  0.00    -0.190 C  
HETATM   14  C   UNL     1      -9.683  11.356  69.012  1.00  0.00    -0.012 C  
HETATM   15  N   UNL     1     -10.334  10.073  68.639  1.00  0.00    -0.181 NA 
HETATM   16  C   UNL     1     -10.858  10.115  67.271  1.00  0.00    -0.230 C  
HETATM   17  C   UNL     1      -9.980  10.851  66.238  1.00  0.00    -0.227 C  
BRANCH  15  18
HETATM   18  C   UNL     1      -9.553   8.864  69.035  1.00  0.00    -0.158 C  
BRANCH  18  19
HETATM   19  C   UNL     1      -9.937   8.411  70.460  1.00  0.00    -0.205 A  
HETATM   20  C   UNL     1      -9.032   7.687  71.254  1.00  0.00    -0.141 A  
HETATM   21  C   UNL     1     -11.188   8.746  71.012  1.00  0.00    -0.329 A  
HETATM   22  C   UNL     1      -9.359   7.336  72.569  1.00  0.00    -0.174 A  
HETATM   23  C   UNL     1     -11.513   8.389  72.322  1.00  0.00    -0.454 A  
HETATM   24  C   UNL     1     -10.596   7.692  73.103  1.00  0.00    -0.438 A  
ENDBRANCH  18  19
BRANCH  18  25
HETATM   25  C   UNL     1      -9.653   7.651  68.083  1.00  0.00    -0.158 A  
HETATM   26  C   UNL     1      -9.791   5.486  66.281  1.00  0.00    -0.145 A  
HETATM   27  C   UNL     1     -10.858   5.747  67.136  1.00  0.00    -0.308 A  
HETATM   28 CL   UNL     1      -9.903   4.214  65.129  1.00  0.00    -0.196 Cl 
HETATM   29  C   UNL     1      -8.566   7.333  67.247  1.00  0.00    -0.121 A  
HETATM   30  C   UNL     1     -10.780   6.811  68.042  1.00  0.00    -0.302 A  
HETATM   31  C   UNL     1      -8.637   6.266  66.349  1.00  0.00    -0.133 A  
ENDBRANCH  18  25
ENDBRANCH  15  18
ENDBRANCH  11  12
ENDBRANCH   8  11
ENDBRANCH   2   5
TORSDOF 6
ENDMDL
MODEL       17
REMARK 921   NORMALIZED FREE ENERGY PREDICTED BY IDOCK:   -6.61 KCAL/MOL
REMARK 922        TOTAL FREE ENERGY PREDICTED BY IDOCK:   -9.50 KCAL/MOL
REMARK 923 INTER-LIGAND FREE ENERGY PREDICTED BY IDOCK:   -8.92 KCAL/MOL
REMARK 924 INTRA-LIGAND FREE ENERGY PREDICTED BY IDOCK:   -0.58 KCAL/MOL
REMARK 927      BINDING AFFINITY PREDICTED BY RF-SCORE:    0.00 PKD
ROOT
HETATM    1  C   UNL     1      -9.606   2.934  64.556  1.00  0.00    -0.142 C  
HETATM    2  C   UNL     1      -9.015   3.046  65.980  1.00  0.00    -0.147 C  
HETATM    3  C   UNL     1      -7.496   3.308  65.817  1.00  0.00    -0.073 C  
HETATM    4  C   UNL     1      -9.199   1.668  66.657  1.00  0.00     0.009 C  
ENDROOT
BRANCH   2   5
HETATM    5  C   UNL     1      -9.637   4.169  66.837  1.00  0.00    -0.232 A  
HETATM    6  C   UNL     1     -10.459   5.192  66.326  1.00  0.00    -0.341 A  
HETATM    7  C   UNL     1     -10.897   6.274  67.130  1.00  0.00    -0.460 A  
HETATM    8  C   UNL     1     -10.545   6.344  68.480  1.00  0.00    -0.302 A  
HETATM    9  C   UNL     1      -9.328   4.240  68.205  1.00  0.00    -0.204 A  
HETATM   10  C   UNL     1      -9.768   5.299  68.999  1.00  0.00    -0.217 A  
BRANCH   8  11
HETATM   11  C   UNL     1     -10.773   7.545  69.395  1.00  0.00    -0.193 C  
BRANCH  11  12
HETATM   12  N   UNL     1      -9.773   8.629  69.454  1.00  0.00    -0.174 NA 
HETATM   13  C   UNL     1      -9.506   9.257  68.148  1.00  0.00    -0.138 C  
HETATM   14  C   UNL     1     -10.494  10.346  67.615  1.00  0.00    -0.233 C  
HETATM   15  N   UNL     1     -11.289  11.168  68.564  1.00  0.00    -0.256 NA 
HETATM   16  C   UNL     1     -11.462  10.486  69.850  1.00  0.00    -0.310 C  
HETATM   17  C   UNL     1     -10.238   9.702  70.364  1.00  0.00    -0.288 C  
BRANCH  15  18
HETATM   18  C   UNL     1     -10.885  12.605  68.602  1.00  0.00    -0.249 C  
BRANCH  18  19
HETATM   19  C   UNL     1     -11.113  13.270  67.227  1.00  0.00    -0.301 A  
HETATM   20  C   UNL     1     -12.403  13.366  66.679  1.00  0.00    -0.324 A  
HETATM   21  C   UNL     1     -10.040  13.829  66.508  1.00  0.00    -0.286 A  
HETATM   22  C   UNL     1     -12.614  14.027  65.465  1.00  0.00    -0.543 A  
HETATM   23  C   UNL     1     -10.253  14.483  65.293  1.00  0.00    -0.431 A  
HETATM   24  C   UNL     1     -11.541  14.590  64.776  1.00  0.00    -0.414 A  
ENDBRANCH  18  19
BRANCH  18  25
HETATM   25  C   UNL     1     -11.557  13.469  69.692  1.00  0.00    -0.340 A  
HETATM   26  C   UNL     1     -12.705  15.087  71.696  1.00  0.00    -0.340 A  
HETATM   27  C   UNL     1     -13.134  13.772  71.535  1.00  0.00    -0.435 A  
HETATM   28 CL   UNL     1     -13.347  16.051  72.967  1.00  0.00    -0.618 Cl 
HETATM   29  C   UNL     1     -11.181  14.818  69.839  1.00  0.00    -0.293 A  
HETATM   30  C   UNL     1     -12.576  12.977  70.527  1.00  0.00    -0.220 A  
HETATM   31  C   UNL     1     -11.743  15.617  70.837  1.00  0.00    -0.423 A  
ENDBRANCH  18  25
ENDBRANCH  15  18
ENDBRANCH  11  12
ENDBRANCH   8  11
ENDBRANCH   2   5
TORSDOF 6
ENDMDL
MODEL       18
REMARK 921   NORMALIZED FREE ENERGY PREDICTED BY IDOCK:   -6.61 KCAL/MOL
REMARK 922        TOTAL FREE ENERGY PREDICTED BY IDOCK:   -9.50 KCAL/MOL
REMARK 923 INTER-LIGAND FREE ENERGY PREDICTED BY IDOCK:   -8.39 KCAL/MOL
REMARK 924 INTRA-LIGAND FREE ENERGY PREDICTED BY IDOCK:   -1.11 KCAL/MOL
REMARK 927      BINDING AFFINITY PREDICTED BY RF-SCORE:    0.00 PKD
ROOT
HETATM    1  C   UNL     1     -10.543  19.821  65.877  1.00  0.00    -0.557 C  
HETATM    2  C   UNL     1      -9.700  19.158  66.990  1.00  0.00    -0.389 C  
HETATM    3  C   UNL     1     -10.082  19.857  68.319  1.00  0.00    -0.571 C  
HETATM    4  C   UNL     1      -8.218  19.474  66.685  1.00  0.00    -0.329 C  
ENDROOT
BRANCH   2   5
HETATM    5  C   UNL     1      -9.921  17.637  67.130  1.00  0.00    -0.316 A  
HETATM    6  C   UNL     1     -10.778  17.046  68.080  1.00  0.00    -0.365 A  
HETATM    7  C   UNL     1     -10.846  15.642  68.257  1.00  0.00    -0.298 A  
HETATM    8  C   UNL     1     -10.074  14.788  67.465  1.00  0.00    -0.224 A  
HETATM    9  C   UNL     1      -9.185  16.758  66.320  1.00  0.00    -0.313 A  
HETATM   10  C   UNL     1      -9.259  15.376  66.487  1.00  0.00    -0.323 A  
BRANCH   8  11
HETATM   11  C   UNL     1      -9.899  13.288  67.689  1.00  0.00    -0.230 C  
BRANCH  11  12
HETATM   12  N   UNL     1     -11.082  12.415  67.813  1.00  0.00    -0.233 NA 
HETATM   13  C   UNL     1     -11.251  11.487  66.682  1.00  0.00    -0.271 C  
HETATM   14  C   UNL     1     -10.416  10.165  66.656  1.00  0.00    -0.185 C  
HETATM   15  N   UNL     1      -9.954   9.543  67.924  1.00  0.00    -0.164 NA 
HETATM   16  C   UNL     1      -9.863  10.531  69.004  1.00  0.00    -0.212 C  
HETATM   17  C   UNL     1     -10.982  11.591  69.040  1.00  0.00    -0.234 C  
BRANCH  15  18
HETATM   18  C   UNL     1     -10.625   8.246  68.239  1.00  0.00    -0.103 C  
BRANCH  18  19
HETATM   19  C   UNL     1     -10.090   7.122  67.327  1.00  0.00    -0.278 A  
HETATM   20  C   UNL     1     -10.879   5.998  67.030  1.00  0.00    -0.413 A  
HETATM   21  C   UNL     1      -8.813   7.213  66.741  1.00  0.00    -0.137 A  
HETATM   22  C   UNL     1     -10.415   5.013  66.151  1.00  0.00    -0.334 A  
HETATM   23  C   UNL     1      -8.351   6.226  65.869  1.00  0.00    -0.142 A  
HETATM   24  C   UNL     1      -9.155   5.131  65.567  1.00  0.00    -0.157 A  
ENDBRANCH  18  19
BRANCH  18  25
HETATM   25  C   UNL     1     -10.540   7.780  69.709  1.00  0.00    -0.241 A  
HETATM   26  C   UNL     1     -10.435   7.001  72.417  1.00  0.00    -0.209 A  
HETATM   27  C   UNL     1      -9.336   6.787  71.590  1.00  0.00    -0.151 A  
HETATM   28 CL   UNL     1     -10.346   6.597  74.087  1.00  0.00    -0.387 Cl 
HETATM   29  C   UNL     1     -11.657   7.934  70.553  1.00  0.00    -0.155 A  
HETATM   30  C   UNL     1      -9.397   7.158  70.242  1.00  0.00    -0.155 A  
HETATM   31  C   UNL     1     -11.603   7.556  71.895  1.00  0.00    -0.312 A  
ENDBRANCH  18  25
ENDBRANCH  15  18
ENDBRANCH  11  12
ENDBRANCH   8  11
ENDBRANCH   2   5
TORSDOF 6
ENDMDL
MODEL       19
REMARK 921   NORMALIZED FREE ENERGY PREDICTED BY IDOCK:   -6.55 KCAL/MOL
REMARK 922        TOTAL FREE ENERGY PREDICTED BY IDOCK:   -9.42 KCAL/MOL
REMARK 923 INTER-LIGAND FREE ENERGY PREDICTED BY IDOCK:   -8.40 KCAL/MOL
REMARK 924 INTRA-LIGAND FREE ENERGY PREDICTED BY IDOCK:   -1.02 KCAL/MOL
REMARK 927      BINDING AFFINITY PREDICTED BY RF-SCORE:    0.00 PKD
ROOT
HETATM    1  C   UNL     1     -10.465   6.601  73.587  1.00  0.00    -0.353 C  
HETATM    2  C   UNL     1     -10.691   6.337  72.081  1.00  0.00    -0.269 C  
HETATM    3  C   UNL     1     -12.198   6.565  71.806  1.00  0.00    -0.374 C  
HETATM    4  C   UNL     1     -10.373   4.845  71.830  1.00  0.00    -0.249 C  
ENDROOT
BRANCH   2   5
HETATM    5  C   UNL     1      -9.858   7.241  71.148  1.00  0.00    -0.182 A  
HETATM    6  C   UNL     1      -8.871   6.768  70.260  1.00  0.00    -0.152 A  
HETATM    7  C   UNL     1      -8.043   7.649  69.522  1.00  0.00    -0.127 A  
HETATM    8  C   UNL     1      -8.201   9.033  69.632  1.00  0.00    -0.116 A  
HETATM    9  C   UNL     1     -10.024   8.634  71.213  1.00  0.00    -0.315 A  
HETATM   10  C   UNL     1      -9.217   9.501  70.479  1.00  0.00    -0.284 A  
BRANCH   8  11
HETATM   11  C   UNL     1      -7.251  10.083  69.060  1.00  0.00    -0.076 C  
BRANCH  11  12
HETATM   12  N   UNL     1      -7.360  10.485  67.645  1.00  0.00    -0.086 NA 
HETATM   13  C   UNL     1      -8.743  10.495  67.139  1.00  0.00    -0.130 C  
HETATM   14  C   UNL     1      -9.652  11.730  67.446  1.00  0.00    -0.168 C  
HETATM   15  N   UNL     1      -9.049  13.069  67.671  1.00  0.00    -0.187 NA 
HETATM   16  C   UNL     1      -7.659  12.962  68.125  1.00  0.00    -0.135 C  
HETATM   17  C   UNL     1      -6.820  11.852  67.460  1.00  0.00    -0.124 C  
BRANCH  15  18
HETATM   18  C   UNL     1      -9.340  14.052  66.585  1.00  0.00    -0.277 C  
BRANCH  18  19
HETATM   19  C   UNL     1     -10.494  13.550  65.692  1.00  0.00    -0.296 A  
HETATM   20  C   UNL     1     -11.833  13.714  66.086  1.00  0.00    -0.424 A  
HETATM   21  C   UNL     1     -10.235  12.950  64.445  1.00  0.00    -0.342 A  
HETATM   22  C   UNL     1     -12.877  13.317  65.245  1.00  0.00    -0.368 A  
HETATM   23  C   UNL     1     -11.280  12.550  63.610  1.00  0.00    -0.545 A  
HETATM   24  C   UNL     1     -12.600  12.741  64.006  1.00  0.00    -0.379 A  
ENDBRANCH  18  19
BRANCH  18  25
HETATM   25  C   UNL     1      -9.654  15.494  67.043  1.00  0.00    -0.233 A  
HETATM   26  C   UNL     1     -10.161  18.155  67.825  1.00  0.00    -0.383 A  
HETATM   27  C   UNL     1     -10.296  17.123  68.749  1.00  0.00    -0.353 A  
HETATM   28 CL   UNL     1     -10.395  19.786  68.319  1.00  0.00    -0.561 Cl 
HETATM   29  C   UNL     1      -9.579  16.550  66.115  1.00  0.00    -0.344 A  
HETATM   30  C   UNL     1     -10.061  15.801  68.354  1.00  0.00    -0.222 A  
HETATM   31  C   UNL     1      -9.822  17.868  66.503  1.00  0.00    -0.343 A  
ENDBRANCH  18  25
ENDBRANCH  15  18
ENDBRANCH  11  12
ENDBRANCH   8  11
ENDBRANCH   2   5
TORSDOF 6
ENDMDL
MODEL       20
REMARK 921   NORMALIZED FREE ENERGY PREDICTED BY IDOCK:   -6.54 KCAL/MOL
REMARK 922        TOTAL FREE ENERGY PREDICTED BY IDOCK:   -9.42 KCAL/MOL
REMARK 923 INTER-LIGAND FREE ENERGY PREDICTED BY IDOCK:   -8.19 KCAL/MOL
REMARK 924 INTRA-LIGAND FREE ENERGY PREDICTED BY IDOCK:   -1.22 KCAL/MOL
REMARK 927      BINDING AFFINITY PREDICTED BY RF-SCORE:    0.00 PKD
ROOT
HETATM    1  C   UNL     1     -12.057  15.569  72.508  1.00  0.00    -0.536 C  
HETATM    2  C   UNL     1     -12.906  14.987  71.355  1.00  0.00    -0.432 C  
HETATM    3  C   UNL     1     -12.386  15.629  70.044  1.00  0.00    -0.304 C  
HETATM    4  C   UNL     1     -14.361  15.458  71.581  1.00  0.00    -0.615 C  
ENDROOT
BRANCH   2   5
HETATM    5  C   UNL     1     -12.838  13.450  71.232  1.00  0.00    -0.407 A  
HETATM    6  C   UNL     1     -13.461  12.555  72.126  1.00  0.00    -0.523 A  
HETATM    7  C   UNL     1     -13.259  11.156  72.047  1.00  0.00    -0.428 A  
HETATM    8  C   UNL     1     -12.446  10.609  71.051  1.00  0.00    -0.515 A  
HETATM    9  C   UNL     1     -12.057  12.876  70.217  1.00  0.00    -0.377 A  
HETATM   10  C   UNL     1     -11.866  11.497  70.133  1.00  0.00    -0.440 A  
BRANCH   8  11
HETATM   11  C   UNL     1     -11.984   9.156  70.981  1.00  0.00    -0.282 C  
BRANCH  11  12
HETATM   12  N   UNL     1     -10.546   8.842  70.869  1.00  0.00    -0.207 NA 
HETATM   13  C   UNL     1      -9.910   8.523  72.159  1.00  0.00    -0.318 C  
HETATM   14  C   UNL     1     -10.067   7.082  72.745  1.00  0.00    -0.185 C  
HETATM   15  N   UNL     1     -10.283   5.923  71.840  1.00  0.00    -0.198 NA 
HETATM   16  C   UNL     1     -10.873   6.341  70.565  1.00  0.00    -0.288 C  
HETATM   17  C   UNL     1     -10.348   7.670  69.986  1.00  0.00    -0.223 C  
BRANCH  15  18
HETATM   18  C   UNL     1      -9.127   4.979  71.782  1.00  0.00    -0.137 C  
BRANCH  18  19
HETATM   19  C   UNL     1      -9.327   3.813  72.774  1.00  0.00    -0.143 A  
HETATM   20  C   UNL     1     -10.617   3.382  73.127  1.00  0.00    -0.270 A  
HETATM   21  C   UNL     1      -8.224   3.130  73.319  1.00  0.00    -0.073 A  
HETATM   22  C   UNL     1     -10.794   2.282  73.974  1.00  0.00    -0.254 A  
HETATM   23  C   UNL     1      -8.403   2.037  74.168  1.00  0.00    -0.058 A  
HETATM   24  C   UNL     1      -9.688   1.608  74.490  1.00  0.00    -0.107 A  
ENDBRANCH  18  19
BRANCH  18  25
HETATM   25  C   UNL     1      -8.797   4.398  70.389  1.00  0.00    -0.133 A  
HETATM   26  C   UNL     1      -8.174   3.423  67.818  1.00  0.00    -0.080 A  
HETATM   27  C   UNL     1      -9.210   2.845  68.547  1.00  0.00    -0.239 A  
HETATM   28 CL   UNL     1      -7.843   2.881  66.219  1.00  0.00    -0.080 Cl 
HETATM   29  C   UNL     1      -7.720   4.928  69.654  1.00  0.00    -0.063 A  
HETATM   30  C   UNL     1      -9.505   3.319  69.831  1.00  0.00    -0.216 A  
HETATM   31  C   UNL     1      -7.416   4.451  68.377  1.00  0.00    -0.064 A  
ENDBRANCH  18  25
ENDBRANCH  15  18
ENDBRANCH  11  12
ENDBRANCH   8  11
ENDBRANCH   2   5
TORSDOF 6
ENDMDL
MODEL       21
REMARK 921   NORMALIZED FREE ENERGY PREDICTED BY IDOCK:   -6.54 KCAL/MOL
REMARK 922        TOTAL FREE ENERGY PREDICTED BY IDOCK:   -9.41 KCAL/MOL
REMARK 923 INTER-LIGAND FREE ENERGY PREDICTED BY IDOCK:   -8.57 KCAL/MOL
REMARK 924 INTRA-LIGAND FREE ENERGY PREDICTED BY IDOCK:   -0.84 KCAL/MOL
REMARK 927      BINDING AFFINITY PREDICTED BY RF-SCORE:    0.00 PKD
ROOT
HETATM    1  C   UNL     1     -10.254  19.696  68.412  1.00  0.00    -0.553 C  
HETATM    2  C   UNL     1      -9.789  19.021  67.102  1.00  0.00    -0.383 C  
HETATM    3  C   UNL     1      -8.295  19.384  66.914  1.00  0.00    -0.308 C  
HETATM    4  C   UNL     1     -10.593  19.667  65.949  1.00  0.00    -0.566 C  
ENDROOT
BRANCH   2   5
HETATM    5  C   UNL     1      -9.947  17.486  67.089  1.00  0.00    -0.314 A  
HETATM    6  C   UNL     1     -10.711  16.761  68.025  1.00  0.00    -0.355 A  
HETATM    7  C   UNL     1     -10.717  15.345  68.052  1.00  0.00    -0.279 A  
HETATM    8  C   UNL     1      -9.977  14.613  67.119  1.00  0.00    -0.240 A  
HETATM    9  C   UNL     1      -9.242  16.730  66.139  1.00  0.00    -0.284 A  
HETATM   10  C   UNL     1      -9.256  15.336  66.158  1.00  0.00    -0.345 A  
BRANCH   8  11
HETATM   11  C   UNL     1      -9.734  13.107  67.166  1.00  0.00    -0.235 C  
BRANCH  11  12
HETATM   12  N   UNL     1     -10.869  12.170  67.056  1.00  0.00    -0.237 NA 
HETATM   13  C   UNL     1     -10.584  10.992  66.218  1.00  0.00    -0.237 C  
HETATM   14  C   UNL     1      -9.797   9.793  66.842  1.00  0.00    -0.201 C  
HETATM   15  N   UNL     1      -9.860   9.533  68.304  1.00  0.00    -0.151 NA 
HETATM   16  C   UNL     1     -10.197  10.748  69.051  1.00  0.00    -0.213 C  
HETATM   17  C   UNL     1     -11.247  11.669  68.397  1.00  0.00    -0.249 C  
BRANCH  15  18
HETATM   18  C   UNL     1     -10.594   8.283  68.664  1.00  0.00    -0.108 C  
BRANCH  18  19
HETATM   19  C   UNL     1     -10.103   7.098  67.805  1.00  0.00    -0.215 A  
HETATM   20  C   UNL     1      -8.736   6.784  67.727  1.00  0.00    -0.120 A  
HETATM   21  C   UNL     1     -11.015   6.281  67.111  1.00  0.00    -0.453 A  
HETATM   22  C   UNL     1      -8.301   5.670  67.002  1.00  0.00    -0.107 A  
HETATM   23  C   UNL     1     -10.578   5.174  66.383  1.00  0.00    -0.336 A  
HETATM   24  C   UNL     1      -9.222   4.863  66.335  1.00  0.00    -0.138 A  
ENDBRANCH  18  19
BRANCH  18  25
HETATM   25  C   UNL     1     -10.547   7.875  70.153  1.00  0.00    -0.237 A  
HETATM   26  C   UNL     1     -10.370   7.117  72.863  1.00  0.00    -0.247 A  
HETATM   27  C   UNL     1     -11.492   6.769  72.117  1.00  0.00    -0.319 A  
HETATM   28 CL   UNL     1     -10.225   6.589  74.493  1.00  0.00    -0.356 Cl 
HETATM   29  C   UNL     1      -9.448   8.261  70.944  1.00  0.00    -0.192 A  
HETATM   30  C   UNL     1     -11.586   7.162  70.777  1.00  0.00    -0.358 A  
HETATM   31  C   UNL     1      -9.356   7.879  72.284  1.00  0.00    -0.238 A  
ENDBRANCH  18  25
ENDBRANCH  15  18
ENDBRANCH  11  12
ENDBRANCH   8  11
ENDBRANCH   2   5
TORSDOF 6
ENDMDL
MODEL       22
REMARK 921   NORMALIZED FREE ENERGY PREDICTED BY IDOCK:   -6.54 KCAL/MOL
REMARK 922        TOTAL FREE ENERGY PREDICTED BY IDOCK:   -9.41 KCAL/MOL
REMARK 923 INTER-LIGAND FREE ENERGY PREDICTED BY IDOCK:   -8.51 KCAL/MOL
REMARK 924 INTRA-LIGAND FREE ENERGY PREDICTED BY IDOCK:   -0.90 KCAL/MOL
REMARK 927      BINDING AFFINITY PREDICTED BY RF-SCORE:    0.00 PKD
ROOT
HETATM    1  C   UNL     1      -8.213   3.608  62.859  1.00  0.00    -0.080 C  
HETATM    2  C   UNL     1      -9.387   3.456  63.853  1.00  0.00    -0.126 C  
HETATM    3  C   UNL     1      -9.275   2.039  64.469  1.00  0.00    -0.132 C  
HETATM    4  C   UNL     1     -10.692   3.524  63.027  1.00  0.00    -0.201 C  
ENDROOT
BRANCH   2   5
HETATM    5  C   UNL     1      -9.397   4.506  64.985  1.00  0.00    -0.157 A  
HETATM    6  C   UNL     1     -10.464   4.686  65.888  1.00  0.00    -0.305 A  
HETATM    7  C   UNL     1     -10.482   5.749  66.824  1.00  0.00    -0.350 A  
HETATM    8  C   UNL     1      -9.414   6.647  66.900  1.00  0.00    -0.184 A  
HETATM    9  C   UNL     1      -8.319   5.397  65.105  1.00  0.00    -0.144 A  
HETATM   10  C   UNL     1      -8.331   6.437  66.034  1.00  0.00    -0.132 A  
BRANCH   8  11
HETATM   11  C   UNL     1      -9.401   7.942  67.709  1.00  0.00    -0.140 C  
BRANCH  11  12
HETATM   12  N   UNL     1      -9.011   9.212  67.066  1.00  0.00    -0.122 NA 
HETATM   13  C   UNL     1     -10.125   9.895  66.386  1.00  0.00    -0.240 C  
HETATM   14  C   UNL     1     -11.115  10.757  67.236  1.00  0.00    -0.270 C  
HETATM   15  N   UNL     1     -10.667  11.383  68.506  1.00  0.00    -0.190 NA 
HETATM   16  C   UNL     1      -9.526  10.667  69.084  1.00  0.00    -0.170 C  
HETATM   17  C   UNL     1      -8.477  10.153  68.078  1.00  0.00    -0.118 C  
BRANCH  15  18
HETATM   18  C   UNL     1     -10.579  12.873  68.446  1.00  0.00    -0.253 C  
BRANCH  18  19
HETATM   19  C   UNL     1     -11.025  13.388  67.061  1.00  0.00    -0.298 A  
HETATM   20  C   UNL     1     -12.387  13.558  66.760  1.00  0.00    -0.326 A  
HETATM   21  C   UNL     1     -10.078  13.735  66.079  1.00  0.00    -0.320 A  
HETATM   22  C   UNL     1     -12.785  14.087  65.528  1.00  0.00    -0.517 A  
HETATM   23  C   UNL     1     -10.478  14.257  64.848  1.00  0.00    -0.454 A  
HETATM   24  C   UNL     1     -11.831  14.441  64.575  1.00  0.00    -0.463 A  
ENDBRANCH  18  19
BRANCH  18  25
HETATM   25  C   UNL     1     -11.355  13.642  69.538  1.00  0.00    -0.276 A  
HETATM   26  C   UNL     1     -12.844  14.989  71.518  1.00  0.00    -0.347 A  
HETATM   27  C   UNL     1     -11.973  15.702  70.699  1.00  0.00    -0.438 A  
HETATM   28 CL   UNL     1     -13.809  15.819  72.674  1.00  0.00    -0.642 Cl 
HETATM   29  C   UNL     1     -12.201  12.936  70.415  1.00  0.00    -0.381 A  
HETATM   30  C   UNL     1     -11.221  15.029  69.729  1.00  0.00    -0.301 A  
HETATM   31  C   UNL     1     -12.944  13.604  71.390  1.00  0.00    -0.427 A  
ENDBRANCH  18  25
ENDBRANCH  15  18
ENDBRANCH  11  12
ENDBRANCH   8  11
ENDBRANCH   2   5
TORSDOF 6
ENDMDL
MODEL       23
REMARK 921   NORMALIZED FREE ENERGY PREDICTED BY IDOCK:   -6.48 KCAL/MOL
REMARK 922        TOTAL FREE ENERGY PREDICTED BY IDOCK:   -9.33 KCAL/MOL
REMARK 923 INTER-LIGAND FREE ENERGY PREDICTED BY IDOCK:   -8.20 KCAL/MOL
REMARK 924 INTRA-LIGAND FREE ENERGY PREDICTED BY IDOCK:   -1.13 KCAL/MOL
REMARK 927      BINDING AFFINITY PREDICTED BY RF-SCORE:    0.00 PKD
ROOT
HETATM    1  C   UNL     1     -12.115  16.330  72.421  1.00  0.00    -0.598 C  
HETATM    2  C   UNL     1     -12.803  15.037  71.928  1.00  0.00    -0.414 C  
HETATM    3  C   UNL     1     -14.209  15.442  71.418  1.00  0.00    -0.519 C  
HETATM    4  C   UNL     1     -12.980  14.120  73.160  1.00  0.00    -0.312 C  
ENDROOT
BRANCH   2   5
HETATM    5  C   UNL     1     -12.042  14.305  70.802  1.00  0.00    -0.418 A  
HETATM    6  C   UNL     1     -11.043  14.899  70.006  1.00  0.00    -0.263 A  
HETATM    7  C   UNL     1     -10.469  14.227  68.899  1.00  0.00    -0.241 A  
HETATM    8  C   UNL     1     -10.862  12.925  68.575  1.00  0.00    -0.283 A  
HETATM    9  C   UNL     1     -12.394  12.984  70.482  1.00  0.00    -0.365 A  
HETATM   10  C   UNL     1     -11.821  12.318  69.399  1.00  0.00    -0.370 A  
BRANCH   8  11
HETATM   11  C   UNL     1     -10.480  12.174  67.303  1.00  0.00    -0.218 C  
BRANCH  11  12
HETATM   12  N   UNL     1      -9.305  11.282  67.295  1.00  0.00    -0.165 NA 
HETATM   13  C   UNL     1      -8.784  10.981  68.640  1.00  0.00    -0.161 C  
HETATM   14  C   UNL     1      -9.483   9.870  69.491  1.00  0.00    -0.223 C  
HETATM   15  N   UNL     1     -10.203   8.754  68.824  1.00  0.00    -0.203 NA 
HETATM   16  C   UNL     1     -10.640   9.128  67.475  1.00  0.00    -0.249 C  
HETATM   17  C   UNL     1      -9.651   9.988  66.663  1.00  0.00    -0.186 C  
BRANCH  15  18
HETATM   18  C   UNL     1      -9.538   7.427  68.983  1.00  0.00    -0.148 C  
BRANCH  18  19
HETATM   19  C   UNL     1     -10.155   6.649  70.165  1.00  0.00    -0.200 A  
HETATM   20  C   UNL     1      -9.415   5.667  70.846  1.00  0.00    -0.202 A  
HETATM   21  C   UNL     1     -11.460   6.929  70.613  1.00  0.00    -0.383 A  
HETATM   22  C   UNL     1      -9.955   5.011  71.957  1.00  0.00    -0.239 A  
HETATM   23  C   UNL     1     -11.998   6.268  71.718  1.00  0.00    -0.313 A  
HETATM   24  C   UNL     1     -11.242   5.315  72.396  1.00  0.00    -0.229 A  
ENDBRANCH  18  19
BRANCH  18  25
HETATM   25  C   UNL     1      -9.534   6.517  67.734  1.00  0.00    -0.119 A  
HETATM   26  C   UNL     1      -9.472   4.918  65.413  1.00  0.00    -0.123 A  
HETATM   27  C   UNL     1     -10.634   4.990  66.175  1.00  0.00    -0.321 A  
HETATM   28 CL   UNL     1      -9.455   4.005  63.955  1.00  0.00    -0.154 Cl 
HETATM   29  C   UNL     1      -8.354   6.384  66.977  1.00  0.00    -0.112 A  
HETATM   30  C   UNL     1     -10.657   5.770  67.337  1.00  0.00    -0.340 A  
HETATM   31  C   UNL     1      -8.326   5.598  65.823  1.00  0.00    -0.132 A  
ENDBRANCH  18  25
ENDBRANCH  15  18
ENDBRANCH  11  12
ENDBRANCH   8  11
ENDBRANCH   2   5
TORSDOF 6
ENDMDL
MODEL       24
REMARK 921   NORMALIZED FREE ENERGY PREDICTED BY IDOCK:   -6.47 KCAL/MOL
REMARK 922        TOTAL FREE ENERGY PREDICTED BY IDOCK:   -9.32 KCAL/MOL
REMARK 923 INTER-LIGAND FREE ENERGY PREDICTED BY IDOCK:   -8.64 KCAL/MOL
REMARK 924 INTRA-LIGAND FREE ENERGY PREDICTED BY IDOCK:   -0.68 KCAL/MOL
REMARK 927      BINDING AFFINITY PREDICTED BY RF-SCORE:    0.00 PKD
ROOT
HETATM    1  C   UNL     1      -5.615  10.397  63.249  1.00  0.00    -0.154 C  
HETATM    2  C   UNL     1      -6.484   9.223  63.755  1.00  0.00    -0.091 C  
HETATM    3  C   UNL     1      -5.515   8.166  64.341  1.00  0.00    -0.044 C  
HETATM    4  C   UNL     1      -7.181   8.609  62.519  1.00  0.00    -0.097 C  
ENDROOT
BRANCH   2   5
HETATM    5  C   UNL     1      -7.519   9.619  64.830  1.00  0.00    -0.122 A  
HETATM    6  C   UNL     1      -7.187  10.177  66.080  1.00  0.00    -0.115 A  
HETATM    7  C   UNL     1      -8.162  10.400  67.084  1.00  0.00    -0.122 A  
HETATM    8  C   UNL     1      -9.506  10.095  66.850  1.00  0.00    -0.203 A  
HETATM    9  C   UNL     1      -8.879   9.357  64.603  1.00  0.00    -0.238 A  
HETATM   10  C   UNL     1      -9.841   9.586  65.587  1.00  0.00    -0.343 A  
BRANCH   8  11
HETATM   11  C   UNL     1     -10.611  10.091  67.903  1.00  0.00    -0.250 C  
BRANCH  11  12
HETATM   12  N   UNL     1     -11.754  11.016  67.778  1.00  0.00    -0.600 NA 
HETATM   13  C   UNL     1     -12.332  11.417  69.073  1.00  0.00     0.033 C  
HETATM   14  C   UNL     1     -11.641  12.557  69.889  1.00  0.00    -0.169 C  
HETATM   15  N   UNL     1     -10.851  13.607  69.194  1.00  0.00    -0.199 NA 
HETATM   16  C   UNL     1     -10.358  13.136  67.896  1.00  0.00    -0.231 C  
HETATM   17  C   UNL     1     -11.333  12.257  67.087  1.00  0.00    -0.335 C  
BRANCH  15  18
HETATM   18  C   UNL     1     -11.478  14.961  69.237  1.00  0.00    -0.303 C  
BRANCH  18  19
HETATM   19  C   UNL     1     -12.130  15.215  70.612  1.00  0.00    -0.378 A  
HETATM   20  C   UNL     1     -11.346  15.537  71.733  1.00  0.00    -0.463 A  
HETATM   21  C   UNL     1     -13.528  15.167  70.770  1.00  0.00    -0.345 A  
HETATM   22  C   UNL     1     -11.945  15.831  72.962  1.00  0.00    -0.596 A  
HETATM   23  C   UNL     1     -14.123  15.455  71.999  1.00  0.00    -0.647 A  
HETATM   24  C   UNL     1     -13.332  15.795  73.093  1.00  0.00    -0.685 A  
ENDBRANCH  18  19
BRANCH  18  25
HETATM   25  C   UNL     1     -10.549  16.148  68.898  1.00  0.00    -0.275 A  
HETATM   26  C   UNL     1      -8.805  18.296  68.354  1.00  0.00    -0.305 A  
HETATM   27  C   UNL     1     -10.162  18.415  68.068  1.00  0.00    -0.406 A  
HETATM   28 CL   UNL     1      -7.752  19.631  68.095  1.00  0.00    -0.338 Cl 
HETATM   29  C   UNL     1      -9.165  16.034  69.127  1.00  0.00    -0.247 A  
HETATM   30  C   UNL     1     -11.023  17.341  68.321  1.00  0.00    -0.188 A  
HETATM   31  C   UNL     1      -8.302  17.100  68.865  1.00  0.00    -0.183 A  
ENDBRANCH  18  25
ENDBRANCH  15  18
ENDBRANCH  11  12
ENDBRANCH   8  11
ENDBRANCH   2   5
TORSDOF 6
ENDMDL
MODEL       25
REMARK 921   NORMALIZED FREE ENERGY PREDICTED BY IDOCK:   -6.30 KCAL/MOL
REMARK 922        TOTAL FREE ENERGY PREDICTED BY IDOCK:   -9.08 KCAL/MOL
REMARK 923 INTER-LIGAND FREE ENERGY PREDICTED BY IDOCK:   -8.34 KCAL/MOL
REMARK 924 INTRA-LIGAND FREE ENERGY PREDICTED BY IDOCK:   -0.74 KCAL/MOL
REMARK 927      BINDING AFFINITY PREDICTED BY RF-SCORE:    0.00 PKD
ROOT
HETATM    1  C   UNL     1      -9.080   2.961  70.493  1.00  0.00    -0.190 C  
HETATM    2  C   UNL     1      -9.168   4.118  71.513  1.00  0.00    -0.194 C  
HETATM    3  C   UNL     1      -7.813   4.163  72.262  1.00  0.00    -0.082 C  
HETATM    4  C   UNL     1     -10.271   3.744  72.529  1.00  0.00    -0.232 C  
ENDROOT
BRANCH   2   5
HETATM    5  C   UNL     1      -9.448   5.498  70.881  1.00  0.00    -0.208 A  
HETATM    6  C   UNL     1      -8.528   6.565  70.870  1.00  0.00    -0.134 A  
HETATM    7  C   UNL     1      -8.879   7.853  70.396  1.00  0.00    -0.142 A  
HETATM    8  C   UNL     1     -10.159   8.101  69.892  1.00  0.00    -0.195 A  
HETATM    9  C   UNL     1     -10.715   5.760  70.335  1.00  0.00    -0.372 A  
HETATM   10  C   UNL     1     -11.058   7.025  69.859  1.00  0.00    -0.301 A  
BRANCH   8  11
HETATM   11  C   UNL     1     -10.726   9.476  69.548  1.00  0.00    -0.228 C  
BRANCH  11  12
HETATM   12  N   UNL     1     -10.908   9.868  68.137  1.00  0.00    -0.246 NA 
HETATM   13  C   UNL     1     -11.857  10.979  67.952  1.00  0.00    -0.002 C  
HETATM   14  C   UNL     1     -11.361  12.445  68.181  1.00  0.00    -0.291 C  
HETATM   15  N   UNL     1      -9.929  12.792  67.983  1.00  0.00    -0.219 NA 
HETATM   16  C   UNL     1      -9.066  11.618  68.138  1.00  0.00    -0.183 C  
HETATM   17  C   UNL     1      -9.616  10.299  67.556  1.00  0.00    -0.156 C  
BRANCH  15  18
HETATM   18  C   UNL     1      -9.680  13.673  66.803  1.00  0.00    -0.275 C  
BRANCH  18  19
HETATM   19  C   UNL     1     -10.580  13.262  65.618  1.00  0.00    -0.291 A  
HETATM   20  C   UNL     1     -10.140  12.317  64.675  1.00  0.00    -0.275 A  
HETATM   21  C   UNL     1     -11.876  13.793  65.475  1.00  0.00    -0.378 A  
HETATM   22  C   UNL     1     -10.984  11.898  63.640  1.00  0.00    -0.511 A  
HETATM   23  C   UNL     1     -12.712  13.377  64.438  1.00  0.00    -0.156 A  
HETATM   24  C   UNL     1     -12.269  12.423  63.526  1.00  0.00    -0.661 A  
ENDBRANCH  18  19
BRANCH  18  25
HETATM   25  C   UNL     1      -9.839  15.191  67.046  1.00  0.00    -0.233 A  
HETATM   26  C   UNL     1     -10.205  17.944  67.536  1.00  0.00    -0.363 A  
HETATM   27  C   UNL     1      -9.650  17.521  66.331  1.00  0.00    -0.283 A  
HETATM   28 CL   UNL     1     -10.500  19.616  67.805  1.00  0.00    -0.567 Cl 
HETATM   29  C   UNL     1     -10.347  15.647  68.278  1.00  0.00    -0.244 A  
HETATM   30  C   UNL     1      -9.452  16.155  66.098  1.00  0.00    -0.362 A  
HETATM   31  C   UNL     1     -10.535  17.010  68.517  1.00  0.00    -0.373 A  
ENDBRANCH  18  25
ENDBRANCH  15  18
ENDBRANCH  11  12
ENDBRANCH   8  11
ENDBRANCH   2   5
TORSDOF 6
ENDMDL
MODEL       26
REMARK 921   NORMALIZED FREE ENERGY PREDICTED BY IDOCK:   -6.24 KCAL/MOL
REMARK 922        TOTAL FREE ENERGY PREDICTED BY IDOCK:   -9.01 KCAL/MOL
REMARK 923 INTER-LIGAND FREE ENERGY PREDICTED BY IDOCK:   -8.07 KCAL/MOL
REMARK 924 INTRA-LIGAND FREE ENERGY PREDICTED BY IDOCK:   -0.94 KCAL/MOL
REMARK 927      BINDING AFFINITY PREDICTED BY RF-SCORE:    0.00 PKD
ROOT
HETATM    1  C   UNL     1      -8.373  19.648  66.321  1.00  0.00    -0.372 C  
HETATM    2  C   UNL     1      -9.847  19.367  66.690  1.00  0.00    -0.462 C  
HETATM    3  C   UNL     1     -10.714  19.904  65.523  1.00  0.00    -0.305 C  
HETATM    4  C   UNL     1     -10.165  20.201  67.953  1.00  0.00    -0.501 C  
ENDROOT
BRANCH   2   5
HETATM    5  C   UNL     1     -10.169  17.875  66.921  1.00  0.00    -0.358 A  
HETATM    6  C   UNL     1     -10.293  16.923  65.889  1.00  0.00    -0.327 A  
HETATM    7  C   UNL     1     -10.720  15.597  66.141  1.00  0.00    -0.305 A  
HETATM    8  C   UNL     1     -11.007  15.177  67.443  1.00  0.00    -0.314 A  
HETATM    9  C   UNL     1     -10.426  17.421  68.224  1.00  0.00    -0.385 A  
HETATM   10  C   UNL     1     -10.835  16.112  68.475  1.00  0.00    -0.313 A  
BRANCH   8  11
HETATM   11  C   UNL     1     -11.667  13.854  67.824  1.00  0.00    -0.366 C  
BRANCH  11  12
HETATM   12  N   UNL     1     -10.969  12.911  68.719  1.00  0.00    -0.251 NA 
HETATM   13  C   UNL     1     -11.593  11.577  68.772  1.00  0.00    -0.316 C  
HETATM   14  C   UNL     1     -11.284  10.552  67.632  1.00  0.00    -0.265 C  
HETATM   15  N   UNL     1     -10.003  10.625  66.882  1.00  0.00    -0.195 NA 
HETATM   16  C   UNL     1      -9.432  11.975  66.926  1.00  0.00    -0.203 C  
HETATM   17  C   UNL     1      -9.571  12.720  68.269  1.00  0.00    -0.211 C  
BRANCH  15  18
HETATM   18  C   UNL     1      -9.079   9.483  67.155  1.00  0.00    -0.134 C  
BRANCH  18  19
HETATM   19  C   UNL     1      -9.822   8.346  67.887  1.00  0.00    -0.208 A  
HETATM   20  C   UNL     1     -10.603   7.420  67.175  1.00  0.00    -0.413 A  
HETATM   21  C   UNL     1      -9.705   8.186  69.281  1.00  0.00    -0.170 A  
HETATM   22  C   UNL     1     -11.222   6.353  67.834  1.00  0.00    -0.262 A  
HETATM   23  C   UNL     1     -10.328   7.123  69.936  1.00  0.00    -0.224 A  
HETATM   24  C   UNL     1     -11.080   6.201  69.212  1.00  0.00    -0.463 A  
ENDBRANCH  18  19
BRANCH  18  25
HETATM   25  C   UNL     1      -8.351   8.894  65.926  1.00  0.00    -0.132 A  
HETATM   26  C   UNL     1      -6.944   7.820  63.731  1.00  0.00    -0.064 A  
HETATM   27  C   UNL     1      -7.999   8.702  63.515  1.00  0.00    -0.160 A  
HETATM   28 CL   UNL     1      -6.036   7.224  62.398  1.00  0.00    -0.049 Cl 
HETATM   29  C   UNL     1      -7.317   7.957  66.115  1.00  0.00    -0.074 A  
HETATM   30  C   UNL     1      -8.708   9.220  64.605  1.00  0.00    -0.223 A  
HETATM   31  C   UNL     1      -6.615   7.432  65.029  1.00  0.00    -0.044 A  
ENDBRANCH  18  25
ENDBRANCH  15  18
ENDBRANCH  11  12
ENDBRANCH   8  11
ENDBRANCH   2   5
TORSDOF 6
ENDMDL
MODEL       27
REMARK 921   NORMALIZED FREE ENERGY PREDICTED BY IDOCK:   -6.23 KCAL/MOL
REMARK 922        TOTAL FREE ENERGY PREDICTED BY IDOCK:   -8.99 KCAL/MOL
REMARK 923 INTER-LIGAND FREE ENERGY PREDICTED BY IDOCK:  -10.09 KCAL/MOL
REMARK 924 INTRA-LIGAND FREE ENERGY PREDICTED BY IDOCK:    1.10 KCAL/MOL
REMARK 927      BINDING AFFINITY PREDICTED BY RF-SCORE:    0.00 PKD
ROOT
HETATM    1  C   UNL     1      -8.039  19.498  66.063  1.00  0.00    -0.299 C  
HETATM    2  C   UNL     1      -9.468  19.069  66.463  1.00  0.00    -0.375 C  
HETATM    3  C   UNL     1     -10.447  20.009  65.715  1.00  0.00    -0.469 C  
HETATM    4  C   UNL     1      -9.611  19.328  67.981  1.00  0.00    -0.413 C  
ENDROOT
BRANCH   2   5
HETATM    5  C   UNL     1      -9.808  17.602  66.121  1.00  0.00    -0.253 A  
HETATM    6  C   UNL     1      -9.051  16.494  66.550  1.00  0.00    -0.307 A  
HETATM    7  C   UNL     1      -9.327  15.179  66.101  1.00  0.00    -0.346 A  
HETATM    8  C   UNL     1     -10.391  14.935  65.228  1.00  0.00    -0.424 A  
HETATM    9  C   UNL     1     -10.894  17.328  65.275  1.00  0.00    -0.001 A  
HETATM   10  C   UNL     1     -11.173  16.033  64.841  1.00  0.00    -0.319 A  
BRANCH   8  11
HETATM   11  C   UNL     1     -10.665  13.615  64.512  1.00  0.00    -0.407 C  
BRANCH  11  12
HETATM   12  N   UNL     1     -11.646  12.662  65.068  1.00  0.00    -0.330 NA 
HETATM   13  C   UNL     1     -11.030  11.529  65.780  1.00  0.00    -0.246 C  
HETATM   14  C   UNL     1     -10.555  11.731  67.256  1.00  0.00    -0.224 C  
HETATM   15  N   UNL     1     -11.206  12.747  68.123  1.00  0.00    -0.253 NA 
HETATM   16  C   UNL     1     -11.833  13.808  67.328  1.00  0.00    -0.401 C  
HETATM   17  C   UNL     1     -12.535  13.351  66.033  1.00  0.00    -0.369 C  
BRANCH  15  18
HETATM   18  C   UNL     1     -12.010  12.162  69.238  1.00  0.00    -0.262 C  
BRANCH  18  19
HETATM   19  C   UNL     1     -11.360  10.860  69.751  1.00  0.00    -0.374 A  
HETATM   20  C   UNL     1      -9.971  10.665  69.663  1.00  0.00    -0.090 A  
HETATM   21  C   UNL     1     -12.137   9.853  70.354  1.00  0.00    -0.230 A  
HETATM   22  C   UNL     1      -9.378   9.513  70.189  1.00  0.00    -0.286 A  
HETATM   23  C   UNL     1     -11.543   8.701  70.872  1.00  0.00    -0.307 A  
HETATM   24  C   UNL     1     -10.163   8.535  70.798  1.00  0.00    -0.237 A  
ENDBRANCH  18  19
BRANCH  18  25
HETATM   25  C   UNL     1     -12.278  13.094  70.440  1.00  0.00    -0.389 A  
HETATM   26  C   UNL     1     -12.676  14.809  72.643  1.00  0.00    -0.384 A  
HETATM   27  C   UNL     1     -13.505  13.705  72.464  1.00  0.00    -0.675 A  
HETATM   28 CL   UNL     1     -12.868  15.812  74.027  1.00  0.00    -0.662 Cl 
HETATM   29  C   UNL     1     -11.489  14.248  70.614  1.00  0.00    -0.125 A  
HETATM   30  C   UNL     1     -13.317  12.866  71.360  1.00  0.00    -0.153 A  
HETATM   31  C   UNL     1     -11.680  15.092  71.709  1.00  0.00    -0.480 A  
ENDBRANCH  18  25
ENDBRANCH  15  18
ENDBRANCH  11  12
ENDBRANCH   8  11
ENDBRANCH   2   5
TORSDOF 6
ENDMDL
MODEL       28
REMARK 921   NORMALIZED FREE ENERGY PREDICTED BY IDOCK:   -6.21 KCAL/MOL
REMARK 922        TOTAL FREE ENERGY PREDICTED BY IDOCK:   -8.96 KCAL/MOL
REMARK 923 INTER-LIGAND FREE ENERGY PREDICTED BY IDOCK:   -8.07 KCAL/MOL
REMARK 924 INTRA-LIGAND FREE ENERGY PREDICTED BY IDOCK:   -0.89 KCAL/MOL
REMARK 927      BINDING AFFINITY PREDICTED BY RF-SCORE:    0.00 PKD
ROOT
HETATM    1  C   UNL     1     -14.367  15.224  71.105  1.00  0.00    -0.384 C  
HETATM    2  C   UNL     1     -12.992  14.729  71.609  1.00  0.00    -0.411 C  
HETATM    3  C   UNL     1     -13.182  14.300  73.086  1.00  0.00    -0.353 C  
HETATM    4  C   UNL     1     -12.034  15.941  71.577  1.00  0.00    -0.537 C  
ENDROOT
BRANCH   2   5
HETATM    5  C   UNL     1     -12.412  13.546  70.805  1.00  0.00    -0.428 A  
HETATM    6  C   UNL     1     -11.735  13.681  69.576  1.00  0.00    -0.380 A  
HETATM    7  C   UNL     1     -11.338  12.556  68.812  1.00  0.00    -0.337 A  
HETATM    8  C   UNL     1     -11.584  11.260  69.274  1.00  0.00    -0.390 A  
HETATM    9  C   UNL     1     -12.614  12.236  71.267  1.00  0.00    -0.336 A  
HETATM   10  C   UNL     1     -12.213  11.128  70.520  1.00  0.00    -0.475 A  
BRANCH   8  11
HETATM   11  C   UNL     1     -11.398   9.980  68.464  1.00  0.00    -0.052 C  
BRANCH  11  12
HETATM   12  N   UNL     1     -10.090   9.296  68.452  1.00  0.00    -0.183 NA 
HETATM   13  C   UNL     1      -9.215   9.677  69.575  1.00  0.00    -0.203 C  
HETATM   14  C   UNL     1      -9.434   9.000  70.968  1.00  0.00    -0.274 C  
HETATM   15  N   UNL     1     -10.027   7.640  71.058  1.00  0.00    -0.182 NA 
HETATM   16  C   UNL     1     -10.839   7.330  69.878  1.00  0.00    -0.247 C  
HETATM   17  C   UNL     1     -10.282   7.829  68.529  1.00  0.00    -0.204 C  
BRANCH  15  18
HETATM   18  C   UNL     1      -9.067   6.593  71.522  1.00  0.00    -0.142 C  
BRANCH  18  19
HETATM   19  C   UNL     1      -8.061   7.187  72.529  1.00  0.00    -0.113 A  
HETATM   20  C   UNL     1      -6.677   7.095  72.304  1.00  0.00    -0.056 A  
HETATM   21  C   UNL     1      -8.505   7.869  73.678  1.00  0.00    -0.299 A  
HETATM   22  C   UNL     1      -5.769   7.692  73.186  1.00  0.00    -0.044 A  
HETATM   23  C   UNL     1      -7.597   8.459  74.560  1.00  0.00    -0.275 A  
HETATM   24  C   UNL     1      -6.230   8.378  74.309  1.00  0.00    -0.141 A  
ENDBRANCH  18  19
BRANCH  18  25
HETATM   25  C   UNL     1      -9.697   5.323  72.135  1.00  0.00    -0.202 A  
HETATM   26  C   UNL     1     -10.825   2.958  73.177  1.00  0.00    -0.134 A  
HETATM   27  C   UNL     1     -11.392   4.192  73.485  1.00  0.00    -0.297 A  
HETATM   28 CL   UNL     1     -11.557   1.510  73.749  1.00  0.00    -0.279 Cl 
HETATM   29  C   UNL     1      -9.111   4.067  71.884  1.00  0.00    -0.167 A  
HETATM   30  C   UNL     1     -10.819   5.366  72.982  1.00  0.00    -0.323 A  
HETATM   31  C   UNL     1      -9.674   2.896  72.393  1.00  0.00    -0.217 A  
ENDBRANCH  18  25
ENDBRANCH  15  18
ENDBRANCH  11  12
ENDBRANCH   8  11
ENDBRANCH   2   5
TORSDOF 6
ENDMDL
MODEL       29
REMARK 921   NORMALIZED FREE ENERGY PREDICTED BY IDOCK:   -6.18 KCAL/MOL
REMARK 922        TOTAL FREE ENERGY PREDICTED BY IDOCK:   -8.92 KCAL/MOL
REMARK 923 INTER-LIGAND FREE ENERGY PREDICTED BY IDOCK:   -7.98 KCAL/MOL
REMARK 924 INTRA-LIGAND FREE ENERGY PREDICTED BY IDOCK:   -0.94 KCAL/MOL
REMARK 927      BINDING AFFINITY PREDICTED BY RF-SCORE:    0.00 PKD
ROOT
HETATM    1  C   UNL     1     -10.392   5.121  66.063  1.00  0.00    -0.231 C  
HETATM    2  C   UNL     1      -9.410   5.471  67.204  1.00  0.00    -0.115 C  
HETATM    3  C   UNL     1      -8.149   4.594  66.997  1.00  0.00    -0.102 C  
HETATM    4  C   UNL     1     -10.083   5.046  68.529  1.00  0.00    -0.184 C  
ENDROOT
BRANCH   2   5
HETATM    5  C   UNL     1      -8.996   6.957  67.249  1.00  0.00    -0.118 A  
HETATM    6  C   UNL     1      -8.622   7.640  68.424  1.00  0.00    -0.124 A  
HETATM    7  C   UNL     1      -8.379   9.035  68.435  1.00  0.00    -0.124 A  
HETATM    8  C   UNL     1      -8.478   9.783  67.259  1.00  0.00    -0.125 A  
HETATM    9  C   UNL     1      -9.051   7.722  66.073  1.00  0.00    -0.169 A  
HETATM   10  C   UNL     1      -8.802   9.094  66.081  1.00  0.00    -0.187 A  
BRANCH   8  11
HETATM   11  C   UNL     1      -8.446  11.307  67.172  1.00  0.00    -0.149 C  
BRANCH  11  12
HETATM   12  N   UNL     1      -9.626  12.044  66.679  1.00  0.00    -0.211 NA 
HETATM   13  C   UNL     1     -10.844  11.806  67.473  1.00  0.00    -0.239 C  
HETATM   14  C   UNL     1     -11.044  12.596  68.808  1.00  0.00    -0.263 C  
HETATM   15  N   UNL     1     -10.417  13.931  68.991  1.00  0.00    -0.183 NA 
HETATM   16  C   UNL     1      -9.244  14.097  68.127  1.00  0.00    -0.194 C  
HETATM   17  C   UNL     1      -9.366  13.502  66.709  1.00  0.00    -0.257 C  
BRANCH  15  18
HETATM   18  C   UNL     1     -11.398  15.057  69.035  1.00  0.00    -0.290 C  
BRANCH  18  19
HETATM   19  C   UNL     1     -12.013  15.187  70.445  1.00  0.00    -0.364 A  
HETATM   20  C   UNL     1     -11.198  15.183  71.590  1.00  0.00    -0.312 A  
HETATM   21  C   UNL     1     -13.401  15.349  70.616  1.00  0.00    -0.286 A  
HETATM   22  C   UNL     1     -11.753  15.366  72.861  1.00  0.00    -0.508 A  
HETATM   23  C   UNL     1     -13.952  15.527  71.886  1.00  0.00    -0.583 A  
HETATM   24  C   UNL     1     -13.128  15.544  73.007  1.00  0.00    -0.632 A  
ENDBRANCH  18  19
BRANCH  18  25
HETATM   25  C   UNL     1     -10.863  16.438  68.595  1.00  0.00    -0.331 A  
HETATM   26  C   UNL     1      -9.851  18.920  67.718  1.00  0.00    -0.337 A  
HETATM   27  C   UNL     1      -9.880  18.624  69.078  1.00  0.00    -0.330 A  
HETATM   28 CL   UNL     1      -9.164  20.400  67.176  1.00  0.00    -0.512 Cl 
HETATM   29  C   UNL     1     -10.874  16.784  67.231  1.00  0.00    -0.137 A  
HETATM   30  C   UNL     1     -10.400  17.399  69.512  1.00  0.00    -0.011 A  
HETATM   31  C   UNL     1     -10.365  18.010  66.795  1.00  0.00    -0.373 A  
ENDBRANCH  18  25
ENDBRANCH  15  18
ENDBRANCH  11  12
ENDBRANCH   8  11
ENDBRANCH   2   5
TORSDOF 6
ENDMDL
MODEL       30
REMARK 921   NORMALIZED FREE ENERGY PREDICTED BY IDOCK:   -6.10 KCAL/MOL
REMARK 922        TOTAL FREE ENERGY PREDICTED BY IDOCK:   -8.82 KCAL/MOL
REMARK 923 INTER-LIGAND FREE ENERGY PREDICTED BY IDOCK:   -7.77 KCAL/MOL
REMARK 924 INTRA-LIGAND FREE ENERGY PREDICTED BY IDOCK:   -1.05 KCAL/MOL
REMARK 927      BINDING AFFINITY PREDICTED BY RF-SCORE:    0.00 PKD
ROOT
HETATM    1  C   UNL     1     -10.168  19.133  68.387  1.00  0.00    -0.473 C  
HETATM    2  C   UNL     1      -9.830  18.482  67.026  1.00  0.00    -0.341 C  
HETATM    3  C   UNL     1      -8.302  18.639  66.820  1.00  0.00    -0.287 C  
HETATM    4  C   UNL     1     -10.553  19.308  65.937  1.00  0.00    -0.521 C  
ENDROOT
BRANCH   2   5
HETATM    5  C   UNL     1     -10.208  16.989  66.927  1.00  0.00    -0.305 A  
HETATM    6  C   UNL     1     -10.954  16.295  67.900  1.00  0.00    -0.310 A  
HETATM    7  C   UNL     1     -11.161  14.895  67.828  1.00  0.00    -0.313 A  
HETATM    8  C   UNL     1     -10.649  14.155  66.759  1.00  0.00    -0.277 A  
HETATM    9  C   UNL     1      -9.736  16.232  65.843  1.00  0.00    -0.354 A  
HETATM   10  C   UNL     1      -9.949  14.855  65.766  1.00  0.00    -0.376 A  
BRANCH   8  11
HETATM   11  C   UNL     1     -10.622  12.631  66.668  1.00  0.00    -0.248 C  
BRANCH  11  12
HETATM   12  N   UNL     1      -9.423  11.886  67.100  1.00  0.00    -0.175 NA 
HETATM   13  C   UNL     1      -9.311  11.745  68.562  1.00  0.00    -0.156 C  
HETATM   14  C   UNL     1     -10.132  10.624  69.280  1.00  0.00    -0.206 C  
HETATM   15  N   UNL     1     -10.511   9.386  68.550  1.00  0.00    -0.206 NA 
HETATM   16  C   UNL     1     -10.549   9.608  67.101  1.00  0.00    -0.228 C  
HETATM   17  C   UNL     1      -9.442  10.518  66.532  1.00  0.00    -0.166 C  
BRANCH  15  18
HETATM   18  C   UNL     1      -9.808   8.161  69.035  1.00  0.00    -0.176 C  
BRANCH  18  19
HETATM   19  C   UNL     1     -10.619   7.478  70.156  1.00  0.00    -0.241 A  
HETATM   20  C   UNL     1     -10.086   6.392  70.872  1.00  0.00    -0.218 A  
HETATM   21  C   UNL     1     -11.897   7.949  70.515  1.00  0.00    -0.037 A  
HETATM   22  C   UNL     1     -10.798   5.818  71.931  1.00  0.00    -0.309 A  
HETATM   23  C   UNL     1     -12.606   7.370  71.568  1.00  0.00    -0.401 A  
HETATM   24  C   UNL     1     -12.054   6.310  72.282  1.00  0.00    -0.255 A  
ENDBRANCH  18  19
BRANCH  18  25
HETATM   25  C   UNL     1      -9.460   7.109  67.959  1.00  0.00    -0.132 A  
HETATM   26  C   UNL     1      -8.883   5.131  66.034  1.00  0.00    -0.137 A  
HETATM   27  C   UNL     1      -7.878   5.993  66.466  1.00  0.00    -0.104 A  
HETATM   28 CL   UNL     1      -8.515   3.875  64.918  1.00  0.00    -0.107 Cl 
HETATM   29  C   UNL     1     -10.470   6.261  67.464  1.00  0.00    -0.295 A  
HETATM   30  C   UNL     1      -8.172   6.986  67.408  1.00  0.00    -0.119 A  
HETATM   31  C   UNL     1     -10.182   5.277  66.517  1.00  0.00    -0.293 A  
ENDBRANCH  18  25
ENDBRANCH  15  18
ENDBRANCH  11  12
ENDBRANCH   8  11
ENDBRANCH   2   5
TORSDOF 6
ENDMDL
MODEL       31
REMARK 921   NORMALIZED FREE ENERGY PREDICTED BY IDOCK:   -6.08 KCAL/MOL
REMARK 922        TOTAL FREE ENERGY PREDICTED BY IDOCK:   -8.79 KCAL/MOL
REMARK 923 INTER-LIGAND FREE ENERGY PREDICTED BY IDOCK:   -7.90 KCAL/MOL
REMARK 924 INTRA-LIGAND FREE ENERGY PREDICTED BY IDOCK:   -0.90 KCAL/MOL
REMARK 927      BINDING AFFINITY PREDICTED BY RF-SCORE:    0.00 PKD
ROOT
HETATM    1  C   UNL     1     -14.406  15.270  71.522  1.00  0.00    -0.633 C  
HETATM    2  C   UNL     1     -12.963  14.836  71.863  1.00  0.00    -0.405 C  
HETATM    3  C   UNL     1     -12.983  14.308  73.319  1.00  0.00    -0.289 C  
HETATM    4  C   UNL     1     -12.084  16.108  71.820  1.00  0.00    -0.517 C  
ENDROOT
BRANCH   2   5
HETATM    5  C   UNL     1     -12.394  13.744  70.932  1.00  0.00    -0.456 A  
HETATM    6  C   UNL     1     -11.731  14.005  69.716  1.00  0.00    -0.375 A  
HETATM    7  C   UNL     1     -11.346  12.967  68.834  1.00  0.00    -0.335 A  
HETATM    8  C   UNL     1     -11.590  11.630  69.159  1.00  0.00    -0.378 A  
HETATM    9  C   UNL     1     -12.595  12.392  71.255  1.00  0.00    -0.332 A  
HETATM   10  C   UNL     1     -12.206  11.368  70.392  1.00  0.00    -0.450 A  
BRANCH   8  11
HETATM   11  C   UNL     1     -11.417  10.441  68.217  1.00  0.00    -0.144 C  
BRANCH  11  12
HETATM   12  N   UNL     1     -10.108   9.769  68.108  1.00  0.00    -0.158 NA 
HETATM   13  C   UNL     1      -9.284   9.882  69.324  1.00  0.00    -0.200 C  
HETATM   14  C   UNL     1      -9.560   8.911  70.518  1.00  0.00    -0.202 C  
HETATM   15  N   UNL     1     -10.152   7.569  70.274  1.00  0.00    -0.193 NA 
HETATM   16  C   UNL     1     -10.911   7.538  69.021  1.00  0.00    -0.061 C  
HETATM   17  C   UNL     1     -10.297   8.324  67.844  1.00  0.00    -0.219 C  
BRANCH  15  18
HETATM   18  C   UNL     1      -9.210   6.439  70.531  1.00  0.00    -0.158 C  
BRANCH  18  19
HETATM   19  C   UNL     1      -9.768   5.505  71.625  1.00  0.00    -0.203 A  
HETATM   20  C   UNL     1     -10.983   5.795  72.270  1.00  0.00    -0.314 A  
HETATM   21  C   UNL     1      -9.095   4.320  71.978  1.00  0.00    -0.158 A  
HETATM   22  C   UNL     1     -11.519   4.913  73.213  1.00  0.00    -0.359 A  
HETATM   23  C   UNL     1      -9.629   3.444  72.924  1.00  0.00    -0.167 A  
HETATM   24  C   UNL     1     -10.845   3.736  73.536  1.00  0.00    -0.324 A  
ENDBRANCH  18  19
BRANCH  18  25
HETATM   25  C   UNL     1      -8.820   5.590  69.301  1.00  0.00    -0.112 A  
HETATM   26  C   UNL     1      -8.056   4.109  67.026  1.00  0.00    -0.100 A  
HETATM   27  C   UNL     1      -9.347   3.986  67.533  1.00  0.00    -0.219 A  
HETATM   28 CL   UNL     1      -7.611   3.266  65.595  1.00  0.00    -0.076 Cl 
HETATM   29  C   UNL     1      -7.505   5.653  68.802  1.00  0.00    -0.084 A  
HETATM   30  C   UNL     1      -9.718   4.708  68.673  1.00  0.00    -0.217 A  
HETATM   31  C   UNL     1      -7.129   4.926  67.671  1.00  0.00    -0.062 A  
ENDBRANCH  18  25
ENDBRANCH  15  18
ENDBRANCH  11  12
ENDBRANCH   8  11
ENDBRANCH   2   5
TORSDOF 6
ENDMDL
MODEL       32
REMARK 921   NORMALIZED FREE ENERGY PREDICTED BY IDOCK:   -6.07 KCAL/MOL
REMARK 922        TOTAL FREE ENERGY PREDICTED BY IDOCK:   -8.77 KCAL/MOL
REMARK 923 INTER-LIGAND FREE ENERGY PREDICTED BY IDOCK:   -8.28 KCAL/MOL
REMARK 924 INTRA-LIGAND FREE ENERGY PREDICTED BY IDOCK:   -0.49 KCAL/MOL
REMARK 927      BINDING AFFINITY PREDICTED BY RF-SCORE:    0.00 PKD
ROOT
HETATM    1  C   UNL     1     -11.361  15.422  64.472  1.00  0.00    -0.321 C  
HETATM    2  C   UNL     1     -11.808  13.953  64.642  1.00  0.00    -0.428 C  
HETATM    3  C   UNL     1     -12.197  13.435  63.234  1.00  0.00    -0.314 C  
HETATM    4  C   UNL     1     -13.079  13.964  65.522  1.00  0.00    -0.232 C  
ENDROOT
BRANCH   2   5
HETATM    5  C   UNL     1     -10.728  13.029  65.246  1.00  0.00    -0.317 A  
HETATM    6  C   UNL     1     -10.627  11.649  64.978  1.00  0.00    -0.342 A  
HETATM    7  C   UNL     1      -9.703  10.820  65.659  1.00  0.00    -0.287 A  
HETATM    8  C   UNL     1      -8.831  11.358  66.610  1.00  0.00    -0.183 A  
HETATM    9  C   UNL     1      -9.817  13.554  66.176  1.00  0.00    -0.292 A  
HETATM   10  C   UNL     1      -8.899  12.740  66.838  1.00  0.00    -0.194 A  
BRANCH   8  11
HETATM   11  C   UNL     1      -7.941  10.552  67.553  1.00  0.00    -0.107 C  
BRANCH  11  12
HETATM   12  N   UNL     1      -8.157  10.619  69.011  1.00  0.00    -0.141 NA 
HETATM   13  C   UNL     1      -9.573  10.762  69.391  1.00  0.00    -0.030 C  
HETATM   14  C   UNL     1     -10.480   9.488  69.426  1.00  0.00    -0.217 C  
HETATM   15  N   UNL     1      -9.885   8.150  69.681  1.00  0.00    -0.181 NA 
HETATM   16  C   UNL     1      -8.465   8.116  69.320  1.00  0.00    -0.134 C  
HETATM   17  C   UNL     1      -7.656   9.385  69.658  1.00  0.00    -0.095 C  
BRANCH  15  18
HETATM   18  C   UNL     1     -10.270   7.560  70.999  1.00  0.00    -0.190 C  
BRANCH  18  19
HETATM   19  C   UNL     1     -11.732   7.911  71.344  1.00  0.00    -0.311 A  
HETATM   20  C   UNL     1     -12.770   6.995  71.098  1.00  0.00    -0.361 A  
HETATM   21  C   UNL     1     -12.058   9.140  71.949  1.00  0.00    -0.448 A  
HETATM   22  C   UNL     1     -14.085   7.290  71.473  1.00  0.00    -0.515 A  
HETATM   23  C   UNL     1     -13.372   9.433  72.316  1.00  0.00    -0.539 A  
HETATM   24  C   UNL     1     -14.384   8.505  72.087  1.00  0.00    -0.529 A  
ENDBRANCH  18  19
BRANCH  18  25
HETATM   25  C   UNL     1     -10.075   6.034  71.140  1.00  0.00    -0.241 A  
HETATM   26  C   UNL     1      -9.771   3.237  71.323  1.00  0.00    -0.151 A  
HETATM   27  C   UNL     1      -9.867   4.002  72.482  1.00  0.00    -0.216 A  
HETATM   28 CL   UNL     1      -9.663   1.524  71.431  1.00  0.00    -0.199 Cl 
HETATM   29  C   UNL     1      -9.920   5.244  69.985  1.00  0.00    -0.315 A  
HETATM   30  C   UNL     1      -9.999   5.392  72.389  1.00  0.00    -0.208 A  
HETATM   31  C   UNL     1      -9.777   3.858  70.075  1.00  0.00    -0.242 A  
ENDBRANCH  18  25
ENDBRANCH  15  18
ENDBRANCH  11  12
ENDBRANCH   8  11
ENDBRANCH   2   5
TORSDOF 6
ENDMDL
MODEL       33
REMARK 921   NORMALIZED FREE ENERGY PREDICTED BY IDOCK:   -6.04 KCAL/MOL
REMARK 922        TOTAL FREE ENERGY PREDICTED BY IDOCK:   -8.73 KCAL/MOL
REMARK 923 INTER-LIGAND FREE ENERGY PREDICTED BY IDOCK:   -7.89 KCAL/MOL
REMARK 924 INTRA-LIGAND FREE ENERGY PREDICTED BY IDOCK:   -0.84 KCAL/MOL
REMARK 927      BINDING AFFINITY PREDICTED BY RF-SCORE:    0.00 PKD
ROOT
HETATM    1  C   UNL     1     -11.868  15.934  71.491  1.00  0.00    -0.536 C  
HETATM    2  C   UNL     1     -12.925  14.986  72.102  1.00  0.00    -0.426 C  
HETATM    3  C   UNL     1     -14.314  15.592  71.776  1.00  0.00    -0.556 C  
HETATM    4  C   UNL     1     -12.731  15.019  73.636  1.00  0.00    -0.650 C  
ENDROOT
BRANCH   2   5
HETATM    5  C   UNL     1     -12.861  13.539  71.569  1.00  0.00    -0.440 A  
HETATM    6  C   UNL     1     -13.433  12.429  72.222  1.00  0.00    -0.428 A  
HETATM    7  C   UNL     1     -13.233  11.104  71.762  1.00  0.00    -0.486 A  
HETATM    8  C   UNL     1     -12.474  10.857  70.614  1.00  0.00    -0.460 A  
HETATM    9  C   UNL     1     -12.135  13.270  70.398  1.00  0.00    -0.401 A  
HETATM   10  C   UNL     1     -11.947  11.967  69.939  1.00  0.00    -0.398 A  
BRANCH   8  11
HETATM   11  C   UNL     1     -12.014   9.483  70.135  1.00  0.00     0.092 C  
BRANCH  11  12
HETATM   12  N   UNL     1     -11.263   8.596  71.045  1.00  0.00    -0.261 NA 
HETATM   13  C   UNL     1     -11.645   7.177  70.933  1.00  0.00    -0.311 C  
HETATM   14  C   UNL     1     -11.040   6.319  69.775  1.00  0.00    -0.406 C  
HETATM   15  N   UNL     1      -9.717   6.669  69.193  1.00  0.00    -0.145 NA 
HETATM   16  C   UNL     1      -9.400   8.086  69.394  1.00  0.00    -0.155 C  
HETATM   17  C   UNL     1      -9.813   8.679  70.756  1.00  0.00    -0.192 C  
BRANCH  15  18
HETATM   18  C   UNL     1      -8.643   5.678  69.500  1.00  0.00    -0.110 C  
BRANCH  18  19
HETATM   19  C   UNL     1      -8.964   4.914  70.802  1.00  0.00    -0.167 A  
HETATM   20  C   UNL     1      -9.552   3.638  70.762  1.00  0.00    -0.249 A  
HETATM   21  C   UNL     1      -8.642   5.460  72.059  1.00  0.00    -0.131 A  
HETATM   22  C   UNL     1      -9.781   2.922  71.942  1.00  0.00    -0.227 A  
HETATM   23  C   UNL     1      -8.877   4.745  73.234  1.00  0.00    -0.107 A  
HETATM   24  C   UNL     1      -9.438   3.473  73.175  1.00  0.00    -0.135 A  
ENDBRANCH  18  19
BRANCH  18  25
HETATM   25  C   UNL     1      -8.327   4.655  68.386  1.00  0.00    -0.091 A  
HETATM   26  C   UNL     1      -7.665   2.814  66.355  1.00  0.00    -0.076 A  
HETATM   27  C   UNL     1      -8.902   3.453  66.336  1.00  0.00    -0.137 A  
HETATM   28 CL   UNL     1      -7.228   1.750  65.076  1.00  0.00    -0.048 Cl 
HETATM   29  C   UNL     1      -7.106   3.954  68.412  1.00  0.00    -0.051 A  
HETATM   30  C   UNL     1      -9.236   4.352  67.355  1.00  0.00    -0.162 A  
HETATM   31  C   UNL     1      -6.775   3.049  67.402  1.00  0.00    -0.045 A  
ENDBRANCH  18  25
ENDBRANCH  15  18
ENDBRANCH  11  12
ENDBRANCH   8  11
ENDBRANCH   2   5
TORSDOF 6
ENDMDL
MODEL       34
REMARK 921   NORMALIZED FREE ENERGY PREDICTED BY IDOCK:   -5.99 KCAL/MOL
REMARK 922        TOTAL FREE ENERGY PREDICTED BY IDOCK:   -8.66 KCAL/MOL
REMARK 923 INTER-LIGAND FREE ENERGY PREDICTED BY IDOCK:   -8.48 KCAL/MOL
REMARK 924 INTRA-LIGAND FREE ENERGY PREDICTED BY IDOCK:   -0.19 KCAL/MOL
REMARK 927      BINDING AFFINITY PREDICTED BY RF-SCORE:    0.00 PKD
ROOT
HETATM    1  C   UNL     1      -6.163  21.341  68.073  1.00  0.00    -0.281 C  
HETATM    2  C   UNL     1      -6.689  20.342  67.018  1.00  0.00    -0.302 C  
HETATM    3  C   UNL     1      -5.966  20.672  65.687  1.00  0.00    -0.258 C  
HETATM    4  C   UNL     1      -8.197  20.629  66.834  1.00  0.00    -0.213 C  
ENDROOT
BRANCH   2   5
HETATM    5  C   UNL     1      -6.449  18.860  67.375  1.00  0.00    -0.195 A  
HETATM    6  C   UNL     1      -6.478  17.806  66.440  1.00  0.00    -0.265 A  
HETATM    7  C   UNL     1      -6.384  16.449  66.837  1.00  0.00    -0.109 A  
HETATM    8  C   UNL     1      -6.230  16.112  68.184  1.00  0.00    -0.124 A  
HETATM    9  C   UNL     1      -6.256  18.499  68.717  1.00  0.00    -0.225 A  
HETATM   10  C   UNL     1      -6.153  17.164  69.108  1.00  0.00    -0.204 A  
BRANCH   8  11
HETATM   11  C   UNL     1      -6.325  14.702  68.762  1.00  0.00    -0.087 C  
BRANCH  11  12
HETATM   12  N   UNL     1      -7.580  14.241  69.387  1.00  0.00     0.005 NA 
HETATM   13  C   UNL     1      -8.635  15.268  69.417  1.00  0.00    -0.226 C  
HETATM   14  C   UNL     1      -9.493  15.509  68.131  1.00  0.00    -0.198 C  
HETATM   15  N   UNL     1      -9.702  14.412  67.151  1.00  0.00    -0.242 NA 
HETATM   16  C   UNL     1      -8.631  13.414  67.227  1.00  0.00    -0.213 C  
HETATM   17  C   UNL     1      -8.123  13.081  68.644  1.00  0.00    -0.011 C  
BRANCH  15  18
HETATM   18  C   UNL     1     -11.106  13.906  67.102  1.00  0.00    -0.300 C  
BRANCH  18  19
HETATM   19  C   UNL     1     -11.364  13.145  65.784  1.00  0.00    -0.331 A  
HETATM   20  C   UNL     1     -12.671  12.963  65.301  1.00  0.00    -0.389 A  
HETATM   21  C   UNL     1     -10.294  12.648  65.015  1.00  0.00    -0.320 A  
HETATM   22  C   UNL     1     -12.896  12.331  64.074  1.00  0.00    -0.387 A  
HETATM   23  C   UNL     1     -10.523  12.013  63.793  1.00  0.00    -0.469 A  
HETATM   24  C   UNL     1     -11.823  11.862  63.319  1.00  0.00    -0.418 A  
ENDBRANCH  18  19
BRANCH  18  25
HETATM   25  C   UNL     1     -11.546  13.016  68.286  1.00  0.00    -0.375 A  
HETATM   26  C   UNL     1     -12.313  11.454  70.505  1.00  0.00    -0.349 A  
HETATM   27  C   UNL     1     -11.906  10.834  69.326  1.00  0.00    -0.359 A  
HETATM   28 CL   UNL     1     -12.707  10.504  71.883  1.00  0.00    -0.493 Cl 
HETATM   29  C   UNL     1     -12.013  13.618  69.471  1.00  0.00    -0.397 A  
HETATM   30  C   UNL     1     -11.544  11.611  68.220  1.00  0.00    -0.378 A  
HETATM   31  C   UNL     1     -12.385  12.845  70.572  1.00  0.00    -0.362 A  
ENDBRANCH  18  25
ENDBRANCH  15  18
ENDBRANCH  11  12
ENDBRANCH   8  11
ENDBRANCH   2   5
TORSDOF 6
ENDMDL
MODEL       35
REMARK 921   NORMALIZED FREE ENERGY PREDICTED BY IDOCK:   -5.96 KCAL/MOL
REMARK 922        TOTAL FREE ENERGY PREDICTED BY IDOCK:   -8.63 KCAL/MOL
REMARK 923 INTER-LIGAND FREE ENERGY PREDICTED BY IDOCK:   -7.69 KCAL/MOL
REMARK 924 INTRA-LIGAND FREE ENERGY PREDICTED BY IDOCK:   -0.94 KCAL/MOL
REMARK 927      BINDING AFFINITY PREDICTED BY RF-SCORE:    0.00 PKD
ROOT
HETATM    1  C   UNL     1      -9.429  19.869  68.570  1.00  0.00    -0.335 C  
HETATM    2  C   UNL     1      -9.451  19.110  67.225  1.00  0.00    -0.367 C  
HETATM    3  C   UNL     1      -7.976  18.928  66.786  1.00  0.00    -0.269 C  
HETATM    4  C   UNL     1     -10.152  20.028  66.197  1.00  0.00    -0.588 C  
ENDROOT
BRANCH   2   5
HETATM    5  C   UNL     1     -10.139  17.730  67.288  1.00  0.00    -0.337 A  
HETATM    6  C   UNL     1     -10.711  17.183  68.454  1.00  0.00    -0.347 A  
HETATM    7  C   UNL     1     -11.212  15.859  68.493  1.00  0.00    -0.362 A  
HETATM    8  C   UNL     1     -11.178  15.052  67.352  1.00  0.00    -0.337 A  
HETATM    9  C   UNL     1     -10.150  16.915  66.145  1.00  0.00    -0.347 A  
HETATM   10  C   UNL     1     -10.653  15.614  66.180  1.00  0.00    -0.325 A  
BRANCH   8  11
HETATM   11  C   UNL     1     -11.489  13.558  67.313  1.00  0.00    -0.339 C  
BRANCH  11  12
HETATM   12  N   UNL     1     -10.953  12.663  68.357  1.00  0.00    -0.244 NA 
HETATM   13  C   UNL     1     -11.592  11.336  68.382  1.00  0.00    -0.308 C  
HETATM   14  C   UNL     1     -11.120  10.249  67.362  1.00  0.00    -0.189 C  
HETATM   15  N   UNL     1      -9.736  10.277  66.821  1.00  0.00    -0.179 NA 
HETATM   16  C   UNL     1      -9.164  11.625  66.881  1.00  0.00    -0.184 C  
HETATM   17  C   UNL     1      -9.503  12.443  68.143  1.00  0.00    -0.214 C  
BRANCH  15  18
HETATM   18  C   UNL     1      -8.880   9.149  67.297  1.00  0.00    -0.124 C  
BRANCH  18  19
HETATM   19  C   UNL     1      -9.715   8.142  68.116  1.00  0.00    -0.180 A  
HETATM   20  C   UNL     1     -10.435   7.117  67.479  1.00  0.00    -0.331 A  
HETATM   21  C   UNL     1      -9.744   8.202  69.522  1.00  0.00    -0.170 A  
HETATM   22  C   UNL     1     -11.137   6.167  68.229  1.00  0.00    -0.336 A  
HETATM   23  C   UNL     1     -10.450   7.256  70.267  1.00  0.00    -0.231 A  
HETATM   24  C   UNL     1     -11.139   6.233  69.621  1.00  0.00    -0.479 A  
ENDBRANCH  18  19
BRANCH  18  25
HETATM   25  C   UNL     1      -8.104   8.381  66.204  1.00  0.00    -0.106 A  
HETATM   26  C   UNL     1      -6.611   6.986  64.260  1.00  0.00    -0.039 A  
HETATM   27  C   UNL     1      -7.619   7.862  63.865  1.00  0.00    -0.121 A  
HETATM   28 CL   UNL     1      -5.648   6.193  63.076  1.00  0.00    -0.018 Cl 
HETATM   29  C   UNL     1      -7.117   7.449  66.578  1.00  0.00    -0.074 A  
HETATM   30  C   UNL     1      -8.371   8.539  64.832  1.00  0.00    -0.171 A  
HETATM   31  C   UNL     1      -6.372   6.764  65.616  1.00  0.00    -0.042 A  
ENDBRANCH  18  25
ENDBRANCH  15  18
ENDBRANCH  11  12
ENDBRANCH   8  11
ENDBRANCH   2   5
TORSDOF 6
ENDMDL
MODEL       36
REMARK 921   NORMALIZED FREE ENERGY PREDICTED BY IDOCK:   -5.94 KCAL/MOL
REMARK 922        TOTAL FREE ENERGY PREDICTED BY IDOCK:   -8.60 KCAL/MOL
REMARK 923 INTER-LIGAND FREE ENERGY PREDICTED BY IDOCK:   -8.09 KCAL/MOL
REMARK 924 INTRA-LIGAND FREE ENERGY PREDICTED BY IDOCK:   -0.51 KCAL/MOL
REMARK 927      BINDING AFFINITY PREDICTED BY RF-SCORE:    0.00 PKD
ROOT
HETATM    1  C   UNL     1      -9.338   3.294  74.427  1.00  0.00    -0.114 C  
HETATM    2  C   UNL     1      -9.846   2.750  73.073  1.00  0.00    -0.178 C  
HETATM    3  C   UNL     1     -11.256   2.159  73.325  1.00  0.00    -0.257 C  
HETATM    4  C   UNL     1      -8.902   1.596  72.665  1.00  0.00    -0.071 C  
ENDROOT
BRANCH   2   5
HETATM    5  C   UNL     1      -9.931   3.812  71.956  1.00  0.00    -0.238 A  
HETATM    6  C   UNL     1     -10.407   5.125  72.146  1.00  0.00    -0.272 A  
HETATM    7  C   UNL     1     -10.590   6.019  71.063  1.00  0.00    -0.305 A  
HETATM    8  C   UNL     1     -10.272   5.631  69.758  1.00  0.00    -0.321 A  
HETATM    9  C   UNL     1      -9.583   3.457  70.643  1.00  0.00    -0.238 A  
HETATM   10  C   UNL     1      -9.752   4.341  69.578  1.00  0.00    -0.272 A  
BRANCH   8  11
HETATM   11  C   UNL     1     -10.612   6.414  68.493  1.00  0.00    -0.252 C  
BRANCH  11  12
HETATM   12  N   UNL     1      -9.622   7.338  67.906  1.00  0.00    -0.138 NA 
HETATM   13  C   UNL     1     -10.045   7.918  66.620  1.00  0.00    -0.240 C  
HETATM   14  C   UNL     1     -11.020   9.141  66.625  1.00  0.00     0.419 C  
HETATM   15  N   UNL     1     -11.049  10.073  67.783  1.00  0.00    -0.253 NA 
HETATM   16  C   UNL     1     -10.566   9.425  69.006  1.00  0.00    -0.213 C  
HETATM   17  C   UNL     1      -9.369   8.468  68.830  1.00  0.00    -0.146 C  
BRANCH  15  18
HETATM   18  C   UNL     1     -10.518  11.434  67.474  1.00  0.00    -0.201 C  
BRANCH  18  19
HETATM   19  C   UNL     1     -10.973  11.890  66.071  1.00  0.00    -0.355 A  
HETATM   20  C   UNL     1     -10.248  11.522  64.925  1.00  0.00    -0.324 A  
HETATM   21  C   UNL     1     -12.144  12.652  65.903  1.00  0.00    -0.459 A  
HETATM   22  C   UNL     1     -10.700  11.881  63.650  1.00  0.00    -0.502 A  
HETATM   23  C   UNL     1     -12.589  13.014  64.630  1.00  0.00    -0.425 A  
HETATM   24  C   UNL     1     -11.872  12.621  63.504  1.00  0.00    -0.619 A  
ENDBRANCH  18  19
BRANCH  18  25
HETATM   25  C   UNL     1     -10.861  12.542  68.494  1.00  0.00    -0.271 A  
HETATM   26  C   UNL     1     -11.400  14.588  70.358  1.00  0.00    -0.144 A  
HETATM   27  C   UNL     1     -12.102  13.388  70.423  1.00  0.00    -0.405 A  
HETATM   28 CL   UNL     1     -11.672  15.808  71.540  1.00  0.00    -0.471 Cl 
HETATM   29  C   UNL     1     -10.205  13.786  68.416  1.00  0.00    -0.248 A  
HETATM   30  C   UNL     1     -11.845  12.380  69.486  1.00  0.00    -0.368 A  
HETATM   31  C   UNL     1     -10.466  14.796  69.344  1.00  0.00    -0.210 A  
ENDBRANCH  18  25
ENDBRANCH  15  18
ENDBRANCH  11  12
ENDBRANCH   8  11
ENDBRANCH   2   5
TORSDOF 6
ENDMDL
MODEL       37
REMARK 921   NORMALIZED FREE ENERGY PREDICTED BY IDOCK:   -5.94 KCAL/MOL
REMARK 922        TOTAL FREE ENERGY PREDICTED BY IDOCK:   -8.59 KCAL/MOL
REMARK 923 INTER-LIGAND FREE ENERGY PREDICTED BY IDOCK:   -7.68 KCAL/MOL
REMARK 924 INTRA-LIGAND FREE ENERGY PREDICTED BY IDOCK:   -0.92 KCAL/MOL
REMARK 927      BINDING AFFINITY PREDICTED BY RF-SCORE:    0.00 PKD
ROOT
HETATM    1  C   UNL     1     -11.106  15.990  64.933  1.00  0.00    -0.381 C  
HETATM    2  C   UNL     1     -10.495  15.854  66.346  1.00  0.00    -0.311 C  
HETATM    3  C   UNL     1     -10.706  17.212  67.060  1.00  0.00    -0.149 C  
HETATM    4  C   UNL     1      -8.975  15.633  66.164  1.00  0.00    -0.362 C  
ENDROOT
BRANCH   2   5
HETATM    5  C   UNL     1     -11.116  14.727  67.199  1.00  0.00    -0.333 A  
HETATM    6  C   UNL     1     -11.571  14.894  68.522  1.00  0.00    -0.347 A  
HETATM    7  C   UNL     1     -12.010  13.800  69.307  1.00  0.00    -0.399 A  
HETATM    8  C   UNL     1     -12.033  12.507  68.776  1.00  0.00    -0.283 A  
HETATM    9  C   UNL     1     -11.184  13.427  66.674  1.00  0.00    -0.330 A  
HETATM   10  C   UNL     1     -11.627  12.351  67.443  1.00  0.00    -0.433 A  
BRANCH   8  11
HETATM   11  C   UNL     1     -12.283  11.227  69.569  1.00  0.00    -0.256 C  
BRANCH  11  12
HETATM   12  N   UNL     1     -11.301  10.777  70.575  1.00  0.00    -0.279 NA 
HETATM   13  C   UNL     1     -11.778   9.658  71.405  1.00  0.00    -0.404 C  
HETATM   14  C   UNL     1     -11.696   8.204  70.835  1.00  0.00    -0.244 C  
HETATM   15  N   UNL     1     -10.666   7.850  69.824  1.00  0.00    -0.246 NA 
HETATM   16  C   UNL     1     -10.216   9.031  69.081  1.00  0.00    -0.205 C  
HETATM   17  C   UNL     1     -10.059  10.324  69.907  1.00  0.00    -0.171 C  
BRANCH  15  18
HETATM   18  C   UNL     1      -9.614   6.921  70.335  1.00  0.00    -0.169 C  
BRANCH  18  19
HETATM   19  C   UNL     1      -9.995   6.384  71.731  1.00  0.00    -0.195 A  
HETATM   20  C   UNL     1     -10.836   5.267  71.867  1.00  0.00    -0.218 A  
HETATM   21  C   UNL     1      -9.478   6.976  72.899  1.00  0.00    -0.171 A  
HETATM   22  C   UNL     1     -11.126   4.743  73.132  1.00  0.00    -0.388 A  
HETATM   23  C   UNL     1      -9.774   6.454  74.160  1.00  0.00    -0.269 A  
HETATM   24  C   UNL     1     -10.591   5.333  74.276  1.00  0.00    -0.262 A  
ENDBRANCH  18  19
BRANCH  18  25
HETATM   25  C   UNL     1      -9.262   5.728  69.419  1.00  0.00    -0.144 A  
HETATM   26  C   UNL     1      -8.532   3.571  67.756  1.00  0.00    -0.095 A  
HETATM   27  C   UNL     1      -9.714   4.267  67.513  1.00  0.00    -0.198 A  
HETATM   28 CL   UNL     1      -8.047   2.306  66.697  1.00  0.00    -0.080 Cl 
HETATM   29  C   UNL     1      -8.101   4.974  69.677  1.00  0.00    -0.078 A  
HETATM   30  C   UNL     1     -10.083   5.325  68.351  1.00  0.00    -0.224 A  
HETATM   31  C   UNL     1      -7.736   3.911  68.848  1.00  0.00    -0.053 A  
ENDBRANCH  18  25
ENDBRANCH  15  18
ENDBRANCH  11  12
ENDBRANCH   8  11
ENDBRANCH   2   5
TORSDOF 6
ENDMDL
MODEL       38
REMARK 921   NORMALIZED FREE ENERGY PREDICTED BY IDOCK:   -5.93 KCAL/MOL
REMARK 922        TOTAL FREE ENERGY PREDICTED BY IDOCK:   -8.58 KCAL/MOL
REMARK 923 INTER-LIGAND FREE ENERGY PREDICTED BY IDOCK:   -8.05 KCAL/MOL
REMARK 924 INTRA-LIGAND FREE ENERGY PREDICTED BY IDOCK:   -0.53 KCAL/MOL
REMARK 927      BINDING AFFINITY PREDICTED BY RF-SCORE:    0.00 PKD
ROOT
HETATM    1  C   UNL     1     -11.121   4.655  72.474  1.00  0.00    -0.072 C  
HETATM    2  C   UNL     1     -11.190   6.177  72.219  1.00  0.00    -0.334 C  
HETATM    3  C   UNL     1     -10.443   6.864  73.390  1.00  0.00    -0.360 C  
HETATM    4  C   UNL     1     -12.681   6.582  72.291  1.00  0.00    -0.009 C  
ENDROOT
BRANCH   2   5
HETATM    5  C   UNL     1     -10.563   6.624  70.882  1.00  0.00    -0.263 A  
HETATM    6  C   UNL     1     -10.844   6.027  69.637  1.00  0.00    -0.439 A  
HETATM    7  C   UNL     1     -10.143   6.385  68.459  1.00  0.00    -0.173 A  
HETATM    8  C   UNL     1      -9.158   7.375  68.491  1.00  0.00    -0.136 A  
HETATM    9  C   UNL     1      -9.596   7.642  70.882  1.00  0.00    -0.167 A  
HETATM   10  C   UNL     1      -8.914   8.003  69.721  1.00  0.00    -0.145 A  
BRANCH   8  11
HETATM   11  C   UNL     1      -8.196   7.706  67.353  1.00  0.00    -0.116 C  
BRANCH  11  12
HETATM   12  N   UNL     1      -8.591   8.670  66.307  1.00  0.00    -0.130 NA 
HETATM   13  C   UNL     1     -10.027   8.999  66.320  1.00  0.00    -0.281 C  
HETATM   14  C   UNL     1     -10.550  10.061  67.342  1.00  0.00    -0.271 C  
HETATM   15  N   UNL     1      -9.649  11.132  67.841  1.00  0.00    -0.171 NA 
HETATM   16  C   UNL     1      -8.241  10.736  67.744  1.00  0.00    -0.112 C  
HETATM   17  C   UNL     1      -7.852   9.942  66.481  1.00  0.00    -0.110 C  
BRANCH  15  18
HETATM   18  C   UNL     1     -10.010  12.498  67.357  1.00  0.00    -0.207 C  
BRANCH  18  19
HETATM   19  C   UNL     1     -10.747  12.418  66.004  1.00  0.00    -0.294 A  
HETATM   20  C   UNL     1     -12.141  12.582  65.932  1.00  0.00    -0.420 A  
HETATM   21  C   UNL     1     -10.037  12.216  64.805  1.00  0.00    -0.276 A  
HETATM   22  C   UNL     1     -12.797  12.574  64.697  1.00  0.00    -0.325 A  
HETATM   23  C   UNL     1     -10.696  12.203  63.574  1.00  0.00    -0.509 A  
HETATM   24  C   UNL     1     -12.074  12.390  63.519  1.00  0.00    -0.651 A  
ENDBRANCH  18  19
BRANCH  18  25
HETATM   25  C   UNL     1     -10.843  13.362  68.330  1.00  0.00    -0.275 A  
HETATM   26  C   UNL     1     -12.308  15.008  70.089  1.00  0.00    -0.333 A  
HETATM   27  C   UNL     1     -12.172  13.649  70.361  1.00  0.00    -0.434 A  
HETATM   28 CL   UNL     1     -13.135  16.028  71.200  1.00  0.00    -0.070 Cl 
HETATM   29  C   UNL     1     -11.043  14.727  68.049  1.00  0.00    -0.294 A  
HETATM   30  C   UNL     1     -11.460  12.831  69.477  1.00  0.00    -0.293 A  
HETATM   31  C   UNL     1     -11.761  15.544  68.924  1.00  0.00    -0.385 A  
ENDBRANCH  18  25
ENDBRANCH  15  18
ENDBRANCH  11  12
ENDBRANCH   8  11
ENDBRANCH   2   5
TORSDOF 6
ENDMDL
MODEL       39
REMARK 921   NORMALIZED FREE ENERGY PREDICTED BY IDOCK:   -5.91 KCAL/MOL
REMARK 922        TOTAL FREE ENERGY PREDICTED BY IDOCK:   -8.56 KCAL/MOL
REMARK 923 INTER-LIGAND FREE ENERGY PREDICTED BY IDOCK:   -8.09 KCAL/MOL
REMARK 924 INTRA-LIGAND FREE ENERGY PREDICTED BY IDOCK:   -0.47 KCAL/MOL
REMARK 927      BINDING AFFINITY PREDICTED BY RF-SCORE:    0.00 PKD
ROOT
HETATM    1  C   UNL     1      -7.422  20.964  67.518  1.00  0.00    -0.304 C  
HETATM    2  C   UNL     1      -6.077  20.242  67.760  1.00  0.00    -0.263 C  
HETATM    3  C   UNL     1      -5.486  20.819  69.071  1.00  0.00    -0.398 C  
HETATM    4  C   UNL     1      -5.138  20.628  66.594  1.00  0.00    -0.185 C  
ENDROOT
BRANCH   2   5
HETATM    5  C   UNL     1      -6.196  18.708  67.886  1.00  0.00    -0.189 A  
HETATM    6  C   UNL     1      -6.795  18.047  68.977  1.00  0.00    -0.250 A  
HETATM    7  C   UNL     1      -6.761  16.637  69.109  1.00  0.00    -0.217 A  
HETATM    8  C   UNL     1      -6.148  15.846  68.133  1.00  0.00    -0.130 A  
HETATM    9  C   UNL     1      -5.620  17.891  66.900  1.00  0.00    -0.170 A  
HETATM   10  C   UNL     1      -5.596  16.502  67.024  1.00  0.00    -0.105 A  
BRANCH   8  11
HETATM   11  C   UNL     1      -5.862  14.351  68.255  1.00  0.00    -0.117 C  
BRANCH  11  12
HETATM   12  N   UNL     1      -6.444  13.406  67.282  1.00  0.00    -0.235 NA 
HETATM   13  C   UNL     1      -6.294  11.993  67.671  1.00  0.00    -0.099 C  
HETATM   14  C   UNL     1      -7.299  11.381  68.701  1.00  0.00    -0.104 C  
HETATM   15  N   UNL     1      -8.673  11.932  68.828  1.00  0.00    -0.015 NA 
HETATM   16  C   UNL     1      -8.737  13.324  68.374  1.00  0.00    -0.126 C  
HETATM   17  C   UNL     1      -7.895  13.663  67.127  1.00  0.00    -0.008 C  
BRANCH  15  18
HETATM   18  C   UNL     1      -9.742  11.006  68.347  1.00  0.00    -0.180 C  
BRANCH  18  19
HETATM   19  C   UNL     1     -10.807  10.789  69.443  1.00  0.00    -0.289 A  
HETATM   20  C   UNL     1     -10.874   9.578  70.152  1.00  0.00    -0.300 A  
HETATM   21  C   UNL     1     -11.712  11.812  69.784  1.00  0.00    -0.408 A  
HETATM   22  C   UNL     1     -11.798   9.410  71.189  1.00  0.00    -0.413 A  
HETATM   23  C   UNL     1     -12.636  11.639  70.815  1.00  0.00    -0.365 A  
HETATM   24  C   UNL     1     -12.674  10.441  71.524  1.00  0.00    -0.564 A  
ENDBRANCH  18  19
BRANCH  18  25
HETATM   25  C   UNL     1     -10.450  11.414  67.036  1.00  0.00    -0.271 A  
HETATM   26  C   UNL     1     -11.662  12.153  64.600  1.00  0.00    -0.332 A  
HETATM   27  C   UNL     1     -12.118  12.700  65.796  1.00  0.00    -0.484 A  
HETATM   28 CL   UNL     1     -12.349  12.660  63.106  1.00  0.00    -0.449 Cl 
HETATM   29  C   UNL     1     -10.045  10.834  65.818  1.00  0.00    -0.320 A  
HETATM   30  C   UNL     1     -11.527  12.317  67.006  1.00  0.00    -0.419 A  
HETATM   31  C   UNL     1     -10.639  11.206  64.611  1.00  0.00    -0.386 A  
ENDBRANCH  18  25
ENDBRANCH  15  18
ENDBRANCH  11  12
ENDBRANCH   8  11
ENDBRANCH   2   5
TORSDOF 6
ENDMDL
MODEL       40
REMARK 921   NORMALIZED FREE ENERGY PREDICTED BY IDOCK:   -5.90 KCAL/MOL
REMARK 922        TOTAL FREE ENERGY PREDICTED BY IDOCK:   -8.54 KCAL/MOL
REMARK 923 INTER-LIGAND FREE ENERGY PREDICTED BY IDOCK:   -7.38 KCAL/MOL
REMARK 924 INTRA-LIGAND FREE ENERGY PREDICTED BY IDOCK:   -1.17 KCAL/MOL
REMARK 927      BINDING AFFINITY PREDICTED BY RF-SCORE:    0.00 PKD
ROOT
HETATM    1  C   UNL     1      -7.515  19.934  66.576  1.00  0.00    -0.296 C  
HETATM    2  C   UNL     1      -8.753  19.355  67.298  1.00  0.00    -0.336 C  
HETATM    3  C   UNL     1      -9.939  20.301  66.985  1.00  0.00    -0.601 C  
HETATM    4  C   UNL     1      -8.466  19.423  68.816  1.00  0.00    -0.377 C  
ENDROOT
BRANCH   2   5
HETATM    5  C   UNL     1      -9.119  17.918  66.872  1.00  0.00    -0.266 A  
HETATM    6  C   UNL     1      -8.298  16.793  67.088  1.00  0.00    -0.207 A  
HETATM    7  C   UNL     1      -8.618  15.518  66.561  1.00  0.00    -0.320 A  
HETATM    8  C   UNL     1      -9.789  15.328  65.823  1.00  0.00    -0.395 A  
HETATM    9  C   UNL     1     -10.309  17.694  66.161  1.00  0.00    -0.334 A  
HETATM   10  C   UNL     1     -10.630  16.437  65.651  1.00  0.00    -0.337 A  
BRANCH   8  11
HETATM   11  C   UNL     1     -10.145  14.071  65.033  1.00  0.00    -0.292 C  
BRANCH  11  12
HETATM   12  N   UNL     1     -11.038  13.055  65.622  1.00  0.00    -0.275 NA 
HETATM   13  C   UNL     1     -11.407  11.979  64.686  1.00  0.00    -0.318 C  
HETATM   14  C   UNL     1     -10.404  10.803  64.452  1.00  0.00    -0.335 C  
HETATM   15  N   UNL     1      -9.437  10.418  65.514  1.00  0.00    -0.198 NA 
HETATM   16  C   UNL     1      -9.168  11.534  66.425  1.00  0.00    -0.208 C  
HETATM   17  C   UNL     1     -10.383  12.413  66.785  1.00  0.00    -0.221 C  
BRANCH  15  18
HETATM   18  C   UNL     1      -9.715   9.085  66.128  1.00  0.00    -0.283 C  
BRANCH  18  19
HETATM   19  C   UNL     1      -8.852   7.991  65.466  1.00  0.00    -0.102 A  
HETATM   20  C   UNL     1      -7.879   8.322  64.508  1.00  0.00    -0.130 A  
HETATM   21  C   UNL     1      -8.992   6.639  65.833  1.00  0.00    -0.096 A  
HETATM   22  C   UNL     1      -7.053   7.335  63.959  1.00  0.00    -0.071 A  
HETATM   23  C   UNL     1      -8.171   5.655  65.278  1.00  0.00    -0.134 A  
HETATM   24  C   UNL     1      -7.196   6.005  64.348  1.00  0.00    -0.063 A  
ENDBRANCH  18  19
BRANCH  18  25
HETATM   25  C   UNL     1      -9.543   8.997  67.661  1.00  0.00    -0.183 A  
HETATM   26  C   UNL     1      -9.300   8.894  70.468  1.00  0.00    -0.202 A  
HETATM   27  C   UNL     1      -8.159   8.860  69.671  1.00  0.00    -0.104 A  
HETATM   28 CL   UNL     1      -9.151   8.909  72.182  1.00  0.00    -0.202 Cl 
HETATM   29  C   UNL     1     -10.683   8.974  68.487  1.00  0.00    -0.140 A  
HETATM   30  C   UNL     1      -8.283   8.893  68.277  1.00  0.00    -0.121 A  
HETATM   31  C   UNL     1     -10.563   8.931  69.878  1.00  0.00    -0.229 A  
ENDBRANCH  18  25
ENDBRANCH  15  18
ENDBRANCH  11  12
ENDBRANCH   8  11
ENDBRANCH   2   5
TORSDOF 6
ENDMDL
MODEL       41
REMARK 921   NORMALIZED FREE ENERGY PREDICTED BY IDOCK:   -5.88 KCAL/MOL
REMARK 922        TOTAL FREE ENERGY PREDICTED BY IDOCK:   -8.52 KCAL/MOL
REMARK 923 INTER-LIGAND FREE ENERGY PREDICTED BY IDOCK:   -8.57 KCAL/MOL
REMARK 924 INTRA-LIGAND FREE ENERGY PREDICTED BY IDOCK:    0.05 KCAL/MOL
REMARK 927      BINDING AFFINITY PREDICTED BY RF-SCORE:    0.00 PKD
ROOT
HETATM    1  C   UNL     1     -12.237   8.786  72.403  1.00  0.00    -0.396 C  
HETATM    2  C   UNL     1     -11.324   7.571  72.126  1.00  0.00    -0.326 C  
HETATM    3  C   UNL     1     -12.252   6.383  71.766  1.00  0.00    -0.312 C  
HETATM    4  C   UNL     1     -10.600   7.236  73.451  1.00  0.00    -0.435 C  
ENDROOT
BRANCH   2   5
HETATM    5  C   UNL     1     -10.309   7.789  70.984  1.00  0.00    -0.215 A  
HETATM    6  C   UNL     1      -8.939   8.057  71.183  1.00  0.00    -0.162 A  
HETATM    7  C   UNL     1      -8.076   8.381  70.108  1.00  0.00    -0.108 A  
HETATM    8  C   UNL     1      -8.557   8.419  68.796  1.00  0.00    -0.135 A  
HETATM    9  C   UNL     1     -10.760   7.795  69.655  1.00  0.00    -0.223 A  
HETATM   10  C   UNL     1      -9.908   8.104  68.595  1.00  0.00    -0.191 A  
BRANCH   8  11
HETATM   11  C   UNL     1      -7.792   8.950  67.586  1.00  0.00    -0.101 C  
BRANCH  11  12
HETATM   12  N   UNL     1      -7.370  10.363  67.540  1.00  0.00    -0.091 NA 
HETATM   13  C   UNL     1      -7.870  11.090  66.360  1.00  0.00    -0.150 C  
HETATM   14  C   UNL     1      -9.333  11.641  66.374  1.00  0.00    -0.213 C  
HETATM   15  N   UNL     1      -9.993  11.989  67.659  1.00  0.00    -0.188 NA 
HETATM   16  C   UNL     1      -9.399  11.256  68.782  1.00  0.00    -0.128 C  
HETATM   17  C   UNL     1      -7.868  11.083  68.736  1.00  0.00    -0.138 C  
BRANCH  15  18
HETATM   18  C   UNL     1     -10.222  13.453  67.843  1.00  0.00    -0.241 C  
BRANCH  18  19
HETATM   19  C   UNL     1     -10.961  14.045  66.624  1.00  0.00    -0.300 A  
HETATM   20  C   UNL     1     -10.404  15.107  65.890  1.00  0.00    -0.344 A  
HETATM   21  C   UNL     1     -12.190  13.511  66.195  1.00  0.00    -0.484 A  
HETATM   22  C   UNL     1     -11.045  15.596  64.747  1.00  0.00    -0.426 A  
HETATM   23  C   UNL     1     -12.830  14.005  65.057  1.00  0.00    -0.292 A  
HETATM   24  C   UNL     1     -12.254  15.042  64.329  1.00  0.00    -0.312 A  
ENDBRANCH  18  19
BRANCH  18  25
HETATM   25  C   UNL     1     -10.972  13.865  69.129  1.00  0.00    -0.253 A  
HETATM   26  C   UNL     1     -12.270  14.666  71.501  1.00  0.00    -0.352 A  
HETATM   27  C   UNL     1     -12.454  13.376  71.011  1.00  0.00    -0.437 A  
HETATM   28 CL   UNL     1     -12.998  15.133  72.988  1.00  0.00    -0.541 Cl 
HETATM   29  C   UNL     1     -10.847  15.180  69.616  1.00  0.00    -0.297 A  
HETATM   30  C   UNL     1     -11.823  12.986  69.824  1.00  0.00    -0.381 A  
HETATM   31  C   UNL     1     -11.483  15.575  70.794  1.00  0.00    -0.396 A  
ENDBRANCH  18  25
ENDBRANCH  15  18
ENDBRANCH  11  12
ENDBRANCH   8  11
ENDBRANCH   2   5
TORSDOF 6
ENDMDL
MODEL       42
REMARK 921   NORMALIZED FREE ENERGY PREDICTED BY IDOCK:   -5.80 KCAL/MOL
REMARK 922        TOTAL FREE ENERGY PREDICTED BY IDOCK:   -8.41 KCAL/MOL
REMARK 923 INTER-LIGAND FREE ENERGY PREDICTED BY IDOCK:   -7.86 KCAL/MOL
REMARK 924 INTRA-LIGAND FREE ENERGY PREDICTED BY IDOCK:   -0.55 KCAL/MOL
REMARK 927      BINDING AFFINITY PREDICTED BY RF-SCORE:    0.00 PKD
ROOT
HETATM    1  C   UNL     1      -7.289  19.613  69.108  1.00  0.00    -0.339 C  
HETATM    2  C   UNL     1      -7.978  19.093  67.826  1.00  0.00    -0.305 C  
HETATM    3  C   UNL     1      -6.857  18.834  66.787  1.00  0.00    -0.210 C  
HETATM    4  C   UNL     1      -8.874  20.236  67.296  1.00  0.00    -0.454 C  
ENDROOT
BRANCH   2   5
HETATM    5  C   UNL     1      -8.796  17.800  68.027  1.00  0.00    -0.259 A  
HETATM    6  C   UNL     1     -10.184  17.771  68.271  1.00  0.00    -0.382 A  
HETATM    7  C   UNL     1     -10.865  16.568  68.580  1.00  0.00    -0.349 A  
HETATM    8  C   UNL     1     -10.177  15.352  68.626  1.00  0.00    -0.217 A  
HETATM    9  C   UNL     1      -8.133  16.562  68.040  1.00  0.00    -0.168 A  
HETATM   10  C   UNL     1      -8.806  15.376  68.334  1.00  0.00    -0.177 A  
BRANCH   8  11
HETATM   11  C   UNL     1     -10.743  14.033  69.143  1.00  0.00    -0.173 C  
BRANCH  11  12
HETATM   12  N   UNL     1     -10.999  12.920  68.208  1.00  0.00    -0.244 NA 
HETATM   13  C   UNL     1      -9.810  12.097  67.930  1.00  0.00    -0.199 C  
HETATM   14  C   UNL     1      -9.398  10.992  68.958  1.00  0.00    -0.091 C  
HETATM   15  N   UNL     1     -10.421  10.357  69.829  1.00  0.00    -0.254 NA 
HETATM   16  C   UNL     1     -11.587  11.227  70.009  1.00  0.00    -0.321 C  
HETATM   17  C   UNL     1     -12.034  12.017  68.762  1.00  0.00    -0.244 C  
BRANCH  15  18
HETATM   18  C   UNL     1     -10.682   8.922  69.506  1.00  0.00    -0.199 C  
BRANCH  18  19
HETATM   19  C   UNL     1      -9.696   8.420  68.430  1.00  0.00    -0.168 A  
HETATM   20  C   UNL     1     -10.090   8.313  67.085  1.00  0.00    -0.334 A  
HETATM   21  C   UNL     1      -8.367   8.093  68.763  1.00  0.00    -0.126 A  
HETATM   22  C   UNL     1      -9.174   7.921  66.103  1.00  0.00    -0.208 A  
HETATM   23  C   UNL     1      -7.458   7.696  67.781  1.00  0.00    -0.108 A  
HETATM   24  C   UNL     1      -7.859   7.618  66.450  1.00  0.00    -0.094 A  
ENDBRANCH  18  19
BRANCH  18  25
HETATM   25  C   UNL     1     -10.657   7.944  70.701  1.00  0.00    -0.221 A  
HETATM   26  C   UNL     1     -10.672   6.105  72.839  1.00  0.00    -0.247 A  
HETATM   27  C   UNL     1     -10.557   7.469  73.097  1.00  0.00    -0.442 A  
HETATM   28 CL   UNL     1     -10.759   4.988  74.144  1.00  0.00    -0.336 Cl 
HETATM   29  C   UNL     1     -10.717   6.557  70.465  1.00  0.00    -0.305 A  
HETATM   30  C   UNL     1     -10.531   8.378  72.033  1.00  0.00    -0.384 A  
HETATM   31  C   UNL     1     -10.733   5.647  71.523  1.00  0.00    -0.306 A  
ENDBRANCH  18  25
ENDBRANCH  15  18
ENDBRANCH  11  12
ENDBRANCH   8  11
ENDBRANCH   2   5
TORSDOF 6
ENDMDL
MODEL       43
REMARK 921   NORMALIZED FREE ENERGY PREDICTED BY IDOCK:   -5.76 KCAL/MOL
REMARK 922        TOTAL FREE ENERGY PREDICTED BY IDOCK:   -8.36 KCAL/MOL
REMARK 923 INTER-LIGAND FREE ENERGY PREDICTED BY IDOCK:   -8.02 KCAL/MOL
REMARK 924 INTRA-LIGAND FREE ENERGY PREDICTED BY IDOCK:   -0.34 KCAL/MOL
REMARK 927      BINDING AFFINITY PREDICTED BY RF-SCORE:    0.00 PKD
ROOT
HETATM    1  C   UNL     1      -5.684   9.911  67.363  1.00  0.00    -0.046 C  
HETATM    2  C   UNL     1      -6.574   8.801  66.759  1.00  0.00    -0.061 C  
HETATM    3  C   UNL     1      -7.250   8.070  67.946  1.00  0.00    -0.091 C  
HETATM    4  C   UNL     1      -5.633   7.802  66.047  1.00  0.00    -0.033 C  
ENDROOT
BRANCH   2   5
HETATM    5  C   UNL     1      -7.660   9.318  65.792  1.00  0.00    -0.098 A  
HETATM    6  C   UNL     1      -7.394   9.869  64.523  1.00  0.00    -0.140 A  
HETATM    7  C   UNL     1      -8.413  10.451  63.729  1.00  0.00    -0.162 A  
HETATM    8  C   UNL     1      -9.737  10.470  64.175  1.00  0.00    -0.388 A  
HETATM    9  C   UNL     1      -9.003   9.315  66.202  1.00  0.00    -0.202 A  
HETATM   10  C   UNL     1     -10.008   9.877  65.417  1.00  0.00    -0.349 A  
BRANCH   8  11
HETATM   11  C   UNL     1     -10.881  11.240  63.521  1.00  0.00    -0.294 C  
BRANCH  11  12
HETATM   12  N   UNL     1     -10.897  12.715  63.559  1.00  0.00    -0.400 NA 
HETATM   13  C   UNL     1     -12.208  13.282  63.920  1.00  0.00    -0.425 C  
HETATM   14  C   UNL     1     -12.613  13.349  65.429  1.00  0.00    -0.475 C  
HETATM   15  N   UNL     1     -11.570  13.437  66.484  1.00  0.00    -0.341 NA 
HETATM   16  C   UNL     1     -10.290  12.896  66.019  1.00  0.00    -0.283 C  
HETATM   17  C   UNL     1      -9.920  13.210  64.556  1.00  0.00    -0.110 C  
BRANCH  15  18
HETATM   18  C   UNL     1     -11.539  14.752  67.193  1.00  0.00    -0.359 C  
BRANCH  18  19
HETATM   19  C   UNL     1     -11.962  14.583  68.668  1.00  0.00    -0.320 A  
HETATM   20  C   UNL     1     -12.002  13.312  69.265  1.00  0.00    -0.354 A  
HETATM   21  C   UNL     1     -12.279  15.702  69.461  1.00  0.00    -0.231 A  
HETATM   22  C   UNL     1     -12.321  13.170  70.619  1.00  0.00    -0.405 A  
HETATM   23  C   UNL     1     -12.603  15.556  70.811  1.00  0.00    -0.505 A  
HETATM   24  C   UNL     1     -12.616  14.291  71.392  1.00  0.00    -0.434 A  
ENDBRANCH  18  19
BRANCH  18  25
HETATM   25  C   UNL     1     -10.198  15.517  67.142  1.00  0.00    -0.260 A  
HETATM   26  C   UNL     1      -7.749  16.914  67.140  1.00  0.00    -0.179 A  
HETATM   27  C   UNL     1      -8.698  17.176  66.156  1.00  0.00    -0.223 A  
HETATM   28 CL   UNL     1      -6.287  17.819  67.186  1.00  0.00    -0.178 Cl 
HETATM   29  C   UNL     1      -9.199  15.231  68.093  1.00  0.00    -0.183 A  
HETATM   30  C   UNL     1      -9.906  16.468  66.148  1.00  0.00    -0.355 A  
HETATM   31  C   UNL     1      -7.990  15.929  68.097  1.00  0.00    -0.137 A  
ENDBRANCH  18  25
ENDBRANCH  15  18
ENDBRANCH  11  12
ENDBRANCH   8  11
ENDBRANCH   2   5
TORSDOF 6
ENDMDL
MODEL       44
REMARK 921   NORMALIZED FREE ENERGY PREDICTED BY IDOCK:   -5.76 KCAL/MOL
REMARK 922        TOTAL FREE ENERGY PREDICTED BY IDOCK:   -8.36 KCAL/MOL
REMARK 923 INTER-LIGAND FREE ENERGY PREDICTED BY IDOCK:   -7.41 KCAL/MOL
REMARK 924 INTRA-LIGAND FREE ENERGY PREDICTED BY IDOCK:   -0.94 KCAL/MOL
REMARK 927      BINDING AFFINITY PREDICTED BY RF-SCORE:    0.00 PKD
ROOT
HETATM    1  C   UNL     1     -12.741  14.099  65.347  1.00  0.00    -0.453 C  
HETATM    2  C   UNL     1     -11.432  13.889  66.141  1.00  0.00    -0.351 C  
HETATM    3  C   UNL     1     -11.022  15.272  66.706  1.00  0.00    -0.306 C  
HETATM    4  C   UNL     1     -10.354  13.441  65.127  1.00  0.00    -0.349 C  
ENDROOT
BRANCH   2   5
HETATM    5  C   UNL     1     -11.550  12.878  67.301  1.00  0.00    -0.416 A  
HETATM    6  C   UNL     1     -11.859  13.230  68.630  1.00  0.00    -0.380 A  
HETATM    7  C   UNL     1     -11.825  12.284  69.683  1.00  0.00    -0.393 A  
HETATM    8  C   UNL     1     -11.507  10.947  69.428  1.00  0.00    -0.373 A  
HETATM    9  C   UNL     1     -11.271  11.523  67.062  1.00  0.00    -0.365 A  
HETATM   10  C   UNL     1     -11.248  10.588  68.097  1.00  0.00    -0.357 A  
BRANCH   8  11
HETATM   11  C   UNL     1     -11.235   9.882  70.487  1.00  0.00    -0.330 C  
BRANCH  11  12
HETATM   12  N   UNL     1      -9.853   9.432  70.746  1.00  0.00    -0.281 NA 
HETATM   13  C   UNL     1      -9.667   8.836  72.080  1.00  0.00    -0.300 C  
HETATM   14  C   UNL     1     -10.078   7.344  72.305  1.00  0.00    -0.196 C  
HETATM   15  N   UNL     1     -10.068   6.382  71.172  1.00  0.00    -0.184 NA 
HETATM   16  C   UNL     1     -10.209   7.068  69.885  1.00  0.00    -0.201 C  
HETATM   17  C   UNL     1      -9.456   8.408  69.752  1.00  0.00    -0.162 C  
BRANCH  15  18
HETATM   18  C   UNL     1      -9.005   5.338  71.277  1.00  0.00    -0.140 C  
BRANCH  18  19
HETATM   19  C   UNL     1      -9.360   4.309  72.372  1.00  0.00    -0.158 A  
HETATM   20  C   UNL     1     -10.678   4.186  72.844  1.00  0.00    -0.230 A  
HETATM   21  C   UNL     1      -8.381   3.445  72.897  1.00  0.00    -0.081 A  
HETATM   22  C   UNL     1     -11.009   3.208  73.788  1.00  0.00    -0.310 A  
HETATM   23  C   UNL     1      -8.713   2.474  73.844  1.00  0.00    -0.071 A  
HETATM   24  C   UNL     1     -10.029   2.350  74.283  1.00  0.00    -0.155 A  
ENDBRANCH  18  19
BRANCH  18  25
HETATM   25  C   UNL     1      -8.668   4.582  69.973  1.00  0.00    -0.115 A  
HETATM   26  C   UNL     1      -8.012   3.277  67.561  1.00  0.00    -0.077 A  
HETATM   27  C   UNL     1      -9.217   2.994  68.197  1.00  0.00    -0.248 A  
HETATM   28 CL   UNL     1      -7.644   2.541  66.050  1.00  0.00    -0.068 Cl 
HETATM   29  C   UNL     1      -7.432   4.809  69.338  1.00  0.00    -0.053 A  
HETATM   30  C   UNL     1      -9.532   3.629  69.404  1.00  0.00    -0.249 A  
HETATM   31  C   UNL     1      -7.110   4.169  68.140  1.00  0.00    -0.059 A  
ENDBRANCH  18  25
ENDBRANCH  15  18
ENDBRANCH  11  12
ENDBRANCH   8  11
ENDBRANCH   2   5
TORSDOF 6
ENDMDL
MODEL       45
REMARK 921   NORMALIZED FREE ENERGY PREDICTED BY IDOCK:   -5.75 KCAL/MOL
REMARK 922        TOTAL FREE ENERGY PREDICTED BY IDOCK:   -8.34 KCAL/MOL
REMARK 923 INTER-LIGAND FREE ENERGY PREDICTED BY IDOCK:   -8.16 KCAL/MOL
REMARK 924 INTRA-LIGAND FREE ENERGY PREDICTED BY IDOCK:   -0.18 KCAL/MOL
REMARK 927      BINDING AFFINITY PREDICTED BY RF-SCORE:    0.00 PKD
ROOT
HETATM    1  C   UNL     1     -12.581  13.861  66.135  1.00  0.00    -0.426 C  
HETATM    2  C   UNL     1     -11.380  13.585  65.204  1.00  0.00    -0.315 C  
HETATM    3  C   UNL     1     -10.724  14.955  64.896  1.00  0.00    -0.426 C  
HETATM    4  C   UNL     1     -11.950  13.014  63.885  1.00  0.00    -0.551 C  
ENDROOT
BRANCH   2   5
HETATM    5  C   UNL     1     -10.321  12.635  65.802  1.00  0.00    -0.298 A  
HETATM    6  C   UNL     1      -9.985  11.379  65.257  1.00  0.00    -0.303 A  
HETATM    7  C   UNL     1      -9.103  10.488  65.916  1.00  0.00    -0.192 A  
HETATM    8  C   UNL     1      -8.510  10.843  67.130  1.00  0.00    -0.128 A  
HETATM    9  C   UNL     1      -9.683  12.985  67.003  1.00  0.00    -0.235 A  
HETATM   10  C   UNL     1      -8.807  12.112  67.647  1.00  0.00    -0.172 A  
BRANCH   8  11
HETATM   11  C   UNL     1      -7.716   9.905  68.037  1.00  0.00    -0.086 C  
BRANCH  11  12
HETATM   12  N   UNL     1      -8.192   8.529  68.276  1.00  0.00    -0.122 NA 
HETATM   13  C   UNL     1      -7.507   7.854  69.393  1.00  0.00    -0.091 C  
HETATM   14  C   UNL     1      -7.971   8.152  70.856  1.00  0.00    -0.096 C  
HETATM   15  N   UNL     1      -9.370   8.573  71.130  1.00  0.00    -0.179 NA 
HETATM   16  C   UNL     1      -9.986   9.188  69.951  1.00  0.00    -0.197 C  
HETATM   17  C   UNL     1      -9.638   8.539  68.596  1.00  0.00    -0.149 C  
BRANCH  15  18
HETATM   18  C   UNL     1     -10.173   7.551  71.866  1.00  0.00    -0.188 C  
BRANCH  18  19
HETATM   19  C   UNL     1     -11.673   7.909  71.828  1.00  0.00    -0.329 A  
HETATM   20  C   UNL     1     -12.116   9.194  72.185  1.00  0.00    -0.389 A  
HETATM   21  C   UNL     1     -12.631   6.970  71.400  1.00  0.00    -0.428 A  
HETATM   22  C   UNL     1     -13.470   9.535  72.086  1.00  0.00    -0.535 A  
HETATM   23  C   UNL     1     -13.981   7.311  71.308  1.00  0.00    -0.342 A  
HETATM   24  C   UNL     1     -14.399   8.596  71.642  1.00  0.00    -0.451 A  
ENDBRANCH  18  19
BRANCH  18  25
HETATM   25  C   UNL     1      -9.997   6.088  71.401  1.00  0.00    -0.223 A  
HETATM   26  C   UNL     1      -9.611   3.408  70.616  1.00  0.00    -0.168 A  
HETATM   27  C   UNL     1      -9.907   4.375  69.660  1.00  0.00    -0.272 A  
HETATM   28 CL   UNL     1      -9.300   1.787  70.130  1.00  0.00    -0.170 Cl 
HETATM   29  C   UNL     1      -9.751   5.081  72.354  1.00  0.00    -0.190 A  
HETATM   30  C   UNL     1     -10.116   5.702  70.054  1.00  0.00    -0.295 A  
HETATM   31  C   UNL     1      -9.553   3.755  71.965  1.00  0.00    -0.213 A  
ENDBRANCH  18  25
ENDBRANCH  15  18
ENDBRANCH  11  12
ENDBRANCH   8  11
ENDBRANCH   2   5
TORSDOF 6
ENDMDL
MODEL       46
REMARK 921   NORMALIZED FREE ENERGY PREDICTED BY IDOCK:   -5.73 KCAL/MOL
REMARK 922        TOTAL FREE ENERGY PREDICTED BY IDOCK:   -8.32 KCAL/MOL
REMARK 923 INTER-LIGAND FREE ENERGY PREDICTED BY IDOCK:   -7.56 KCAL/MOL
REMARK 924 INTRA-LIGAND FREE ENERGY PREDICTED BY IDOCK:   -0.76 KCAL/MOL
REMARK 927      BINDING AFFINITY PREDICTED BY RF-SCORE:    0.00 PKD
ROOT
HETATM    1  C   UNL     1      -8.908   2.046  72.477  1.00  0.00    -0.084 C  
HETATM    2  C   UNL     1      -9.671   3.210  73.149  1.00  0.00    -0.158 C  
HETATM    3  C   UNL     1      -8.751   3.765  74.265  1.00  0.00    -0.088 C  
HETATM    4  C   UNL     1     -10.928   2.604  73.815  1.00  0.00    -0.303 C  
ENDROOT
BRANCH   2   5
HETATM    5  C   UNL     1     -10.055   4.354  72.187  1.00  0.00    -0.262 A  
HETATM    6  C   UNL     1      -9.681   4.407  70.830  1.00  0.00    -0.267 A  
HETATM    7  C   UNL     1      -9.944   5.541  70.023  1.00  0.00    -0.285 A  
HETATM    8  C   UNL     1     -10.618   6.646  70.549  1.00  0.00    -0.270 A  
HETATM    9  C   UNL     1     -10.764   5.459  72.684  1.00  0.00    -0.288 A  
HETATM   10  C   UNL     1     -11.033   6.572  71.887  1.00  0.00    -0.288 A  
BRANCH   8  11
HETATM   11  C   UNL     1     -10.780   7.997  69.858  1.00  0.00    -0.242 C  
BRANCH  11  12
HETATM   12  N   UNL     1     -10.061   8.275  68.599  1.00  0.00    -0.192 NA 
HETATM   13  C   UNL     1     -10.883   8.967  67.591  1.00  0.00    -0.042 C  
HETATM   14  C   UNL     1     -11.067  10.516  67.699  1.00  0.00    -0.309 C  
HETATM   15  N   UNL     1     -10.028  11.353  68.354  1.00  0.00    -0.198 NA 
HETATM   16  C   UNL     1      -9.230  10.571  69.303  1.00  0.00    -0.148 C  
HETATM   17  C   UNL     1      -8.883   9.134  68.864  1.00  0.00    -0.139 C  
BRANCH  15  18
HETATM   18  C   UNL     1      -9.290  12.245  67.412  1.00  0.00    -0.183 C  
BRANCH  18  19
HETATM   19  C   UNL     1      -9.386  11.709  65.968  1.00  0.00    -0.241 A  
HETATM   20  C   UNL     1      -8.434  10.803  65.471  1.00  0.00    -0.153 A  
HETATM   21  C   UNL     1     -10.450  12.086  65.126  1.00  0.00    -0.328 A  
HETATM   22  C   UNL     1      -8.562  10.268  64.185  1.00  0.00    -0.198 A  
HETATM   23  C   UNL     1     -10.571  11.555  63.841  1.00  0.00    -0.448 A  
HETATM   24  C   UNL     1      -9.632  10.640  63.373  1.00  0.00    -0.373 A  
ENDBRANCH  18  19
BRANCH  18  25
HETATM   25  C   UNL     1      -9.707  13.733  67.421  1.00  0.00    -0.235 A  
HETATM   26  C   UNL     1     -10.382  16.471  67.425  1.00  0.00    -0.290 A  
HETATM   27  C   UNL     1     -11.067  15.586  68.254  1.00  0.00    -0.322 A  
HETATM   28 CL   UNL     1     -10.739  18.152  67.483  1.00  0.00    -0.413 Cl 
HETATM   29  C   UNL     1      -9.068  14.639  66.553  1.00  0.00    -0.267 A  
HETATM   30  C   UNL     1     -10.743  14.224  68.236  1.00  0.00    -0.253 A  
HETATM   31  C   UNL     1      -9.396  15.996  66.561  1.00  0.00    -0.296 A  
ENDBRANCH  18  25
ENDBRANCH  15  18
ENDBRANCH  11  12
ENDBRANCH   8  11
ENDBRANCH   2   5
TORSDOF 6
ENDMDL
MODEL       47
REMARK 921   NORMALIZED FREE ENERGY PREDICTED BY IDOCK:   -5.71 KCAL/MOL
REMARK 922        TOTAL FREE ENERGY PREDICTED BY IDOCK:   -8.29 KCAL/MOL
REMARK 923 INTER-LIGAND FREE ENERGY PREDICTED BY IDOCK:   -7.38 KCAL/MOL
REMARK 924 INTRA-LIGAND FREE ENERGY PREDICTED BY IDOCK:   -0.91 KCAL/MOL
REMARK 927      BINDING AFFINITY PREDICTED BY RF-SCORE:    0.00 PKD
ROOT
HETATM    1  C   UNL     1     -14.366  15.319  71.359  1.00  0.00    -0.578 C  
HETATM    2  C   UNL     1     -12.954  14.839  71.764  1.00  0.00    -0.410 C  
HETATM    3  C   UNL     1     -13.085  14.185  73.162  1.00  0.00    -0.300 C  
HETATM    4  C   UNL     1     -12.068  16.099  71.899  1.00  0.00    -0.548 C  
ENDROOT
BRANCH   2   5
HETATM    5  C   UNL     1     -12.325  13.826  70.783  1.00  0.00    -0.451 A  
HETATM    6  C   UNL     1     -11.590  14.186  69.636  1.00  0.00    -0.349 A  
HETATM    7  C   UNL     1     -11.147  13.223  68.697  1.00  0.00    -0.301 A  
HETATM    8  C   UNL     1     -11.405  11.864  68.897  1.00  0.00    -0.335 A  
HETATM    9  C   UNL     1     -12.539  12.453  70.983  1.00  0.00    -0.349 A  
HETATM   10  C   UNL     1     -12.094  11.503  70.064  1.00  0.00    -0.408 A  
BRANCH   8  11
HETATM   11  C   UNL     1     -11.168  10.756  67.873  1.00  0.00    -0.318 C  
BRANCH  11  12
HETATM   12  N   UNL     1      -9.856  10.086  67.799  1.00  0.00    -0.153 NA 
HETATM   13  C   UNL     1      -9.154  10.019  69.092  1.00  0.00    -0.184 C  
HETATM   14  C   UNL     1      -9.546   8.897  70.109  1.00  0.00    -0.180 C  
HETATM   15  N   UNL     1     -10.113   7.611  69.628  1.00  0.00    -0.190 NA 
HETATM   16  C   UNL     1     -10.747   7.763  68.315  1.00  0.00    -0.036 C  
HETATM   17  C   UNL     1     -10.021   8.693  67.322  1.00  0.00    -0.219 C  
BRANCH  15  18
HETATM   18  C   UNL     1      -9.202   6.442  69.816  1.00  0.00    -0.144 C  
BRANCH  18  19
HETATM   19  C   UNL     1      -7.778   6.916  70.172  1.00  0.00    -0.101 A  
HETATM   20  C   UNL     1      -7.378   7.052  71.513  1.00  0.00    -0.080 A  
HETATM   21  C   UNL     1      -6.832   7.186  69.165  1.00  0.00    -0.061 A  
HETATM   22  C   UNL     1      -6.066   7.418  71.832  1.00  0.00    -0.036 A  
HETATM   23  C   UNL     1      -5.525   7.557  69.487  1.00  0.00    -0.023 A  
HETATM   24  C   UNL     1      -5.140   7.664  70.820  1.00  0.00    -0.023 A  
ENDBRANCH  18  19
BRANCH  18  25
HETATM   25  C   UNL     1      -9.655   5.393  70.856  1.00  0.00    -0.226 A  
HETATM   26  C   UNL     1     -10.482   3.543  72.817  1.00  0.00    -0.133 A  
HETATM   27  C   UNL     1      -9.590   3.149  71.822  1.00  0.00    -0.227 A  
HETATM   28 CL   UNL     1     -10.928   2.439  74.058  1.00  0.00    -0.260 Cl 
HETATM   29  C   UNL     1     -10.597   5.751  71.839  1.00  0.00    -0.285 A  
HETATM   30  C   UNL     1      -9.196   4.063  70.839  1.00  0.00    -0.203 A  
HETATM   31  C   UNL     1     -11.001   4.837  72.814  1.00  0.00    -0.268 A  
ENDBRANCH  18  25
ENDBRANCH  15  18
ENDBRANCH  11  12
ENDBRANCH   8  11
ENDBRANCH   2   5
TORSDOF 6
ENDMDL
MODEL       48
REMARK 921   NORMALIZED FREE ENERGY PREDICTED BY IDOCK:   -5.68 KCAL/MOL
REMARK 922        TOTAL FREE ENERGY PREDICTED BY IDOCK:   -8.25 KCAL/MOL
REMARK 923 INTER-LIGAND FREE ENERGY PREDICTED BY IDOCK:   -7.60 KCAL/MOL
REMARK 924 INTRA-LIGAND FREE ENERGY PREDICTED BY IDOCK:   -0.65 KCAL/MOL
REMARK 927      BINDING AFFINITY PREDICTED BY RF-SCORE:    0.00 PKD
ROOT
HETATM    1  C   UNL     1      -7.672   4.356  64.730  1.00  0.00    -0.078 C  
HETATM    2  C   UNL     1      -8.477   4.624  66.022  1.00  0.00    -0.115 C  
HETATM    3  C   UNL     1      -7.523   4.351  67.211  1.00  0.00    -0.077 C  
HETATM    4  C   UNL     1      -9.620   3.584  66.069  1.00  0.00    -0.105 C  
ENDROOT
BRANCH   2   5
HETATM    5  C   UNL     1      -9.034   6.059  66.133  1.00  0.00    -0.160 A  
HETATM    6  C   UNL     1      -8.380   7.204  65.636  1.00  0.00    -0.138 A  
HETATM    7  C   UNL     1      -8.867   8.511  65.880  1.00  0.00    -0.219 A  
HETATM    8  C   UNL     1     -10.044   8.707  66.608  1.00  0.00    -0.364 A  
HETATM    9  C   UNL     1     -10.234   6.278  66.828  1.00  0.00    -0.262 A  
HETATM   10  C   UNL     1     -10.721   7.565  67.059  1.00  0.00    -0.367 A  
BRANCH   8  11
HETATM   11  C   UNL     1     -10.561  10.051  67.113  1.00  0.00    -0.232 C  
BRANCH  11  12
HETATM   12  N   UNL     1      -9.769  10.830  68.085  1.00  0.00    -0.155 NA 
HETATM   13  C   UNL     1      -8.878  11.823  67.459  1.00  0.00    -0.162 C  
HETATM   14  C   UNL     1      -9.474  13.197  67.009  1.00  0.00    -0.242 C  
HETATM   15  N   UNL     1     -10.669  13.758  67.692  1.00  0.00    -0.248 NA 
HETATM   16  C   UNL     1     -11.468  12.704  68.327  1.00  0.00    -0.313 C  
HETATM   17  C   UNL     1     -10.669  11.570  69.000  1.00  0.00    -0.193 C  
BRANCH  15  18
HETATM   18  C   UNL     1     -10.383  14.980  68.502  1.00  0.00    -0.230 C  
BRANCH  18  19
HETATM   19  C   UNL     1     -10.480  16.247  67.626  1.00  0.00    -0.295 A  
HETATM   20  C   UNL     1     -10.397  17.527  68.200  1.00  0.00    -0.375 A  
HETATM   21  C   UNL     1     -10.615  16.151  66.228  1.00  0.00    -0.276 A  
HETATM   22  C   UNL     1     -10.419  18.671  67.395  1.00  0.00    -0.467 A  
HETATM   23  C   UNL     1     -10.643  17.295  65.429  1.00  0.00    -0.083 A  
HETATM   24  C   UNL     1     -10.536  18.554  66.012  1.00  0.00    -0.433 A  
ENDBRANCH  18  19
BRANCH  18  25
HETATM   25  C   UNL     1     -11.255  15.176  69.762  1.00  0.00    -0.298 A  
HETATM   26  C   UNL     1     -12.903  15.586  72.013  1.00  0.00    -0.420 A  
HETATM   27  C   UNL     1     -11.523  15.494  72.171  1.00  0.00    -0.512 A  
HETATM   28 CL   UNL     1     -13.904  15.914  73.373  1.00  0.00    -0.306 Cl 
HETATM   29  C   UNL     1     -12.657  15.218  69.637  1.00  0.00    -0.087 A  
HETATM   30  C   UNL     1     -10.709  15.272  71.055  1.00  0.00    -0.058 A  
HETATM   31  C   UNL     1     -13.472  15.429  70.750  1.00  0.00    -0.324 A  
ENDBRANCH  18  25
ENDBRANCH  15  18
ENDBRANCH  11  12
ENDBRANCH   8  11
ENDBRANCH   2   5
TORSDOF 6
ENDMDL
MODEL       49
REMARK 921   NORMALIZED FREE ENERGY PREDICTED BY IDOCK:   -5.62 KCAL/MOL
REMARK 922        TOTAL FREE ENERGY PREDICTED BY IDOCK:   -8.17 KCAL/MOL
REMARK 923 INTER-LIGAND FREE ENERGY PREDICTED BY IDOCK:   -7.68 KCAL/MOL
REMARK 924 INTRA-LIGAND FREE ENERGY PREDICTED BY IDOCK:   -0.49 KCAL/MOL
REMARK 927      BINDING AFFINITY PREDICTED BY RF-SCORE:    0.00 PKD
ROOT
HETATM    1  C   UNL     1     -14.306  15.465  71.625  1.00  0.00    -0.615 C  
HETATM    2  C   UNL     1     -12.848  15.032  71.899  1.00  0.00    -0.414 C  
HETATM    3  C   UNL     1     -12.914  13.780  72.809  1.00  0.00    -0.345 C  
HETATM    4  C   UNL     1     -12.178  16.175  72.696  1.00  0.00    -0.625 C  
ENDROOT
BRANCH   2   5
HETATM    5  C   UNL     1     -12.037  14.698  70.629  1.00  0.00    -0.385 A  
HETATM    6  C   UNL     1     -10.851  15.358  70.250  1.00  0.00    -0.332 A  
HETATM    7  C   UNL     1     -10.217  15.105  69.009  1.00  0.00    -0.241 A  
HETATM    8  C   UNL     1     -10.740  14.161  68.122  1.00  0.00    -0.251 A  
HETATM    9  C   UNL     1     -12.523  13.727  69.740  1.00  0.00    -0.216 A  
HETATM   10  C   UNL     1     -11.893  13.470  68.522  1.00  0.00    -0.398 A  
BRANCH   8  11
HETATM   11  C   UNL     1     -10.280  13.945  66.683  1.00  0.00    -0.276 C  
BRANCH  11  12
HETATM   12  N   UNL     1      -9.295  12.891  66.371  1.00  0.00    -0.224 NA 
HETATM   13  C   UNL     1      -8.616  12.349  67.561  1.00  0.00    -0.177 C  
HETATM   14  C   UNL     1      -9.344  11.262  68.418  1.00  0.00    -0.181 C  
HETATM   15  N   UNL     1     -10.349  10.362  67.795  1.00  0.00    -0.192 NA 
HETATM   16  C   UNL     1     -10.935  10.963  66.593  1.00  0.00    -0.148 C  
HETATM   17  C   UNL     1      -9.962  11.754  65.696  1.00  0.00    -0.240 C  
BRANCH  15  18
HETATM   18  C   UNL     1      -9.907   8.938  67.702  1.00  0.00    -0.182 C  
BRANCH  18  19
HETATM   19  C   UNL     1      -8.376   8.855  67.526  1.00  0.00    -0.109 A  
HETATM   20  C   UNL     1      -7.527   8.762  68.642  1.00  0.00    -0.092 A  
HETATM   21  C   UNL     1      -7.796   8.831  66.244  1.00  0.00    -0.102 A  
HETATM   22  C   UNL     1      -6.145   8.621  68.477  1.00  0.00    -0.046 A  
HETATM   23  C   UNL     1      -6.416   8.695  66.082  1.00  0.00    -0.057 A  
HETATM   24  C   UNL     1      -5.592   8.581  67.198  1.00  0.00    -0.038 A  
ENDBRANCH  18  19
BRANCH  18  25
HETATM   25  C   UNL     1     -10.326   8.022  68.873  1.00  0.00    -0.222 A  
HETATM   26  C   UNL     1     -11.069   6.416  71.069  1.00  0.00    -0.294 A  
HETATM   27  C   UNL     1     -10.470   5.834  69.955  1.00  0.00    -0.360 A  
HETATM   28 CL   UNL     1     -11.452   5.451  72.440  1.00  0.00    -0.261 Cl 
HETATM   29  C   UNL     1     -10.983   8.577  69.988  1.00  0.00    -0.197 A  
HETATM   30  C   UNL     1     -10.119   6.631  68.858  1.00  0.00    -0.178 A  
HETATM   31  C   UNL     1     -11.343   7.783  71.079  1.00  0.00    -0.287 A  
ENDBRANCH  18  25
ENDBRANCH  15  18
ENDBRANCH  11  12
ENDBRANCH   8  11
ENDBRANCH   2   5
TORSDOF 6
ENDMDL
MODEL       50
REMARK 921   NORMALIZED FREE ENERGY PREDICTED BY IDOCK:   -5.62 KCAL/MOL
REMARK 922        TOTAL FREE ENERGY PREDICTED BY IDOCK:   -8.17 KCAL/MOL
REMARK 923 INTER-LIGAND FREE ENERGY PREDICTED BY IDOCK:   -7.14 KCAL/MOL
REMARK 924 INTRA-LIGAND FREE ENERGY PREDICTED BY IDOCK:   -1.02 KCAL/MOL
REMARK 927      BINDING AFFINITY PREDICTED BY RF-SCORE:    0.00 PKD
ROOT
HETATM    1  C   UNL     1      -8.012   4.546  74.245  1.00  0.00    -0.096 C  
HETATM    2  C   UNL     1      -9.352   4.542  73.476  1.00  0.00    -0.125 C  
HETATM    3  C   UNL     1     -10.411   3.918  74.420  1.00  0.00    -0.267 C  
HETATM    4  C   UNL     1      -9.174   3.604  72.260  1.00  0.00    -0.164 C  
ENDROOT
BRANCH   2   5
HETATM    5  C   UNL     1      -9.828   5.940  73.027  1.00  0.00    -0.178 A  
HETATM    6  C   UNL     1     -11.181   6.312  72.899  1.00  0.00    -0.233 A  
HETATM    7  C   UNL     1     -11.567   7.562  72.357  1.00  0.00    -0.356 A  
HETATM    8  C   UNL     1     -10.602   8.490  71.953  1.00  0.00    -0.392 A  
HETATM    9  C   UNL     1      -8.878   6.902  72.650  1.00  0.00    -0.137 A  
HETATM   10  C   UNL     1      -9.256   8.137  72.126  1.00  0.00    -0.258 A  
BRANCH   8  11
HETATM   11  C   UNL     1     -10.878   9.771  71.170  1.00  0.00    -0.263 C  
BRANCH  11  12
HETATM   12  N   UNL     1     -11.776   9.745  70.000  1.00  0.00    -0.138 NA 
HETATM   13  C   UNL     1     -12.097  11.082  69.472  1.00  0.00    -0.329 C  
HETATM   14  C   UNL     1     -11.069  11.790  68.529  1.00  0.00    -0.239 C  
HETATM   15  N   UNL     1     -10.135  10.986  67.698  1.00  0.00    -0.179 NA 
HETATM   16  C   UNL     1      -9.914   9.656  68.274  1.00  0.00    -0.155 C  
HETATM   17  C   UNL     1     -11.153   8.979  68.896  1.00  0.00     0.164 C  
BRANCH  15  18
HETATM   18  C   UNL     1     -10.416  11.059  66.233  1.00  0.00    -0.254 C  
BRANCH  18  19
HETATM   19  C   UNL     1     -10.839  12.487  65.832  1.00  0.00    -0.302 A  
HETATM   20  C   UNL     1      -9.959  13.571  65.991  1.00  0.00    -0.308 A  
HETATM   21  C   UNL     1     -12.102  12.734  65.261  1.00  0.00    -0.505 A  
HETATM   22  C   UNL     1     -10.323  14.853  65.565  1.00  0.00    -0.388 A  
HETATM   23  C   UNL     1     -12.464  14.015  64.842  1.00  0.00    -0.419 A  
HETATM   24  C   UNL     1     -11.571  15.073  64.987  1.00  0.00    -0.332 A  
ENDBRANCH  18  19
BRANCH  18  25
HETATM   25  C   UNL     1      -9.273  10.596  65.301  1.00  0.00    -0.230 A  
HETATM   26  C   UNL     1      -7.247   9.698  63.558  1.00  0.00    -0.111 A  
HETATM   27  C   UNL     1      -6.943   9.989  64.885  1.00  0.00    -0.136 A  
HETATM   28 CL   UNL     1      -6.031   9.076  62.513  1.00  0.00    -0.094 Cl 
HETATM   29  C   UNL     1      -9.544  10.348  63.942  1.00  0.00    -0.370 A  
HETATM   30  C   UNL     1      -7.946  10.452  65.743  1.00  0.00    -0.152 A  
HETATM   31  C   UNL     1      -8.542   9.896  63.080  1.00  0.00    -0.199 A  
ENDBRANCH  18  25
ENDBRANCH  15  18
ENDBRANCH  11  12
ENDBRANCH   8  11
ENDBRANCH   2   5
TORSDOF 6
ENDMDL
MODEL       51
REMARK 921   NORMALIZED FREE ENERGY PREDICTED BY IDOCK:   -5.61 KCAL/MOL
REMARK 922        TOTAL FREE ENERGY PREDICTED BY IDOCK:   -8.16 KCAL/MOL
REMARK 923 INTER-LIGAND FREE ENERGY PREDICTED BY IDOCK:   -7.03 KCAL/MOL
REMARK 924 INTRA-LIGAND FREE ENERGY PREDICTED BY IDOCK:   -1.12 KCAL/MOL
REMARK 927      BINDING AFFINITY PREDICTED BY RF-SCORE:    0.00 PKD
ROOT
HETATM    1  C   UNL     1     -10.271  19.265  66.114  1.00  0.00    -0.549 C  
HETATM    2  C   UNL     1      -9.389  19.294  67.383  1.00  0.00    -0.368 C  
HETATM    3  C   UNL     1     -10.283  19.808  68.540  1.00  0.00    -0.547 C  
HETATM    4  C   UNL     1      -8.273  20.335  67.135  1.00  0.00    -0.385 C  
ENDROOT
BRANCH   2   5
HETATM    5  C   UNL     1      -8.791  17.925  67.769  1.00  0.00    -0.251 A  
HETATM    6  C   UNL     1      -9.420  16.998  68.623  1.00  0.00    -0.274 A  
HETATM    7  C   UNL     1      -8.771  15.815  69.053  1.00  0.00    -0.237 A  
HETATM    8  C   UNL     1      -7.480  15.512  68.613  1.00  0.00    -0.131 A  
HETATM    9  C   UNL     1      -7.509  17.582  67.310  1.00  0.00    -0.214 A  
HETATM   10  C   UNL     1      -6.874  16.411  67.724  1.00  0.00    -0.152 A  
BRANCH   8  11
HETATM   11  C   UNL     1      -6.598  14.390  69.156  1.00  0.00    -0.112 C  
BRANCH  11  12
HETATM   12  N   UNL     1      -6.219  13.261  68.284  1.00  0.00    -0.088 NA 
HETATM   13  C   UNL     1      -5.725  12.086  69.023  1.00  0.00    -0.057 C  
HETATM   14  C   UNL     1      -6.761  11.103  69.660  1.00  0.00    -0.134 C  
HETATM   15  N   UNL     1      -8.120  10.961  69.076  1.00  0.00    -0.143 NA 
HETATM   16  C   UNL     1      -8.507  12.155  68.320  1.00  0.00    -0.176 C  
HETATM   17  C   UNL     1      -7.387  12.815  67.490  1.00  0.00    -0.153 C  
BRANCH  15  18
HETATM   18  C   UNL     1      -8.364   9.635  68.432  1.00  0.00    -0.117 C  
BRANCH  18  19
HETATM   19  C   UNL     1      -9.507   8.885  69.149  1.00  0.00    -0.157 A  
HETATM   20  C   UNL     1      -9.720   7.514  68.925  1.00  0.00    -0.151 A  
HETATM   21  C   UNL     1     -10.338   9.546  70.072  1.00  0.00    -0.284 A  
HETATM   22  C   UNL     1     -10.715   6.824  69.626  1.00  0.00    -0.290 A  
HETATM   23  C   UNL     1     -11.333   8.856  70.766  1.00  0.00    -0.325 A  
HETATM   24  C   UNL     1     -11.516   7.493  70.549  1.00  0.00    -0.259 A  
ENDBRANCH  18  19
BRANCH  18  25
HETATM   25  C   UNL     1      -8.660   9.664  66.916  1.00  0.00    -0.132 A  
HETATM   26  C   UNL     1      -9.113   9.743  64.134  1.00  0.00    -0.244 A  
HETATM   27  C   UNL     1     -10.128  10.109  65.013  1.00  0.00    -0.305 A  
HETATM   28 CL   UNL     1      -9.361   9.864  62.436  1.00  0.00    -0.301 Cl 
HETATM   29  C   UNL     1      -7.668   9.247  66.007  1.00  0.00    -0.096 A  
HETATM   30  C   UNL     1      -9.907  10.051  66.394  1.00  0.00    -0.283 A  
HETATM   31  C   UNL     1      -7.889   9.293  64.630  1.00  0.00    -0.120 A  
ENDBRANCH  18  25
ENDBRANCH  15  18
ENDBRANCH  11  12
ENDBRANCH   8  11
ENDBRANCH   2   5
TORSDOF 6
ENDMDL
MODEL       52
REMARK 921   NORMALIZED FREE ENERGY PREDICTED BY IDOCK:   -5.60 KCAL/MOL
REMARK 922        TOTAL FREE ENERGY PREDICTED BY IDOCK:   -8.14 KCAL/MOL
REMARK 923 INTER-LIGAND FREE ENERGY PREDICTED BY IDOCK:   -7.11 KCAL/MOL
REMARK 924 INTRA-LIGAND FREE ENERGY PREDICTED BY IDOCK:   -1.03 KCAL/MOL
REMARK 927      BINDING AFFINITY PREDICTED BY RF-SCORE:    0.00 PKD
ROOT
HETATM    1  C   UNL     1      -8.235  19.619  66.181  1.00  0.00    -0.355 C  
HETATM    2  C   UNL     1      -9.601  19.192  66.764  1.00  0.00    -0.383 C  
HETATM    3  C   UNL     1     -10.684  19.654  65.756  1.00  0.00    -0.493 C  
HETATM    4  C   UNL     1      -9.798  19.978  68.081  1.00  0.00    -0.499 C  
ENDROOT
BRANCH   2   5
HETATM    5  C   UNL     1      -9.741  17.674  67.003  1.00  0.00    -0.292 A  
HETATM    6  C   UNL     1     -10.620  17.098  67.942  1.00  0.00    -0.376 A  
HETATM    7  C   UNL     1     -10.615  15.708  68.219  1.00  0.00    -0.262 A  
HETATM    8  C   UNL     1      -9.746  14.851  67.538  1.00  0.00    -0.212 A  
HETATM    9  C   UNL     1      -8.904  16.789  66.305  1.00  0.00    -0.334 A  
HETATM   10  C   UNL     1      -8.907  15.419  66.569  1.00  0.00    -0.347 A  
BRANCH   8  11
HETATM   11  C   UNL     1      -9.497  13.385  67.883  1.00  0.00    -0.216 C  
BRANCH  11  12
HETATM   12  N   UNL     1     -10.352  12.332  67.300  1.00  0.00    -0.213 NA 
HETATM   13  C   UNL     1      -9.733  11.633  66.161  1.00  0.00    -0.229 C  
HETATM   14  C   UNL     1      -8.706  10.488  66.444  1.00  0.00    -0.145 C  
HETATM   15  N   UNL     1      -8.781   9.705  67.705  1.00  0.00    -0.126 NA 
HETATM   16  C   UNL     1      -9.455  10.460  68.766  1.00  0.00    -0.175 C  
HETATM   17  C   UNL     1     -10.665  11.306  68.322  1.00  0.00    -0.194 C  
BRANCH  15  18
HETATM   18  C   UNL     1      -9.196   8.284  67.508  1.00  0.00    -0.137 C  
BRANCH  18  19
HETATM   19  C   UNL     1      -8.049   7.465  66.880  1.00  0.00    -0.120 A  
HETATM   20  C   UNL     1      -8.291   6.599  65.800  1.00  0.00    -0.143 A  
HETATM   21  C   UNL     1      -6.728   7.594  67.347  1.00  0.00    -0.068 A  
HETATM   22  C   UNL     1      -7.237   5.909  65.190  1.00  0.00    -0.066 A  
HETATM   23  C   UNL     1      -5.680   6.900  66.741  1.00  0.00    -0.018 A  
HETATM   24  C   UNL     1      -5.933   6.064  65.657  1.00  0.00    -0.025 A  
ENDBRANCH  18  19
BRANCH  18  25
HETATM   25  C   UNL     1      -9.704   7.547  68.768  1.00  0.00    -0.151 A  
HETATM   26  C   UNL     1     -10.712   6.238  71.053  1.00  0.00    -0.259 A  
HETATM   27  C   UNL     1      -9.402   6.711  71.045  1.00  0.00    -0.161 A  
HETATM   28 CL   UNL     1     -11.353   5.509  72.472  1.00  0.00    -0.335 Cl 
HETATM   29  C   UNL     1     -11.006   7.012  68.782  1.00  0.00    -0.150 A  
HETATM   30  C   UNL     1      -8.898   7.343  69.903  1.00  0.00    -0.141 A  
HETATM   31  C   UNL     1     -11.508   6.371  69.916  1.00  0.00    -0.483 A  
ENDBRANCH  18  25
ENDBRANCH  15  18
ENDBRANCH  11  12
ENDBRANCH   8  11
ENDBRANCH   2   5
TORSDOF 6
ENDMDL
MODEL       53
REMARK 921   NORMALIZED FREE ENERGY PREDICTED BY IDOCK:   -5.60 KCAL/MOL
REMARK 922        TOTAL FREE ENERGY PREDICTED BY IDOCK:   -8.14 KCAL/MOL
REMARK 923 INTER-LIGAND FREE ENERGY PREDICTED BY IDOCK:   -8.64 KCAL/MOL
REMARK 924 INTRA-LIGAND FREE ENERGY PREDICTED BY IDOCK:    0.51 KCAL/MOL
REMARK 927      BINDING AFFINITY PREDICTED BY RF-SCORE:    0.00 PKD
ROOT
HETATM    1  C   UNL     1      -9.179  21.231  67.361  1.00  0.00     0.139 C  
HETATM    2  C   UNL     1      -9.620  19.754  67.473  1.00  0.00    -0.470 C  
HETATM    3  C   UNL     1     -10.502  19.453  66.235  1.00  0.00    -0.586 C  
HETATM    4  C   UNL     1     -10.503  19.639  68.737  1.00  0.00    -0.180 C  
ENDROOT
BRANCH   2   5
HETATM    5  C   UNL     1      -8.452  18.747  67.524  1.00  0.00    -0.288 A  
HETATM    6  C   UNL     1      -8.039  17.957  66.433  1.00  0.00    -0.296 A  
HETATM    7  C   UNL     1      -7.049  16.953  66.567  1.00  0.00    -0.281 A  
HETATM    8  C   UNL     1      -6.423  16.731  67.796  1.00  0.00    -0.162 A  
HETATM    9  C   UNL     1      -7.782  18.532  68.739  1.00  0.00    -0.305 A  
HETATM   10  C   UNL     1      -6.800  17.551  68.869  1.00  0.00    -0.246 A  
BRANCH   8  11
HETATM   11  C   UNL     1      -5.502  15.558  68.124  1.00  0.00    -0.119 C  
BRANCH  11  12
HETATM   12  N   UNL     1      -6.064  14.307  68.669  1.00  0.00    -0.084 NA 
HETATM   13  C   UNL     1      -6.973  14.516  69.809  1.00  0.00    -0.095 C  
HETATM   14  C   UNL     1      -8.455  14.930  69.529  1.00  0.00    -0.002 C  
HETATM   15  N   UNL     1      -9.114  14.547  68.253  1.00  0.00    -0.190 NA 
HETATM   16  C   UNL     1      -8.131  14.312  67.191  1.00  0.00    -0.129 C  
HETATM   17  C   UNL     1      -6.835  13.596  67.622  1.00  0.00    -0.174 C  
BRANCH  15  18
HETATM   18  C   UNL     1     -10.200  13.535  68.415  1.00  0.00    -0.245 C  
BRANCH  18  19
HETATM   19  C   UNL     1     -11.245  14.019  69.443  1.00  0.00    -0.283 A  
HETATM   20  C   UNL     1     -11.951  13.102  70.239  1.00  0.00    -0.366 A  
HETATM   21  C   UNL     1     -11.487  15.393  69.635  1.00  0.00    -0.331 A  
HETATM   22  C   UNL     1     -12.849  13.547  71.215  1.00  0.00    -0.420 A  
HETATM   23  C   UNL     1     -12.388  15.834  70.606  1.00  0.00    -0.412 A  
HETATM   24  C   UNL     1     -13.063  14.912  71.401  1.00  0.00    -0.441 A  
ENDBRANCH  18  19
BRANCH  18  25
HETATM   25  C   UNL     1     -10.931  13.113  67.121  1.00  0.00    -0.289 A  
HETATM   26  C   UNL     1     -12.186  12.313  64.726  1.00  0.00    -0.365 A  
HETATM   27  C   UNL     1     -12.605  13.471  65.376  1.00  0.00    -0.531 A  
HETATM   28 CL   UNL     1     -12.897  11.864  63.226  1.00  0.00    -0.542 Cl 
HETATM   29  C   UNL     1     -10.564  11.918  66.474  1.00  0.00    -0.278 A  
HETATM   30  C   UNL     1     -11.993  13.856  66.574  1.00  0.00    -0.470 A  
HETATM   31  C   UNL     1     -11.180  11.525  65.284  1.00  0.00    -0.203 A  
ENDBRANCH  18  25
ENDBRANCH  15  18
ENDBRANCH  11  12
ENDBRANCH   8  11
ENDBRANCH   2   5
TORSDOF 6
ENDMDL
MODEL       54
REMARK 921   NORMALIZED FREE ENERGY PREDICTED BY IDOCK:   -5.58 KCAL/MOL
REMARK 922        TOTAL FREE ENERGY PREDICTED BY IDOCK:   -8.12 KCAL/MOL
REMARK 923 INTER-LIGAND FREE ENERGY PREDICTED BY IDOCK:   -7.27 KCAL/MOL
REMARK 924 INTRA-LIGAND FREE ENERGY PREDICTED BY IDOCK:   -0.85 KCAL/MOL
REMARK 927      BINDING AFFINITY PREDICTED BY RF-SCORE:    0.00 PKD
ROOT
HETATM    1  C   UNL     1      -9.710   6.610  73.707  1.00  0.00    -0.248 C  
HETATM    2  C   UNL     1     -10.217   5.667  72.592  1.00  0.00    -0.216 C  
HETATM    3  C   UNL     1     -11.677   5.292  72.949  1.00  0.00    -0.228 C  
HETATM    4  C   UNL     1      -9.357   4.383  72.658  1.00  0.00    -0.157 C  
ENDROOT
BRANCH   2   5
HETATM    5  C   UNL     1     -10.179   6.283  71.177  1.00  0.00    -0.238 A  
HETATM    6  C   UNL     1     -11.093   5.967  70.152  1.00  0.00    -0.432 A  
HETATM    7  C   UNL     1     -10.937   6.458  68.832  1.00  0.00    -0.412 A  
HETATM    8  C   UNL     1      -9.872   7.304  68.509  1.00  0.00    -0.159 A  
HETATM    9  C   UNL     1      -9.140   7.164  70.839  1.00  0.00    -0.152 A  
HETATM   10  C   UNL     1      -8.992   7.656  69.543  1.00  0.00    -0.139 A  
BRANCH   8  11
HETATM   11  C   UNL     1      -9.475   7.730  67.098  1.00  0.00    -0.155 C  
BRANCH  11  12
HETATM   12  N   UNL     1     -10.200   8.825  66.425  1.00  0.00    -0.259 NA 
HETATM   13  C   UNL     1     -10.704   9.855  67.350  1.00  0.00    -0.260 C  
HETATM   14  C   UNL     1      -9.724  10.963  67.856  1.00  0.00    -0.165 C  
HETATM   15  N   UNL     1      -8.557  11.368  67.030  1.00  0.00    -0.151 NA 
HETATM   16  C   UNL     1      -8.157  10.302  66.107  1.00  0.00    -0.133 C  
HETATM   17  C   UNL     1      -9.309   9.508  65.459  1.00  0.00    -0.255 C  
BRANCH  15  18
HETATM   18  C   UNL     1      -8.663  12.750  66.473  1.00  0.00     0.025 C  
BRANCH  18  19
HETATM   19  C   UNL     1     -10.126  13.078  66.108  1.00  0.00    -0.287 A  
HETATM   20  C   UNL     1     -11.002  13.622  67.063  1.00  0.00    -0.298 A  
HETATM   21  C   UNL     1     -10.609  12.875  64.801  1.00  0.00    -0.362 A  
HETATM   22  C   UNL     1     -12.308  13.979  66.711  1.00  0.00    -0.368 A  
HETATM   23  C   UNL     1     -11.914  13.227  64.455  1.00  0.00    -0.459 A  
HETATM   24  C   UNL     1     -12.761  13.787  65.407  1.00  0.00    -0.513 A  
ENDBRANCH  18  19
BRANCH  18  25
HETATM   25  C   UNL     1      -8.104  13.883  67.362  1.00  0.00    -0.190 A  
HETATM   26  C   UNL     1      -7.058  15.995  68.911  1.00  0.00    -0.156 A  
HETATM   27  C   UNL     1      -6.988  14.687  69.383  1.00  0.00    -0.163 A  
HETATM   28 CL   UNL     1      -6.352  17.274  69.817  1.00  0.00    -0.205 Cl 
HETATM   29  C   UNL     1      -8.212  15.220  66.933  1.00  0.00    -0.263 A  
HETATM   30  C   UNL     1      -7.525  13.643  68.621  1.00  0.00    -0.113 A  
HETATM   31  C   UNL     1      -7.687  16.265  67.696  1.00  0.00    -0.161 A  
ENDBRANCH  18  25
ENDBRANCH  15  18
ENDBRANCH  11  12
ENDBRANCH   8  11
ENDBRANCH   2   5
TORSDOF 6
ENDMDL
MODEL       55
REMARK 921   NORMALIZED FREE ENERGY PREDICTED BY IDOCK:   -5.57 KCAL/MOL
REMARK 922        TOTAL FREE ENERGY PREDICTED BY IDOCK:   -8.09 KCAL/MOL
REMARK 923 INTER-LIGAND FREE ENERGY PREDICTED BY IDOCK:   -8.19 KCAL/MOL
REMARK 924 INTRA-LIGAND FREE ENERGY PREDICTED BY IDOCK:    0.09 KCAL/MOL
REMARK 927      BINDING AFFINITY PREDICTED BY RF-SCORE:    0.00 PKD
ROOT
HETATM    1  C   UNL     1     -11.032   5.637  72.691  1.00  0.00    -0.316 C  
HETATM    2  C   UNL     1      -9.762   5.464  71.827  1.00  0.00    -0.206 C  
HETATM    3  C   UNL     1      -9.652   3.956  71.487  1.00  0.00    -0.236 C  
HETATM    4  C   UNL     1      -8.555   5.849  72.713  1.00  0.00    -0.122 C  
ENDROOT
BRANCH   2   5
HETATM    5  C   UNL     1      -9.769   6.283  70.519  1.00  0.00    -0.196 A  
HETATM    6  C   UNL     1      -8.655   6.986  70.019  1.00  0.00    -0.141 A  
HETATM    7  C   UNL     1      -8.749   7.831  68.886  1.00  0.00    -0.135 A  
HETATM    8  C   UNL     1      -9.960   7.973  68.203  1.00  0.00    -0.217 A  
HETATM    9  C   UNL     1     -10.965   6.411  69.795  1.00  0.00    -0.417 A  
HETATM   10  C   UNL     1     -11.055   7.234  68.673  1.00  0.00     0.057 A  
BRANCH   8  11
HETATM   11  C   UNL     1     -10.246   8.998  67.109  1.00  0.00    -0.265 C  
BRANCH  11  12
HETATM   12  N   UNL     1      -9.644  10.343  67.180  1.00  0.00    -0.162 NA 
HETATM   13  C   UNL     1     -10.159  11.275  66.161  1.00  0.00    -0.236 C  
HETATM   14  C   UNL     1     -11.526  11.992  66.414  1.00  0.00    -0.353 C  
HETATM   15  N   UNL     1     -11.997  12.244  67.801  1.00  0.00    -0.498 NA 
HETATM   16  C   UNL     1     -11.396  11.303  68.751  1.00  0.00    -0.270 C  
HETATM   17  C   UNL     1      -9.914  10.953  68.502  1.00  0.00    -0.182 C  
BRANCH  15  18
HETATM   18  C   UNL     1     -12.006  13.688  68.182  1.00  0.00    -0.355 C  
BRANCH  18  19
HETATM   19  C   UNL     1     -12.405  13.857  69.663  1.00  0.00    -0.301 A  
HETATM   20  C   UNL     1     -12.585  15.134  70.219  1.00  0.00    -0.370 A  
HETATM   21  C   UNL     1     -12.635  12.735  70.482  1.00  0.00    -0.191 A  
HETATM   22  C   UNL     1     -13.011  15.282  71.544  1.00  0.00    -0.488 A  
HETATM   23  C   UNL     1     -13.055  12.885  71.805  1.00  0.00    -0.458 A  
HETATM   24  C   UNL     1     -13.251  14.158  72.333  1.00  0.00    -0.566 A  
ENDBRANCH  18  19
BRANCH  18  25
HETATM   25  C   UNL     1     -10.694  14.463  67.927  1.00  0.00    -0.246 A  
HETATM   26  C   UNL     1      -8.324  15.888  67.375  1.00  0.00    -0.171 A  
HETATM   27  C   UNL     1      -8.304  14.833  68.283  1.00  0.00    -0.148 A  
HETATM   28 CL   UNL     1      -6.865  16.709  66.979  1.00  0.00    -0.225 Cl 
HETATM   29  C   UNL     1     -10.699  15.569  67.055  1.00  0.00    -0.321 A  
HETATM   30  C   UNL     1      -9.485  14.139  68.569  1.00  0.00    -0.202 A  
HETATM   31  C   UNL     1      -9.524  16.269  66.775  1.00  0.00    -0.253 A  
ENDBRANCH  18  25
ENDBRANCH  15  18
ENDBRANCH  11  12
ENDBRANCH   8  11
ENDBRANCH   2   5
TORSDOF 6
ENDMDL
MODEL       56
REMARK 921   NORMALIZED FREE ENERGY PREDICTED BY IDOCK:   -5.45 KCAL/MOL
REMARK 922        TOTAL FREE ENERGY PREDICTED BY IDOCK:   -7.94 KCAL/MOL
REMARK 923 INTER-LIGAND FREE ENERGY PREDICTED BY IDOCK:   -7.41 KCAL/MOL
REMARK 924 INTRA-LIGAND FREE ENERGY PREDICTED BY IDOCK:   -0.53 KCAL/MOL
REMARK 927      BINDING AFFINITY PREDICTED BY RF-SCORE:    0.00 PKD
ROOT
HETATM    1  C   UNL     1     -12.351  15.764  70.069  1.00  0.00    -0.248 C  
HETATM    2  C   UNL     1     -12.888  14.964  71.277  1.00  0.00    -0.419 C  
HETATM    3  C   UNL     1     -14.411  15.236  71.357  1.00  0.00    -0.578 C  
HETATM    4  C   UNL     1     -12.223  15.552  72.543  1.00  0.00    -0.512 C  
ENDROOT
BRANCH   2   5
HETATM    5  C   UNL     1     -12.645  13.442  71.185  1.00  0.00    -0.430 A  
HETATM    6  C   UNL     1     -11.831  12.827  70.214  1.00  0.00    -0.292 A  
HETATM    7  C   UNL     1     -11.746  11.418  70.090  1.00  0.00    -0.414 A  
HETATM    8  C   UNL     1     -12.456  10.584  70.958  1.00  0.00    -0.501 A  
HETATM    9  C   UNL     1     -13.318  12.585  72.070  1.00  0.00    -0.528 A  
HETATM   10  C   UNL     1     -13.227  11.198  71.955  1.00  0.00    -0.428 A  
BRANCH   8  11
HETATM   11  C   UNL     1     -12.614   9.074  70.804  1.00  0.00     0.085 C  
BRANCH  11  12
HETATM   12  N   UNL     1     -11.643   8.160  71.435  1.00  0.00    -0.270 NA 
HETATM   13  C   UNL     1     -11.731   6.774  70.944  1.00  0.00    -0.372 C  
HETATM   14  C   UNL     1     -11.035   6.404  69.593  1.00  0.00    -0.358 C  
HETATM   15  N   UNL     1      -9.851   7.170  69.124  1.00  0.00    -0.158 NA 
HETATM   16  C   UNL     1      -9.820   8.517  69.702  1.00  0.00    -0.183 C  
HETATM   17  C   UNL     1     -10.261   8.626  71.175  1.00  0.00    -0.230 C  
BRANCH  15  18
HETATM   18  C   UNL     1      -8.579   6.388  69.146  1.00  0.00    -0.125 C  
BRANCH  18  19
HETATM   19  C   UNL     1      -8.751   5.094  69.969  1.00  0.00    -0.123 A  
HETATM   20  C   UNL     1      -8.341   5.034  71.312  1.00  0.00    -0.117 A  
HETATM   21  C   UNL     1      -9.358   3.955  69.407  1.00  0.00    -0.246 A  
HETATM   22  C   UNL     1      -8.559   3.881  72.073  1.00  0.00    -0.113 A  
HETATM   23  C   UNL     1      -9.569   2.804  70.168  1.00  0.00    -0.117 A  
HETATM   24  C   UNL     1      -9.178   2.770  71.503  1.00  0.00    -0.185 A  
ENDBRANCH  18  19
BRANCH  18  25
HETATM   25  C   UNL     1      -7.982   6.027  67.768  1.00  0.00    -0.105 A  
HETATM   26  C   UNL     1      -6.977   5.361  65.219  1.00  0.00    -0.064 A  
HETATM   27  C   UNL     1      -6.312   4.926  66.362  1.00  0.00    -0.036 A  
HETATM   28 CL   UNL     1      -6.410   4.891  63.664  1.00  0.00    -0.025 Cl 
HETATM   29  C   UNL     1      -8.604   6.500  66.597  1.00  0.00    -0.118 A  
HETATM   30  C   UNL     1      -6.803   5.274  67.626  1.00  0.00    -0.060 A  
HETATM   31  C   UNL     1      -8.111   6.164  65.334  1.00  0.00    -0.133 A  
ENDBRANCH  18  25
ENDBRANCH  15  18
ENDBRANCH  11  12
ENDBRANCH   8  11
ENDBRANCH   2   5
TORSDOF 6
ENDMDL
MODEL       57
REMARK 921   NORMALIZED FREE ENERGY PREDICTED BY IDOCK:   -5.44 KCAL/MOL
REMARK 922        TOTAL FREE ENERGY PREDICTED BY IDOCK:   -7.92 KCAL/MOL
REMARK 923 INTER-LIGAND FREE ENERGY PREDICTED BY IDOCK:   -6.81 KCAL/MOL
REMARK 924 INTRA-LIGAND FREE ENERGY PREDICTED BY IDOCK:   -1.12 KCAL/MOL
REMARK 927      BINDING AFFINITY PREDICTED BY RF-SCORE:    0.00 PKD
ROOT
HETATM    1  C   UNL     1     -11.743   6.704  70.400  1.00  0.00    -0.446 C  
HETATM    2  C   UNL     1     -10.258   6.299  70.541  1.00  0.00    -0.240 C  
HETATM    3  C   UNL     1     -10.040   5.064  69.631  1.00  0.00    -0.321 C  
HETATM    4  C   UNL     1     -10.045   5.862  72.009  1.00  0.00    -0.223 C  
ENDROOT
BRANCH   2   5
HETATM    5  C   UNL     1      -9.259   7.407  70.146  1.00  0.00    -0.151 A  
HETATM    6  C   UNL     1      -7.954   7.165  69.673  1.00  0.00    -0.124 A  
HETATM    7  C   UNL     1      -7.031   8.216  69.451  1.00  0.00    -0.051 A  
HETATM    8  C   UNL     1      -7.401   9.546  69.670  1.00  0.00    -0.084 A  
HETATM    9  C   UNL     1      -9.621   8.752  70.323  1.00  0.00    -0.198 A  
HETATM   10  C   UNL     1      -8.716   9.788  70.094  1.00  0.00    -0.215 A  
BRANCH   8  11
HETATM   11  C   UNL     1      -6.452  10.742  69.669  1.00  0.00    -0.103 C  
BRANCH  11  12
HETATM   12  N   UNL     1      -6.120  11.421  68.401  1.00  0.00    -0.045 NA 
HETATM   13  C   UNL     1      -7.062  11.124  67.308  1.00  0.00    -0.109 C  
HETATM   14  C   UNL     1      -8.417  11.903  67.244  1.00  0.00    -0.172 C  
HETATM   15  N   UNL     1      -8.527  13.266  67.824  1.00  0.00    -0.167 NA 
HETATM   16  C   UNL     1      -7.521  13.489  68.867  1.00  0.00    -0.017 C  
HETATM   17  C   UNL     1      -6.127  12.890  68.593  1.00  0.00    -0.068 C  
BRANCH  15  18
HETATM   18  C   UNL     1      -8.704  14.343  66.805  1.00  0.00    -0.159 C  
BRANCH  18  19
HETATM   19  C   UNL     1     -10.139  14.322  66.235  1.00  0.00    -0.308 A  
HETATM   20  C   UNL     1     -10.436  14.938  65.008  1.00  0.00    -0.429 A  
HETATM   21  C   UNL     1     -11.176  13.653  66.913  1.00  0.00    -0.326 A  
HETATM   22  C   UNL     1     -11.722  14.860  64.464  1.00  0.00    -0.388 A  
HETATM   23  C   UNL     1     -12.460  13.582  66.370  1.00  0.00    -0.349 A  
HETATM   24  C   UNL     1     -12.731  14.178  65.142  1.00  0.00    -0.387 A  
ENDBRANCH  18  19
BRANCH  18  25
HETATM   25  C   UNL     1      -8.374  15.778  67.272  1.00  0.00    -0.213 A  
HETATM   26  C   UNL     1      -7.859  18.419  68.116  1.00  0.00    -0.289 A  
HETATM   27  C   UNL     1      -6.923  17.744  67.337  1.00  0.00    -0.197 A  
HETATM   28 CL   UNL     1      -7.582  20.056  68.567  1.00  0.00    -0.271 Cl 
HETATM   29  C   UNL     1      -9.279  16.463  68.105  1.00  0.00    -0.201 A  
HETATM   30  C   UNL     1      -7.172  16.427  66.935  1.00  0.00    -0.266 A  
HETATM   31  C   UNL     1      -9.028  17.773  68.517  1.00  0.00    -0.288 A  
ENDBRANCH  18  25
ENDBRANCH  15  18
ENDBRANCH  11  12
ENDBRANCH   8  11
ENDBRANCH   2   5
TORSDOF 6
ENDMDL
MODEL       58
REMARK 921   NORMALIZED FREE ENERGY PREDICTED BY IDOCK:   -5.42 KCAL/MOL
REMARK 922        TOTAL FREE ENERGY PREDICTED BY IDOCK:   -7.90 KCAL/MOL
REMARK 923 INTER-LIGAND FREE ENERGY PREDICTED BY IDOCK:   -7.53 KCAL/MOL
REMARK 924 INTRA-LIGAND FREE ENERGY PREDICTED BY IDOCK:   -0.37 KCAL/MOL
REMARK 927      BINDING AFFINITY PREDICTED BY RF-SCORE:    0.00 PKD
ROOT
HETATM    1  C   UNL     1      -8.290  16.909  67.657  1.00  0.00    -0.192 C  
HETATM    2  C   UNL     1      -9.829  17.052  67.647  1.00  0.00    -0.257 C  
HETATM    3  C   UNL     1     -10.261  17.161  66.163  1.00  0.00    -0.343 C  
HETATM    4  C   UNL     1     -10.164  18.389  68.349  1.00  0.00    -0.407 C  
ENDROOT
BRANCH   2   5
HETATM    5  C   UNL     1     -10.578  15.878  68.312  1.00  0.00    -0.276 A  
HETATM    6  C   UNL     1     -11.656  16.032  69.206  1.00  0.00    -0.331 A  
HETATM    7  C   UNL     1     -12.223  14.930  69.893  1.00  0.00    -0.354 A  
HETATM    8  C   UNL     1     -11.743  13.635  69.679  1.00  0.00    -0.383 A  
HETATM    9  C   UNL     1     -10.137  14.565  68.085  1.00  0.00    -0.227 A  
HETATM   10  C   UNL     1     -10.702  13.478  68.752  1.00  0.00    -0.261 A  
BRANCH   8  11
HETATM   11  C   UNL     1     -12.120  12.403  70.498  1.00  0.00    -0.275 C  
BRANCH  11  12
HETATM   12  N   UNL     1     -12.653  11.203  69.824  1.00  0.00    -0.152 NA 
HETATM   13  C   UNL     1     -11.714  10.600  68.863  1.00  0.00    -0.211 C  
HETATM   14  C   UNL     1     -10.583   9.662  69.398  1.00  0.00    -0.225 C  
HETATM   15  N   UNL     1     -10.769   8.906  70.664  1.00  0.00    -0.221 NA 
HETATM   16  C   UNL     1     -11.755   9.553  71.535  1.00  0.00    -0.402 C  
HETATM   17  C   UNL     1     -12.981  10.161  70.825  1.00  0.00    -0.305 C  
BRANCH  15  18
HETATM   18  C   UNL     1     -10.890   7.430  70.473  1.00  0.00    -0.243 C  
BRANCH  18  19
HETATM   19  C   UNL     1     -10.396   7.021  69.069  1.00  0.00    -0.208 A  
HETATM   20  C   UNL     1      -9.064   7.247  68.681  1.00  0.00    -0.133 A  
HETATM   21  C   UNL     1     -11.255   6.379  68.158  1.00  0.00    -0.270 A  
HETATM   22  C   UNL     1      -8.602   6.816  67.433  1.00  0.00    -0.120 A  
HETATM   23  C   UNL     1     -10.793   5.956  66.911  1.00  0.00    -0.376 A  
HETATM   24  C   UNL     1      -9.465   6.166  66.551  1.00  0.00    -0.178 A  
ENDBRANCH  18  19
BRANCH  18  25
HETATM   25  C   UNL     1     -10.182   6.550  71.527  1.00  0.00    -0.215 A  
HETATM   26  C   UNL     1      -8.814   4.997  73.443  1.00  0.00    -0.113 A  
HETATM   27  C   UNL     1      -9.715   4.390  72.571  1.00  0.00    -0.204 A  
HETATM   28 CL   UNL     1      -7.922   4.041  74.559  1.00  0.00    -0.085 Cl 
HETATM   29  C   UNL     1      -9.308   7.148  72.455  1.00  0.00    -0.161 A  
HETATM   30  C   UNL     1     -10.406   5.166  71.634  1.00  0.00    -0.274 A  
HETATM   31  C   UNL     1      -8.624   6.378  73.399  1.00  0.00    -0.128 A  
ENDBRANCH  18  25
ENDBRANCH  15  18
ENDBRANCH  11  12
ENDBRANCH   8  11
ENDBRANCH   2   5
TORSDOF 6
ENDMDL
MODEL       59
REMARK 921   NORMALIZED FREE ENERGY PREDICTED BY IDOCK:   -5.35 KCAL/MOL
REMARK 922        TOTAL FREE ENERGY PREDICTED BY IDOCK:   -7.81 KCAL/MOL
REMARK 923 INTER-LIGAND FREE ENERGY PREDICTED BY IDOCK:   -7.17 KCAL/MOL
REMARK 924 INTRA-LIGAND FREE ENERGY PREDICTED BY IDOCK:   -0.64 KCAL/MOL
REMARK 927      BINDING AFFINITY PREDICTED BY RF-SCORE:    0.00 PKD
ROOT
HETATM    1  C   UNL     1      -8.009  18.722  66.302  1.00  0.00    -0.285 C  
HETATM    2  C   UNL     1      -9.279  18.273  67.058  1.00  0.00    -0.274 C  
HETATM    3  C   UNL     1     -10.493  18.750  66.221  1.00  0.00    -0.489 C  
HETATM    4  C   UNL     1      -9.295  19.028  68.408  1.00  0.00    -0.405 C  
ENDROOT
BRANCH   2   5
HETATM    5  C   UNL     1      -9.379  16.749  67.279  1.00  0.00    -0.234 A  
HETATM    6  C   UNL     1      -8.334  15.841  67.018  1.00  0.00    -0.259 A  
HETATM    7  C   UNL     1      -8.518  14.439  67.111  1.00  0.00    -0.229 A  
HETATM    8  C   UNL     1      -9.751  13.908  67.496  1.00  0.00    -0.232 A  
HETATM    9  C   UNL     1     -10.598  16.194  67.701  1.00  0.00    -0.315 A  
HETATM   10  C   UNL     1     -10.776  14.815  67.803  1.00  0.00    -0.268 A  
BRANCH   8  11
HETATM   11  C   UNL     1     -10.140  12.433  67.436  1.00  0.00    -0.201 C  
BRANCH  11  12
HETATM   12  N   UNL     1     -10.106  11.609  68.659  1.00  0.00    -0.213 NA 
HETATM   13  C   UNL     1     -11.108  10.529  68.671  1.00  0.00    -0.267 C  
HETATM   14  C   UNL     1     -10.801   9.203  67.900  1.00  0.00    -0.083 C  
HETATM   15  N   UNL     1      -9.397   8.764  67.691  1.00  0.00    -0.136 NA 
HETATM   16  C   UNL     1      -8.467   9.896  67.745  1.00  0.00    -0.118 C  
HETATM   17  C   UNL     1      -8.777  10.970  68.807  1.00  0.00    -0.145 C  
BRANCH  15  18
HETATM   18  C   UNL     1      -9.027   7.538  68.461  1.00  0.00    -0.128 C  
BRANCH  18  19
HETATM   19  C   UNL     1      -9.855   7.443  69.760  1.00  0.00    -0.171 A  
HETATM   20  C   UNL     1     -10.983   6.608  69.835  1.00  0.00    -0.373 A  
HETATM   21  C   UNL     1      -9.479   8.160  70.912  1.00  0.00    -0.186 A  
HETATM   22  C   UNL     1     -11.692   6.474  71.034  1.00  0.00    -0.402 A  
HETATM   23  C   UNL     1     -10.192   8.028  72.104  1.00  0.00    -0.308 A  
HETATM   24  C   UNL     1     -11.293   7.179  72.168  1.00  0.00    -0.301 A  
ENDBRANCH  18  19
BRANCH  18  25
HETATM   25  C   UNL     1      -9.139   6.200  67.698  1.00  0.00    -0.109 A  
HETATM   26  C   UNL     1      -9.254   3.757  66.295  1.00  0.00    -0.167 A  
HETATM   27  C   UNL     1     -10.267   4.697  66.134  1.00  0.00    -0.308 A  
HETATM   28 CL   UNL     1      -9.282   2.299  65.382  1.00  0.00    -0.103 Cl 
HETATM   29  C   UNL     1      -8.156   5.209  67.885  1.00  0.00    -0.098 A  
HETATM   30  C   UNL     1     -10.218   5.902  66.846  1.00  0.00    -0.262 A  
HETATM   31  C   UNL     1      -8.208   4.003  67.184  1.00  0.00    -0.099 A  
ENDBRANCH  18  25
ENDBRANCH  15  18
ENDBRANCH  11  12
ENDBRANCH   8  11
ENDBRANCH   2   5
TORSDOF 6
ENDMDL
MODEL       60
REMARK 921   NORMALIZED FREE ENERGY PREDICTED BY IDOCK:   -5.33 KCAL/MOL
REMARK 922        TOTAL FREE ENERGY PREDICTED BY IDOCK:   -7.77 KCAL/MOL
REMARK 923 INTER-LIGAND FREE ENERGY PREDICTED BY IDOCK:   -7.48 KCAL/MOL
REMARK 924 INTRA-LIGAND FREE ENERGY PREDICTED BY IDOCK:   -0.29 KCAL/MOL
REMARK 927      BINDING AFFINITY PREDICTED BY RF-SCORE:    0.00 PKD
ROOT
HETATM    1  C   UNL     1     -12.963  14.057  65.372  1.00  0.00    -0.346 C  
HETATM    2  C   UNL     1     -11.704  13.329  64.851  1.00  0.00    -0.375 C  
HETATM    3  C   UNL     1     -10.587  14.395  64.725  1.00  0.00    -0.417 C  
HETATM    4  C   UNL     1     -12.036  12.806  63.434  1.00  0.00    -0.619 C  
ENDROOT
BRANCH   2   5
HETATM    5  C   UNL     1     -11.214  12.182  65.760  1.00  0.00    -0.384 A  
HETATM    6  C   UNL     1     -10.398  11.119  65.325  1.00  0.00    -0.336 A  
HETATM    7  C   UNL     1     -10.086  10.021  66.164  1.00  0.00    -0.317 A  
HETATM    8  C   UNL     1     -10.561   9.972  67.477  1.00  0.00    -0.336 A  
HETATM    9  C   UNL     1     -11.649  12.130  67.094  1.00  0.00    -0.405 A  
HETATM   10  C   UNL     1     -11.333  11.055  67.924  1.00  0.00    -0.381 A  
BRANCH   8  11
HETATM   11  C   UNL     1     -10.473   8.765  68.407  1.00  0.00    -0.176 C  
BRANCH  11  12
HETATM   12  N   UNL     1      -9.733   7.560  67.987  1.00  0.00    -0.143 NA 
HETATM   13  C   UNL     1      -8.373   7.477  68.547  1.00  0.00    -0.126 C  
HETATM   14  C   UNL     1      -8.187   6.948  70.007  1.00  0.00    -0.134 C  
HETATM   15  N   UNL     1      -9.176   6.008  70.597  1.00  0.00    -0.149 NA 
HETATM   16  C   UNL     1     -10.484   6.126  69.946  1.00  0.00    -0.233 C  
HETATM   17  C   UNL     1     -10.456   6.341  68.419  1.00  0.00    -0.227 C  
BRANCH  15  18
HETATM   18  C   UNL     1      -8.642   4.630  70.814  1.00  0.00    -0.097 C  
BRANCH  18  19
HETATM   19  C   UNL     1      -9.569   3.830  71.753  1.00  0.00    -0.226 A  
HETATM   20  C   UNL     1      -9.542   2.425  71.767  1.00  0.00    -0.208 A  
HETATM   21  C   UNL     1     -10.437   4.488  72.646  1.00  0.00    -0.258 A  
HETATM   22  C   UNL     1     -10.336   1.705  72.666  1.00  0.00    -0.221 A  
HETATM   23  C   UNL     1     -11.232   3.766  73.537  1.00  0.00    -0.299 A  
HETATM   24  C   UNL     1     -11.176   2.375  73.553  1.00  0.00    -0.313 A  
ENDBRANCH  18  19
BRANCH  18  25
HETATM   25  C   UNL     1      -8.383   3.796  69.540  1.00  0.00    -0.079 A  
HETATM   26  C   UNL     1      -7.849   2.338  67.186  1.00  0.00    -0.066 A  
HETATM   27  C   UNL     1      -9.137   2.354  67.716  1.00  0.00    -0.222 A  
HETATM   28 CL   UNL     1      -7.539   1.513  65.709  1.00  0.00    -0.064 Cl 
HETATM   29  C   UNL     1      -7.079   3.718  69.014  1.00  0.00    -0.046 A  
HETATM   30  C   UNL     1      -9.395   3.064  68.894  1.00  0.00    -0.228 A  
HETATM   31  C   UNL     1      -6.816   3.003  67.844  1.00  0.00    -0.049 A  
ENDBRANCH  18  25
ENDBRANCH  15  18
ENDBRANCH  11  12
ENDBRANCH   8  11
ENDBRANCH   2   5
TORSDOF 6
ENDMDL
MODEL       61
REMARK 921   NORMALIZED FREE ENERGY PREDICTED BY IDOCK:   -5.31 KCAL/MOL
REMARK 922        TOTAL FREE ENERGY PREDICTED BY IDOCK:   -7.75 KCAL/MOL
REMARK 923 INTER-LIGAND FREE ENERGY PREDICTED BY IDOCK:   -7.17 KCAL/MOL
REMARK 924 INTRA-LIGAND FREE ENERGY PREDICTED BY IDOCK:   -0.57 KCAL/MOL
REMARK 927      BINDING AFFINITY PREDICTED BY RF-SCORE:    0.00 PKD
ROOT
HETATM    1  C   UNL     1     -11.118   3.520  73.541  1.00  0.00    -0.317 C  
HETATM    2  C   UNL     1      -9.928   4.243  72.870  1.00  0.00    -0.197 C  
HETATM    3  C   UNL     1      -9.432   3.325  71.724  1.00  0.00    -0.215 C  
HETATM    4  C   UNL     1      -8.805   4.347  73.928  1.00  0.00    -0.103 C  
ENDROOT
BRANCH   2   5
HETATM    5  C   UNL     1     -10.275   5.634  72.297  1.00  0.00    -0.241 A  
HETATM    6  C   UNL     1      -9.683   6.185  71.143  1.00  0.00    -0.199 A  
HETATM    7  C   UNL     1      -9.937   7.517  70.734  1.00  0.00    -0.182 A  
HETATM    8  C   UNL     1     -10.817   8.327  71.456  1.00  0.00    -0.308 A  
HETATM    9  C   UNL     1     -11.184   6.453  72.985  1.00  0.00    -0.176 A  
HETATM   10  C   UNL     1     -11.444   7.761  72.576  1.00  0.00    -0.428 A  
BRANCH   8  11
HETATM   11  C   UNL     1     -11.018   9.825  71.246  1.00  0.00    -0.261 C  
BRANCH  11  12
HETATM   12  N   UNL     1     -12.003  10.309  70.260  1.00  0.00    -0.270 NA 
HETATM   13  C   UNL     1     -12.733  11.512  70.697  1.00  0.00    -0.172 C  
HETATM   14  C   UNL     1     -12.052  12.910  70.537  1.00  0.00    -0.282 C  
HETATM   15  N   UNL     1     -11.036  13.134  69.475  1.00  0.00    -0.007 NA 
HETATM   16  C   UNL     1     -10.398  11.878  69.070  1.00  0.00    -0.030 C  
HETATM   17  C   UNL     1     -11.326  10.649  68.987  1.00  0.00    -0.277 C  
BRANCH  15  18
HETATM   18  C   UNL     1     -11.492  14.051  68.388  1.00  0.00    -0.306 C  
BRANCH  18  19
HETATM   19  C   UNL     1     -10.659  15.350  68.388  1.00  0.00    -0.247 A  
HETATM   20  C   UNL     1     -11.202  16.554  67.910  1.00  0.00    -0.155 A  
HETATM   21  C   UNL     1      -9.348  15.368  68.900  1.00  0.00    -0.218 A  
HETATM   22  C   UNL     1     -10.467  17.743  67.972  1.00  0.00    -0.399 A  
HETATM   23  C   UNL     1      -8.614  16.554  68.955  1.00  0.00    -0.208 A  
HETATM   24  C   UNL     1      -9.177  17.743  68.499  1.00  0.00    -0.281 A  
ENDBRANCH  18  19
BRANCH  18  25
HETATM   25  C   UNL     1     -11.496  13.459  66.961  1.00  0.00    -0.372 A  
HETATM   26  C   UNL     1     -11.419  12.415  64.343  1.00  0.00    -0.347 A  
HETATM   27  C   UNL     1     -12.625  12.863  64.877  1.00  0.00    -0.525 A  
HETATM   28 CL   UNL     1     -11.356  11.850  62.720  1.00  0.00     0.274 Cl 
HETATM   29  C   UNL     1     -10.301  12.949  66.418  1.00  0.00    -0.277 A  
HETATM   30  C   UNL     1     -12.663  13.363  66.183  1.00  0.00    -0.143 A  
HETATM   31  C   UNL     1     -10.261  12.440  65.119  1.00  0.00    -0.305 A  
ENDBRANCH  18  25
ENDBRANCH  15  18
ENDBRANCH  11  12
ENDBRANCH   8  11
ENDBRANCH   2   5
TORSDOF 6
ENDMDL
MODEL       62
REMARK 921   NORMALIZED FREE ENERGY PREDICTED BY IDOCK:   -5.25 KCAL/MOL
REMARK 922        TOTAL FREE ENERGY PREDICTED BY IDOCK:   -7.67 KCAL/MOL
REMARK 923 INTER-LIGAND FREE ENERGY PREDICTED BY IDOCK:   -8.64 KCAL/MOL
REMARK 924 INTRA-LIGAND FREE ENERGY PREDICTED BY IDOCK:    0.97 KCAL/MOL
REMARK 927      BINDING AFFINITY PREDICTED BY RF-SCORE:    0.00 PKD
ROOT
HETATM    1  C   UNL     1     -12.636   7.912  71.995  1.00  0.00    -0.327 C  
HETATM    2  C   UNL     1     -11.476   6.913  72.212  1.00  0.00    -0.313 C  
HETATM    3  C   UNL     1     -12.116   5.563  72.624  1.00  0.00    -0.019 C  
HETATM    4  C   UNL     1     -10.643   7.438  73.404  1.00  0.00    -0.427 C  
ENDROOT
BRANCH   2   5
HETATM    5  C   UNL     1     -10.585   6.698  70.970  1.00  0.00    -0.263 A  
HETATM    6  C   UNL     1      -9.177   6.740  70.989  1.00  0.00    -0.156 A  
HETATM    7  C   UNL     1      -8.409   6.668  69.801  1.00  0.00    -0.132 A  
HETATM    8  C   UNL     1      -9.033   6.523  68.559  1.00  0.00    -0.126 A  
HETATM    9  C   UNL     1     -11.188   6.514  69.716  1.00  0.00    -0.456 A  
HETATM   10  C   UNL     1     -10.432   6.432  68.547  1.00  0.00    -0.265 A  
BRANCH   8  11
HETATM   11  C   UNL     1      -8.344   6.641  67.202  1.00  0.00    -0.113 C  
BRANCH  11  12
HETATM   12  N   UNL     1      -7.854   7.952  66.733  1.00  0.00    -0.101 NA 
HETATM   13  C   UNL     1      -8.674   8.539  65.659  1.00  0.00    -0.181 C  
HETATM   14  C   UNL     1      -9.991   9.291  66.038  1.00  0.00    -0.255 C  
HETATM   15  N   UNL     1     -10.131   9.937  67.369  1.00  0.00    -0.192 NA 
HETATM   16  C   UNL     1      -9.244   9.321  68.360  1.00  0.00    -0.131 C  
HETATM   17  C   UNL     1      -7.844   8.922  67.852  1.00  0.00    -0.102 C  
BRANCH  15  18
HETATM   18  C   UNL     1     -10.164  11.429  67.314  1.00  0.00    -0.199 C  
BRANCH  18  19
HETATM   19  C   UNL     1     -10.790  11.911  65.989  1.00  0.00    -0.342 A  
HETATM   20  C   UNL     1     -10.037  11.937  64.803  1.00  0.00    -0.295 A  
HETATM   21  C   UNL     1     -12.142  12.299  65.927  1.00  0.00    -0.261 A  
HETATM   22  C   UNL     1     -10.627  12.311  63.591  1.00  0.00    -0.501 A  
HETATM   23  C   UNL     1     -12.726  12.678  64.717  1.00  0.00    -0.460 A  
HETATM   24  C   UNL     1     -11.971  12.676  63.548  1.00  0.00    -0.630 A  
ENDBRANCH  18  19
BRANCH  18  25
HETATM   25  C   UNL     1     -10.878  12.134  68.489  1.00  0.00    -0.267 A  
HETATM   26  C   UNL     1     -12.250  13.361  70.625  1.00  0.00    -0.350 A  
HETATM   27  C   UNL     1     -11.492  14.135  69.751  1.00  0.00    -0.309 A  
HETATM   28 CL   UNL     1     -13.150  14.116  71.882  1.00  0.00    -0.428 Cl 
HETATM   29  C   UNL     1     -11.605  11.368  69.420  1.00  0.00    -0.391 A  
HETATM   30  C   UNL     1     -10.797  13.522  68.702  1.00  0.00    -0.281 A  
HETATM   31  C   UNL     1     -12.291  11.976  70.473  1.00  0.00    -0.369 A  
ENDBRANCH  18  25
ENDBRANCH  15  18
ENDBRANCH  11  12
ENDBRANCH   8  11
ENDBRANCH   2   5
TORSDOF 6
ENDMDL
MODEL       63
REMARK 921   NORMALIZED FREE ENERGY PREDICTED BY IDOCK:   -5.24 KCAL/MOL
REMARK 922        TOTAL FREE ENERGY PREDICTED BY IDOCK:   -7.66 KCAL/MOL
REMARK 923 INTER-LIGAND FREE ENERGY PREDICTED BY IDOCK:   -7.79 KCAL/MOL
REMARK 924 INTRA-LIGAND FREE ENERGY PREDICTED BY IDOCK:    0.14 KCAL/MOL
REMARK 927      BINDING AFFINITY PREDICTED BY RF-SCORE:    0.00 PKD
ROOT
HETATM    1  C   UNL     1      -9.461   3.103  67.646  1.00  0.00    -0.202 C  
HETATM    2  C   UNL     1      -8.614   3.835  68.712  1.00  0.00    -0.116 C  
HETATM    3  C   UNL     1      -7.398   2.926  69.022  1.00  0.00    -0.048 C  
HETATM    4  C   UNL     1      -9.481   3.936  69.988  1.00  0.00    -0.263 C  
ENDROOT
BRANCH   2   5
HETATM    5  C   UNL     1      -8.112   5.227  68.275  1.00  0.00    -0.094 A  
HETATM    6  C   UNL     1      -7.989   6.332  69.141  1.00  0.00    -0.110 A  
HETATM    7  C   UNL     1      -7.651   7.623  68.666  1.00  0.00    -0.109 A  
HETATM    8  C   UNL     1      -7.399   7.837  67.308  1.00  0.00    -0.092 A  
HETATM    9  C   UNL     1      -7.817   5.458  66.922  1.00  0.00    -0.101 A  
HETATM   10  C   UNL     1      -7.474   6.726  66.455  1.00  0.00    -0.078 A  
BRANCH   8  11
HETATM   11  C   UNL     1      -7.231   9.200  66.641  1.00  0.00    -0.085 C  
BRANCH  11  12
HETATM   12  N   UNL     1      -8.360   9.813  65.916  1.00  0.00    -0.122 NA 
HETATM   13  C   UNL     1      -9.639   9.108  66.113  1.00  0.00    -0.266 C  
HETATM   14  C   UNL     1     -10.465   9.387  67.411  1.00  0.00    -0.278 C  
HETATM   15  N   UNL     1     -10.344  10.692  68.112  1.00  0.00    -0.168 NA 
HETATM   16  C   UNL     1      -9.063  11.342  67.820  1.00  0.00    -0.152 C  
HETATM   17  C   UNL     1      -8.559  11.209  66.368  1.00  0.00    -0.172 C  
BRANCH  15  18
HETATM   18  C   UNL     1     -11.573  11.537  68.031  1.00  0.00    -0.300 C  
BRANCH  18  19
HETATM   19  C   UNL     1     -12.051  11.937  69.443  1.00  0.00    -0.277 A  
HETATM   20  C   UNL     1     -12.083  13.286  69.836  1.00  0.00    -0.377 A  
HETATM   21  C   UNL     1     -12.502  10.966  70.356  1.00  0.00    -0.411 A  
HETATM   22  C   UNL     1     -12.579  13.651  71.092  1.00  0.00    -0.452 A  
HETATM   23  C   UNL     1     -12.991  11.333  71.612  1.00  0.00    -0.537 A  
HETATM   24  C   UNL     1     -13.038  12.675  71.976  1.00  0.00    -0.471 A  
ENDBRANCH  18  19
BRANCH  18  25
HETATM   25  C   UNL     1     -11.464  12.808  67.161  1.00  0.00    -0.394 A  
HETATM   26  C   UNL     1     -11.257  15.077  65.499  1.00  0.00    -0.344 A  
HETATM   27  C   UNL     1     -10.696  15.097  66.774  1.00  0.00    -0.311 A  
HETATM   28 CL   UNL     1     -11.065  16.431  64.455  1.00  0.00    -0.304 Cl 
HETATM   29  C   UNL     1     -12.069  12.834  65.890  1.00  0.00    -0.485 A  
HETATM   30  C   UNL     1     -10.817  13.976  67.603  1.00  0.00    -0.270 A  
HETATM   31  C   UNL     1     -11.960  13.954  65.064  1.00  0.00    -0.403 A  
ENDBRANCH  18  25
ENDBRANCH  15  18
ENDBRANCH  11  12
ENDBRANCH   8  11
ENDBRANCH   2   5
TORSDOF 6
ENDMDL
MODEL       64
REMARK 921   NORMALIZED FREE ENERGY PREDICTED BY IDOCK:   -5.16 KCAL/MOL
REMARK 922        TOTAL FREE ENERGY PREDICTED BY IDOCK:   -7.54 KCAL/MOL
REMARK 923 INTER-LIGAND FREE ENERGY PREDICTED BY IDOCK:   -7.29 KCAL/MOL
REMARK 924 INTRA-LIGAND FREE ENERGY PREDICTED BY IDOCK:   -0.25 KCAL/MOL
REMARK 927      BINDING AFFINITY PREDICTED BY RF-SCORE:    0.00 PKD
ROOT
HETATM    1  C   UNL     1     -10.657  19.642  67.485  1.00  0.00    -0.577 C  
HETATM    2  C   UNL     1      -9.293  18.922  67.385  1.00  0.00    -0.321 C  
HETATM    3  C   UNL     1      -8.480  19.321  68.641  1.00  0.00    -0.403 C  
HETATM    4  C   UNL     1      -8.572  19.488  66.140  1.00  0.00    -0.326 C  
ENDROOT
BRANCH   2   5
HETATM    5  C   UNL     1      -9.394  17.383  67.309  1.00  0.00    -0.238 A  
HETATM    6  C   UNL     1      -8.368  16.545  66.830  1.00  0.00    -0.274 A  
HETATM    7  C   UNL     1      -8.558  15.152  66.656  1.00  0.00    -0.279 A  
HETATM    8  C   UNL     1      -9.777  14.554  66.987  1.00  0.00    -0.247 A  
HETATM    9  C   UNL     1     -10.597  16.755  67.670  1.00  0.00    -0.325 A  
HETATM   10  C   UNL     1     -10.781  15.382  67.510  1.00  0.00    -0.295 A  
BRANCH   8  11
HETATM   11  C   UNL     1     -10.178  13.118  66.658  1.00  0.00    -0.259 C  
BRANCH  11  12
HETATM   12  N   UNL     1     -10.812  12.273  67.688  1.00  0.00    -0.218 NA 
HETATM   13  C   UNL     1     -11.268  10.968  67.182  1.00  0.00    -0.217 C  
HETATM   14  C   UNL     1     -10.228   9.810  67.029  1.00  0.00    -0.229 C  
HETATM   15  N   UNL     1      -9.018   9.769  67.890  1.00  0.00    -0.119 NA 
HETATM   16  C   UNL     1      -8.668  11.103  68.387  1.00  0.00    -0.157 C  
HETATM   17  C   UNL     1      -9.855  12.003  68.786  1.00  0.00    -0.044 C  
BRANCH  15  18
HETATM   18  C   UNL     1      -9.018   8.650  68.879  1.00  0.00    -0.142 C  
BRANCH  18  19
HETATM   19  C   UNL     1      -7.711   8.649  69.699  1.00  0.00    -0.089 A  
HETATM   20  C   UNL     1      -6.477   8.372  69.087  1.00  0.00    -0.043 A  
HETATM   21  C   UNL     1      -7.718   8.963  71.072  1.00  0.00    -0.155 A  
HETATM   22  C   UNL     1      -5.287   8.437  69.820  1.00  0.00    -0.029 A  
HETATM   23  C   UNL     1      -6.529   9.021  71.801  1.00  0.00    -0.033 A  
HETATM   24  C   UNL     1      -5.313   8.766  71.174  1.00  0.00    -0.033 A  
ENDBRANCH  18  19
BRANCH  18  25
HETATM   25  C   UNL     1     -10.218   8.606  69.852  1.00  0.00    -0.206 A  
HETATM   26  C   UNL     1     -12.447   8.466  71.572  1.00  0.00    -0.312 A  
HETATM   27  C   UNL     1     -11.785   9.678  71.391  1.00  0.00    -0.478 A  
HETATM   28 CL   UNL     1     -13.853   8.395  72.560  1.00  0.00    -0.254 Cl 
HETATM   29  C   UNL     1     -10.871   7.383  70.094  1.00  0.00    -0.270 A  
HETATM   30  C   UNL     1     -10.667   9.741  70.551  1.00  0.00    -0.381 A  
HETATM   31  C   UNL     1     -11.980   7.315  70.940  1.00  0.00    -0.342 A  
ENDBRANCH  18  25
ENDBRANCH  15  18
ENDBRANCH  11  12
ENDBRANCH   8  11
ENDBRANCH   2   5
TORSDOF 6
ENDMDL
MODEL       65
REMARK 921   NORMALIZED FREE ENERGY PREDICTED BY IDOCK:   -5.16 KCAL/MOL
REMARK 922        TOTAL FREE ENERGY PREDICTED BY IDOCK:   -7.54 KCAL/MOL
REMARK 923 INTER-LIGAND FREE ENERGY PREDICTED BY IDOCK:   -7.45 KCAL/MOL
REMARK 924 INTRA-LIGAND FREE ENERGY PREDICTED BY IDOCK:   -0.10 KCAL/MOL
REMARK 927      BINDING AFFINITY PREDICTED BY RF-SCORE:    0.00 PKD
ROOT
HETATM    1  C   UNL     1     -11.905  15.327  72.665  1.00  0.00    -0.533 C  
HETATM    2  C   UNL     1     -12.636  14.814  71.404  1.00  0.00    -0.394 C  
HETATM    3  C   UNL     1     -11.863  15.364  70.180  1.00  0.00    -0.362 C  
HETATM    4  C   UNL     1     -14.048  15.445  71.410  1.00  0.00    -0.539 C  
ENDROOT
BRANCH   2   5
HETATM    5  C   UNL     1     -12.722  13.276  71.305  1.00  0.00    -0.411 A  
HETATM    6  C   UNL     1     -13.415  12.460  72.222  1.00  0.00    -0.428 A  
HETATM    7  C   UNL     1     -13.354  11.046  72.163  1.00  0.00    -0.285 A  
HETATM    8  C   UNL     1     -12.616  10.408  71.163  1.00  0.00    -0.512 A  
HETATM    9  C   UNL     1     -12.020  12.613  70.287  1.00  0.00    -0.363 A  
HETATM   10  C   UNL     1     -11.968  11.220  70.222  1.00  0.00    -0.466 A  
BRANCH   8  11
HETATM   11  C   UNL     1     -12.301   8.915  71.109  1.00  0.00    -0.235 C  
BRANCH  11  12
HETATM   12  N   UNL     1     -10.931   8.439  71.379  1.00  0.00    -0.241 NA 
HETATM   13  C   UNL     1     -10.877   7.277  72.283  1.00  0.00    -0.238 C  
HETATM   14  C   UNL     1     -11.140   5.851  71.698  1.00  0.00    -0.258 C  
HETATM   15  N   UNL     1     -10.848   5.558  70.270  1.00  0.00    -0.264 NA 
HETATM   16  C   UNL     1     -10.875   6.778  69.457  1.00  0.00    -0.273 C  
HETATM   17  C   UNL     1     -10.273   8.036  70.114  1.00  0.00    -0.203 C  
BRANCH  15  18
HETATM   18  C   UNL     1      -9.698   4.627  70.068  1.00  0.00    -0.207 C  
BRANCH  18  19
HETATM   19  C   UNL     1      -9.027   4.881  68.702  1.00  0.00    -0.130 A  
HETATM   20  C   UNL     1      -7.690   5.308  68.625  1.00  0.00    -0.083 A  
HETATM   21  C   UNL     1      -9.724   4.655  67.500  1.00  0.00    -0.213 A  
HETATM   22  C   UNL     1      -7.065   5.474  67.385  1.00  0.00    -0.074 A  
HETATM   23  C   UNL     1      -9.099   4.828  66.264  1.00  0.00    -0.122 A  
HETATM   24  C   UNL     1      -7.767   5.229  66.207  1.00  0.00    -0.088 A  
ENDBRANCH  18  19
BRANCH  18  25
HETATM   25  C   UNL     1      -8.614   4.642  71.168  1.00  0.00    -0.128 A  
HETATM   26  C   UNL     1      -6.682   4.606  73.222  1.00  0.00    -0.066 A  
HETATM   27  C   UNL     1      -6.980   5.800  72.570  1.00  0.00    -0.083 A  
HETATM   28 CL   UNL     1      -5.561   4.597  74.527  1.00  0.00    -0.019 Cl 
HETATM   29  C   UNL     1      -8.255   3.439  71.806  1.00  0.00    -0.067 A  
HETATM   30  C   UNL     1      -7.926   5.811  71.538  1.00  0.00    -0.113 A  
HETATM   31  C   UNL     1      -7.304   3.422  72.828  1.00  0.00    -0.050 A  
ENDBRANCH  18  25
ENDBRANCH  15  18
ENDBRANCH  11  12
ENDBRANCH   8  11
ENDBRANCH   2   5
TORSDOF 6
ENDMDL
MODEL       66
REMARK 921   NORMALIZED FREE ENERGY PREDICTED BY IDOCK:   -5.14 KCAL/MOL
REMARK 922        TOTAL FREE ENERGY PREDICTED BY IDOCK:   -7.52 KCAL/MOL
REMARK 923 INTER-LIGAND FREE ENERGY PREDICTED BY IDOCK:   -7.21 KCAL/MOL
REMARK 924 INTRA-LIGAND FREE ENERGY PREDICTED BY IDOCK:   -0.31 KCAL/MOL
REMARK 927      BINDING AFFINITY PREDICTED BY RF-SCORE:    0.00 PKD
ROOT
HETATM    1  C   UNL     1      -5.851  16.334  68.750  1.00  0.00    -0.110 C  
HETATM    2  C   UNL     1      -7.055  16.410  67.784  1.00  0.00    -0.151 C  
HETATM    3  C   UNL     1      -6.538  17.053  66.472  1.00  0.00    -0.254 C  
HETATM    4  C   UNL     1      -8.087  17.369  68.420  1.00  0.00    -0.264 C  
ENDROOT
BRANCH   2   5
HETATM    5  C   UNL     1      -7.697  15.044  67.464  1.00  0.00    -0.208 A  
HETATM    6  C   UNL     1      -9.010  14.879  66.981  1.00  0.00    -0.256 A  
HETATM    7  C   UNL     1      -9.599  13.600  66.829  1.00  0.00    -0.277 A  
HETATM    8  C   UNL     1      -8.875  12.444  67.133  1.00  0.00    -0.197 A  
HETATM    9  C   UNL     1      -6.976  13.868  67.726  1.00  0.00    -0.181 A  
HETATM   10  C   UNL     1      -7.551  12.607  67.567  1.00  0.00    -0.160 A  
BRANCH   8  11
HETATM   11  C   UNL     1      -9.450  11.032  67.212  1.00  0.00    -0.164 C  
BRANCH  11  12
HETATM   12  N   UNL     1     -10.506  10.718  68.193  1.00  0.00    -0.175 NA 
HETATM   13  C   UNL     1     -11.099   9.381  68.015  1.00  0.00     0.059 C  
HETATM   14  C   UNL     1     -10.346   8.137  68.591  1.00  0.00    -0.200 C  
HETATM   15  N   UNL     1      -9.444   8.281  69.764  1.00  0.00    -0.162 NA 
HETATM   16  C   UNL     1      -8.943   9.653  69.890  1.00  0.00    -0.221 C  
HETATM   17  C   UNL     1      -9.956  10.770  69.568  1.00  0.00    -0.054 C  
BRANCH  15  18
HETATM   18  C   UNL     1      -9.958   7.624  71.003  1.00  0.00    -0.182 C  
BRANCH  18  19
HETATM   19  C   UNL     1     -11.434   8.001  71.246  1.00  0.00    -0.299 A  
HETATM   20  C   UNL     1     -12.459   7.057  71.059  1.00  0.00    -0.373 A  
HETATM   21  C   UNL     1     -11.788   9.286  71.697  1.00  0.00    -0.453 A  
HETATM   22  C   UNL     1     -13.789   7.382  71.344  1.00  0.00    -0.436 A  
HETATM   23  C   UNL     1     -13.117   9.610  71.974  1.00  0.00    -0.537 A  
HETATM   24  C   UNL     1     -14.117   8.656  71.806  1.00  0.00    -0.499 A  
ENDBRANCH  18  19
BRANCH  18  25
HETATM   25  C   UNL     1      -9.819   6.086  71.061  1.00  0.00    -0.220 A  
HETATM   26  C   UNL     1      -9.515   3.289  71.242  1.00  0.00    -0.152 A  
HETATM   27  C   UNL     1      -9.547   3.904  69.994  1.00  0.00    -0.269 A  
HETATM   28 CL   UNL     1      -9.253   1.593  71.358  1.00  0.00    -0.146 Cl 
HETATM   29  C   UNL     1      -9.839   5.434  72.309  1.00  0.00    -0.199 A  
HETATM   30  C   UNL     1      -9.716   5.290  69.906  1.00  0.00    -0.260 A  
HETATM   31  C   UNL     1      -9.680   4.050  72.399  1.00  0.00    -0.210 A  
ENDBRANCH  18  25
ENDBRANCH  15  18
ENDBRANCH  11  12
ENDBRANCH   8  11
ENDBRANCH   2   5
TORSDOF 6
ENDMDL
MODEL       67
REMARK 921   NORMALIZED FREE ENERGY PREDICTED BY IDOCK:   -5.14 KCAL/MOL
REMARK 922        TOTAL FREE ENERGY PREDICTED BY IDOCK:   -7.52 KCAL/MOL
REMARK 923 INTER-LIGAND FREE ENERGY PREDICTED BY IDOCK:   -7.38 KCAL/MOL
REMARK 924 INTRA-LIGAND FREE ENERGY PREDICTED BY IDOCK:   -0.13 KCAL/MOL
REMARK 927      BINDING AFFINITY PREDICTED BY RF-SCORE:    0.00 PKD
ROOT
HETATM    1  C   UNL     1     -12.089  14.394  64.347  1.00  0.00    -0.491 C  
HETATM    2  C   UNL     1     -11.273  14.443  65.658  1.00  0.00    -0.323 C  
HETATM    3  C   UNL     1     -12.286  14.314  66.823  1.00  0.00    -0.384 C  
HETATM    4  C   UNL     1     -10.621  15.843  65.735  1.00  0.00    -0.368 C  
ENDROOT
BRANCH   2   5
HETATM    5  C   UNL     1     -10.208  13.333  65.782  1.00  0.00    -0.296 A  
HETATM    6  C   UNL     1     -10.192  12.159  65.003  1.00  0.00    -0.312 A  
HETATM    7  C   UNL     1      -9.272  11.110  65.246  1.00  0.00    -0.218 A  
HETATM    8  C   UNL     1      -8.320  11.221  66.263  1.00  0.00    -0.142 A  
HETATM    9  C   UNL     1      -9.218  13.439  66.773  1.00  0.00    -0.242 A  
HETATM   10  C   UNL     1      -8.305  12.411  67.005  1.00  0.00    -0.157 A  
BRANCH   8  11
HETATM   11  C   UNL     1      -7.417  10.095  66.759  1.00  0.00    -0.104 C  
BRANCH  11  12
HETATM   12  N   UNL     1      -7.766   9.354  67.987  1.00  0.00    -0.084 NA 
HETATM   13  C   UNL     1      -9.146   9.590  68.446  1.00  0.00    -0.127 C  
HETATM   14  C   UNL     1     -10.314   8.801  67.769  1.00  0.00    -0.237 C  
HETATM   15  N   UNL     1     -10.067   7.468  67.161  1.00  0.00    -0.220 NA 
HETATM   16  C   UNL     1      -8.661   7.304  66.781  1.00  0.00    -0.127 C  
HETATM   17  C   UNL     1      -7.627   7.897  67.761  1.00  0.00    -0.109 C  
BRANCH  15  18
HETATM   18  C   UNL     1     -10.712   6.340  67.898  1.00  0.00    -0.305 C  
BRANCH  18  19
HETATM   19  C   UNL     1     -10.158   4.985  67.409  1.00  0.00    -0.213 A  
HETATM   20  C   UNL     1     -10.163   4.656  66.042  1.00  0.00    -0.306 A  
HETATM   21  C   UNL     1      -9.602   4.061  68.314  1.00  0.00    -0.188 A  
HETATM   22  C   UNL     1      -9.600   3.455  65.596  1.00  0.00    -0.080 A  
HETATM   23  C   UNL     1      -9.047   2.861  67.866  1.00  0.00    -0.224 A  
HETATM   24  C   UNL     1      -9.039   2.562  66.507  1.00  0.00    -0.111 A  
ENDBRANCH  18  19
BRANCH  18  25
HETATM   25  C   UNL     1     -10.611   6.393  69.439  1.00  0.00    -0.310 A  
HETATM   26  C   UNL     1     -10.492   6.555  72.251  1.00  0.00    -0.202 A  
HETATM   27  C   UNL     1      -9.334   6.303  71.521  1.00  0.00    -0.155 A  
HETATM   28 CL   UNL     1     -10.408   6.731  73.960  1.00  0.00    -0.399 Cl 
HETATM   29  C   UNL     1     -11.776   6.592  70.204  1.00  0.00    -0.419 A  
HETATM   30  C   UNL     1      -9.399   6.205  70.126  1.00  0.00    -0.167 A  
HETATM   31  C   UNL     1     -11.716   6.680  71.596  1.00  0.00    -0.362 A  
ENDBRANCH  18  25
ENDBRANCH  15  18
ENDBRANCH  11  12
ENDBRANCH   8  11
ENDBRANCH   2   5
TORSDOF 6
ENDMDL
MODEL       68
REMARK 921   NORMALIZED FREE ENERGY PREDICTED BY IDOCK:   -5.14 KCAL/MOL
REMARK 922        TOTAL FREE ENERGY PREDICTED BY IDOCK:   -7.51 KCAL/MOL
REMARK 923 INTER-LIGAND FREE ENERGY PREDICTED BY IDOCK:   -8.32 KCAL/MOL
REMARK 924 INTRA-LIGAND FREE ENERGY PREDICTED BY IDOCK:    0.80 KCAL/MOL
REMARK 927      BINDING AFFINITY PREDICTED BY RF-SCORE:    0.00 PKD
ROOT
HETATM    1  C   UNL     1     -11.681   7.745  70.715  1.00  0.00    -0.242 C  
HETATM    2  C   UNL     1     -10.340   6.998  70.531  1.00  0.00    -0.218 C  
HETATM    3  C   UNL     1     -10.645   5.485  70.671  1.00  0.00    -0.329 C  
HETATM    4  C   UNL     1      -9.422   7.418  71.702  1.00  0.00    -0.163 C  
ENDROOT
BRANCH   2   5
HETATM    5  C   UNL     1      -9.654   7.256  69.173  1.00  0.00    -0.155 A  
HETATM    6  C   UNL     1      -8.275   7.501  69.017  1.00  0.00    -0.128 A  
HETATM    7  C   UNL     1      -7.715   7.864  67.767  1.00  0.00    -0.121 A  
HETATM    8  C   UNL     1      -8.520   7.963  66.629  1.00  0.00    -0.131 A  
HETATM    9  C   UNL     1     -10.436   7.325  68.009  1.00  0.00    -0.249 A  
HETATM   10  C   UNL     1      -9.883   7.671  66.776  1.00  0.00    -0.307 A  
BRANCH   8  11
HETATM   11  C   UNL     1      -8.086   8.539  65.284  1.00  0.00    -0.138 C  
BRANCH  11  12
HETATM   12  N   UNL     1      -7.960   9.999  65.110  1.00  0.00    -0.139 NA 
HETATM   13  C   UNL     1      -9.195  10.645  64.633  1.00  0.00    -0.227 C  
HETATM   14  C   UNL     1     -10.324  10.976  65.665  1.00  0.00    -0.251 C  
HETATM   15  N   UNL     1      -9.989  11.222  67.092  1.00  0.00    -0.190 NA 
HETATM   16  C   UNL     1      -8.722  10.584  67.463  1.00  0.00    -0.125 C  
HETATM   17  C   UNL     1      -7.606  10.637  66.400  1.00  0.00    -0.138 C  
BRANCH  15  18
HETATM   18  C   UNL     1     -10.194  12.636  67.524  1.00  0.00    -0.215 C  
BRANCH  18  19
HETATM   19  C   UNL     1     -10.846  13.461  66.394  1.00  0.00    -0.294 A  
HETATM   20  C   UNL     1     -12.226  13.373  66.143  1.00  0.00    -0.471 A  
HETATM   21  C   UNL     1     -10.082  14.348  65.613  1.00  0.00    -0.377 A  
HETATM   22  C   UNL     1     -12.824  14.171  65.161  1.00  0.00    -0.321 A  
HETATM   23  C   UNL     1     -10.680  15.138  64.630  1.00  0.00    -0.234 A  
HETATM   24  C   UNL     1     -12.052  15.056  64.410  1.00  0.00    -0.373 A  
ENDBRANCH  18  19
BRANCH  18  25
HETATM   25  C   UNL     1     -11.009  12.836  68.821  1.00  0.00    -0.289 A  
HETATM   26  C   UNL     1     -12.550  13.130  71.165  1.00  0.00    -0.314 A  
HETATM   27  C   UNL     1     -12.032  14.255  70.529  1.00  0.00    -0.402 A  
HETATM   28 CL   UNL     1     -13.554  13.312  72.549  1.00  0.00    -0.683 Cl 
HETATM   29  C   UNL     1     -11.498  11.712  69.514  1.00  0.00    -0.371 A  
HETATM   30  C   UNL     1     -11.252  14.105  69.376  1.00  0.00    -0.298 A  
HETATM   31  C   UNL     1     -12.267  11.857  70.670  1.00  0.00    -0.424 A  
ENDBRANCH  18  25
ENDBRANCH  15  18
ENDBRANCH  11  12
ENDBRANCH   8  11
ENDBRANCH   2   5
TORSDOF 6
ENDMDL
MODEL       69
REMARK 921   NORMALIZED FREE ENERGY PREDICTED BY IDOCK:   -5.11 KCAL/MOL
REMARK 922        TOTAL FREE ENERGY PREDICTED BY IDOCK:   -7.48 KCAL/MOL
REMARK 923 INTER-LIGAND FREE ENERGY PREDICTED BY IDOCK:   -6.63 KCAL/MOL
REMARK 924 INTRA-LIGAND FREE ENERGY PREDICTED BY IDOCK:   -0.86 KCAL/MOL
REMARK 927      BINDING AFFINITY PREDICTED BY RF-SCORE:    0.00 PKD
ROOT
HETATM    1  C   UNL     1     -12.250  13.383  63.239  1.00  0.00    -0.314 C  
HETATM    2  C   UNL     1     -11.776  13.521  64.703  1.00  0.00    -0.412 C  
HETATM    3  C   UNL     1     -13.018  13.908  65.544  1.00  0.00    -0.375 C  
HETATM    4  C   UNL     1     -10.774  14.698  64.748  1.00  0.00    -0.399 C  
ENDROOT
BRANCH   2   5
HETATM    5  C   UNL     1     -11.144  12.239  65.287  1.00  0.00    -0.359 A  
HETATM    6  C   UNL     1     -10.429  11.292  64.528  1.00  0.00    -0.396 A  
HETATM    7  C   UNL     1      -9.983  10.068  65.084  1.00  0.00    -0.350 A  
HETATM    8  C   UNL     1     -10.219   9.770  66.429  1.00  0.00    -0.288 A  
HETATM    9  C   UNL     1     -11.335  11.936  66.645  1.00  0.00    -0.400 A  
HETATM   10  C   UNL     1     -10.888  10.735  67.195  1.00  0.00    -0.335 A  
BRANCH   8  11
HETATM   11  C   UNL     1      -9.979   8.417  67.093  1.00  0.00    -0.238 C  
BRANCH  11  12
HETATM   12  N   UNL     1      -8.644   8.080  67.625  1.00  0.00    -0.130 NA 
HETATM   13  C   UNL     1      -8.321   8.769  68.886  1.00  0.00    -0.127 C  
HETATM   14  C   UNL     1      -8.880   8.193  70.228  1.00  0.00    -0.141 C  
HETATM   15  N   UNL     1      -9.181   6.743  70.356  1.00  0.00    -0.156 NA 
HETATM   16  C   UNL     1      -9.441   6.132  69.049  1.00  0.00    -0.127 C  
HETATM   17  C   UNL     1      -8.553   6.625  67.888  1.00  0.00    -0.118 C  
BRANCH  15  18
HETATM   18  C   UNL     1      -8.261   6.015  71.280  1.00  0.00    -0.123 C  
BRANCH  18  19
HETATM   19  C   UNL     1      -7.609   6.993  72.280  1.00  0.00    -0.090 A  
HETATM   20  C   UNL     1      -8.369   7.596  73.296  1.00  0.00    -0.193 A  
HETATM   21  C   UNL     1      -6.231   7.276  72.222  1.00  0.00    -0.043 A  
HETATM   22  C   UNL     1      -7.762   8.431  74.241  1.00  0.00    -0.248 A  
HETATM   23  C   UNL     1      -5.630   8.114  73.162  1.00  0.00    -0.051 A  
HETATM   24  C   UNL     1      -6.393   8.684  74.177  1.00  0.00    -0.130 A  
ENDBRANCH  18  19
BRANCH  18  25
HETATM   25  C   UNL     1      -8.882   4.838  72.065  1.00  0.00    -0.136 A  
HETATM   26  C   UNL     1     -10.067   2.751  73.544  1.00  0.00    -0.110 A  
HETATM   27  C   UNL     1      -8.727   2.666  73.175  1.00  0.00    -0.079 A  
HETATM   28 CL   UNL     1     -10.770   1.515  74.512  1.00  0.00    -0.168 Cl 
HETATM   29  C   UNL     1     -10.248   4.874  72.403  1.00  0.00    -0.255 A  
HETATM   30  C   UNL     1      -8.146   3.695  72.425  1.00  0.00    -0.073 A  
HETATM   31  C   UNL     1     -10.833   3.844  73.142  1.00  0.00    -0.267 A  
ENDBRANCH  18  25
ENDBRANCH  15  18
ENDBRANCH  11  12
ENDBRANCH   8  11
ENDBRANCH   2   5
TORSDOF 6
ENDMDL
MODEL       70
REMARK 921   NORMALIZED FREE ENERGY PREDICTED BY IDOCK:   -5.08 KCAL/MOL
REMARK 922        TOTAL FREE ENERGY PREDICTED BY IDOCK:   -7.44 KCAL/MOL
REMARK 923 INTER-LIGAND FREE ENERGY PREDICTED BY IDOCK:   -6.71 KCAL/MOL
REMARK 924 INTRA-LIGAND FREE ENERGY PREDICTED BY IDOCK:   -0.73 KCAL/MOL
REMARK 927      BINDING AFFINITY PREDICTED BY RF-SCORE:    0.00 PKD
ROOT
HETATM    1  C   UNL     1      -7.626   4.202  64.795  1.00  0.00    -0.077 C  
HETATM    2  C   UNL     1      -7.910   4.816  66.185  1.00  0.00    -0.099 C  
HETATM    3  C   UNL     1      -6.853   4.235  67.158  1.00  0.00    -0.052 C  
HETATM    4  C   UNL     1      -9.304   4.313  66.627  1.00  0.00    -0.179 C  
ENDROOT
BRANCH   2   5
HETATM    5  C   UNL     1      -7.844   6.358  66.221  1.00  0.00    -0.101 A  
HETATM    6  C   UNL     1      -7.360   7.104  67.314  1.00  0.00    -0.091 A  
HETATM    7  C   UNL     1      -7.444   8.518  67.351  1.00  0.00    -0.093 A  
HETATM    8  C   UNL     1      -7.991   9.226  66.278  1.00  0.00    -0.107 A  
HETATM    9  C   UNL     1      -8.354   7.092  65.139  1.00  0.00    -0.081 A  
HETATM   10  C   UNL     1      -8.427   8.485  65.170  1.00  0.00    -0.193 A  
BRANCH   8  11
HETATM   11  C   UNL     1      -8.327  10.716  66.278  1.00  0.00    -0.155 C  
BRANCH  11  12
HETATM   12  N   UNL     1      -9.413  11.229  67.135  1.00  0.00    -0.169 NA 
HETATM   13  C   UNL     1      -8.944  12.114  68.214  1.00  0.00    -0.186 C  
HETATM   14  C   UNL     1      -8.642  13.614  67.887  1.00  0.00    -0.181 C  
HETATM   15  N   UNL     1      -9.345  14.294  66.768  1.00  0.00    -0.265 NA 
HETATM   16  C   UNL     1      -9.819  13.332  65.768  1.00  0.00    -0.197 C  
HETATM   17  C   UNL     1     -10.378  12.007  66.323  1.00  0.00    -0.221 C  
BRANCH  15  18
HETATM   18  C   UNL     1     -10.306  15.348  67.211  1.00  0.00    -0.271 C  
BRANCH  18  19
HETATM   19  C   UNL     1     -10.894  14.999  68.595  1.00  0.00    -0.249 A  
HETATM   20  C   UNL     1     -10.425  15.634  69.757  1.00  0.00    -0.312 A  
HETATM   21  C   UNL     1     -11.940  14.065  68.722  1.00  0.00    -0.382 A  
HETATM   22  C   UNL     1     -11.005  15.364  71.001  1.00  0.00    -0.309 A  
HETATM   23  C   UNL     1     -12.513  13.793  69.966  1.00  0.00    -0.301 A  
HETATM   24  C   UNL     1     -12.051  14.449  71.104  1.00  0.00    -0.410 A  
ENDBRANCH  18  19
BRANCH  18  25
HETATM   25  C   UNL     1      -9.757  16.791  67.251  1.00  0.00    -0.250 A  
HETATM   26  C   UNL     1      -8.826  19.453  67.277  1.00  0.00    -0.296 A  
HETATM   27  C   UNL     1      -7.918  18.401  67.192  1.00  0.00    -0.237 A  
HETATM   28 CL   UNL     1      -8.267  21.078  67.215  1.00  0.00    -0.174 Cl 
HETATM   29  C   UNL     1     -10.650  17.871  67.392  1.00  0.00    -0.370 A  
HETATM   30  C   UNL     1      -8.381  17.080  67.198  1.00  0.00    -0.213 A  
HETATM   31  C   UNL     1     -10.190  19.189  67.396  1.00  0.00    -0.490 A  
ENDBRANCH  18  25
ENDBRANCH  15  18
ENDBRANCH  11  12
ENDBRANCH   8  11
ENDBRANCH   2   5
TORSDOF 6
ENDMDL
MODEL       71
REMARK 921   NORMALIZED FREE ENERGY PREDICTED BY IDOCK:   -5.07 KCAL/MOL
REMARK 922        TOTAL FREE ENERGY PREDICTED BY IDOCK:   -7.42 KCAL/MOL
REMARK 923 INTER-LIGAND FREE ENERGY PREDICTED BY IDOCK:   -6.67 KCAL/MOL
REMARK 924 INTRA-LIGAND FREE ENERGY PREDICTED BY IDOCK:   -0.75 KCAL/MOL
REMARK 927      BINDING AFFINITY PREDICTED BY RF-SCORE:    0.00 PKD
ROOT
HETATM    1  C   UNL     1      -8.730   2.308  67.420  1.00  0.00    -0.142 C  
HETATM    2  C   UNL     1      -7.849   3.118  68.398  1.00  0.00    -0.059 C  
HETATM    3  C   UNL     1      -6.377   2.893  67.970  1.00  0.00    -0.032 C  
HETATM    4  C   UNL     1      -8.045   2.501  69.802  1.00  0.00    -0.057 C  
ENDROOT
BRANCH   2   5
HETATM    5  C   UNL     1      -8.150   4.632  68.416  1.00  0.00    -0.083 A  
HETATM    6  C   UNL     1      -7.478   5.563  69.231  1.00  0.00    -0.078 A  
HETATM    7  C   UNL     1      -7.880   6.919  69.309  1.00  0.00    -0.114 A  
HETATM    8  C   UNL     1      -8.954   7.387  68.546  1.00  0.00    -0.128 A  
HETATM    9  C   UNL     1      -9.200   5.132  67.630  1.00  0.00    -0.127 A  
HETATM   10  C   UNL     1      -9.590   6.469  67.697  1.00  0.00    -0.131 A  
BRANCH   8  11
HETATM   11  C   UNL     1      -9.613   8.756  68.689  1.00  0.00    -0.154 C  
BRANCH  11  12
HETATM   12  N   UNL     1     -10.224   9.409  67.515  1.00  0.00    -0.215 NA 
HETATM   13  C   UNL     1     -11.071  10.565  67.857  1.00  0.00    -0.304 C  
HETATM   14  C   UNL     1     -10.391  11.946  68.133  1.00  0.00    -0.199 C  
HETATM   15  N   UNL     1      -9.084  12.278  67.506  1.00  0.00    -0.175 NA 
HETATM   16  C   UNL     1      -8.334  11.068  67.156  1.00  0.00    -0.132 C  
HETATM   17  C   UNL     1      -9.170   9.899  66.597  1.00  0.00    -0.153 C  
BRANCH  15  18
HETATM   18  C   UNL     1      -9.167  13.354  66.474  1.00  0.00    -0.169 C  
BRANCH  18  19
HETATM   19  C   UNL     1     -10.453  13.203  65.633  1.00  0.00    -0.290 A  
HETATM   20  C   UNL     1     -11.652  13.815  66.034  1.00  0.00    -0.361 A  
HETATM   21  C   UNL     1     -10.445  12.480  64.425  1.00  0.00    -0.384 A  
HETATM   22  C   UNL     1     -12.798  13.730  65.236  1.00  0.00    -0.430 A  
HETATM   23  C   UNL     1     -11.592  12.392  63.634  1.00  0.00    -0.580 A  
HETATM   24  C   UNL     1     -12.766  13.024  64.035  1.00  0.00    -0.179 A  
ENDBRANCH  18  19
BRANCH  18  25
HETATM   25  C   UNL     1      -9.083  14.804  67.000  1.00  0.00    -0.257 A  
HETATM   26  C   UNL     1      -8.990  17.430  68.024  1.00  0.00    -0.255 A  
HETATM   27  C   UNL     1      -8.873  17.215  66.654  1.00  0.00    -0.279 A  
HETATM   28 CL   UNL     1      -9.011  19.034  68.644  1.00  0.00    -0.399 Cl 
HETATM   29  C   UNL     1      -9.143  15.045  68.386  1.00  0.00    -0.184 A  
HETATM   30  C   UNL     1      -8.901  15.910  66.149  1.00  0.00    -0.363 A  
HETATM   31  C   UNL     1      -9.105  16.345  68.893  1.00  0.00    -0.256 A  
ENDBRANCH  18  25
ENDBRANCH  15  18
ENDBRANCH  11  12
ENDBRANCH   8  11
ENDBRANCH   2   5
TORSDOF 6
ENDMDL
MODEL       72
REMARK 921   NORMALIZED FREE ENERGY PREDICTED BY IDOCK:   -5.06 KCAL/MOL
REMARK 922        TOTAL FREE ENERGY PREDICTED BY IDOCK:   -7.41 KCAL/MOL
REMARK 923 INTER-LIGAND FREE ENERGY PREDICTED BY IDOCK:   -7.50 KCAL/MOL
REMARK 924 INTRA-LIGAND FREE ENERGY PREDICTED BY IDOCK:    0.08 KCAL/MOL
REMARK 927      BINDING AFFINITY PREDICTED BY RF-SCORE:    0.00 PKD
ROOT
HETATM    1  C   UNL     1     -11.747  15.039  72.231  1.00  0.00    -0.423 C  
HETATM    2  C   UNL     1     -12.844  14.274  71.457  1.00  0.00    -0.419 C  
HETATM    3  C   UNL     1     -13.733  15.338  70.765  1.00  0.00    -0.255 C  
HETATM    4  C   UNL     1     -13.704  13.530  72.504  1.00  0.00    -0.664 C  
ENDROOT
BRANCH   2   5
HETATM    5  C   UNL     1     -12.301  13.294  70.394  1.00  0.00    -0.365 A  
HETATM    6  C   UNL     1     -12.204  11.900  70.579  1.00  0.00    -0.426 A  
HETATM    7  C   UNL     1     -11.576  11.060  69.627  1.00  0.00    -0.390 A  
HETATM    8  C   UNL     1     -11.053  11.592  68.445  1.00  0.00    -0.285 A  
HETATM    9  C   UNL     1     -11.803  13.800  69.184  1.00  0.00    -0.398 A  
HETATM   10  C   UNL     1     -11.195  12.972  68.240  1.00  0.00    -0.309 A  
BRANCH   8  11
HETATM   11  C   UNL     1     -10.180  10.840  67.444  1.00  0.00    -0.204 C  
BRANCH  11  12
HETATM   12  N   UNL     1     -10.534   9.465  67.041  1.00  0.00    -0.248 NA 
HETATM   13  C   UNL     1      -9.643   8.905  66.010  1.00  0.00    -0.250 C  
HETATM   14  C   UNL     1      -8.266   8.305  66.445  1.00  0.00    -0.107 C  
HETATM   15  N   UNL     1      -8.087   7.746  67.810  1.00  0.00    -0.123 NA 
HETATM   16  C   UNL     1      -9.047   8.324  68.756  1.00  0.00    -0.144 C  
HETATM   17  C   UNL     1     -10.470   8.558  68.210  1.00  0.00    -0.171 C  
BRANCH  15  18
HETATM   18  C   UNL     1      -7.910   6.263  67.837  1.00  0.00    -0.103 C  
BRANCH  18  19
HETATM   19  C   UNL     1      -8.297   5.694  69.218  1.00  0.00    -0.107 A  
HETATM   20  C   UNL     1      -7.431   5.821  70.318  1.00  0.00    -0.081 A  
HETATM   21  C   UNL     1      -9.542   5.069  69.420  1.00  0.00    -0.236 A  
HETATM   22  C   UNL     1      -7.814   5.363  71.583  1.00  0.00    -0.111 A  
HETATM   23  C   UNL     1      -9.918   4.607  70.682  1.00  0.00    -0.293 A  
HETATM   24  C   UNL     1      -9.058   4.762  71.766  1.00  0.00    -0.166 A  
ENDBRANCH  18  19
BRANCH  18  25
HETATM   25  C   UNL     1      -8.662   5.473  66.743  1.00  0.00    -0.114 A  
HETATM   26  C   UNL     1      -9.972   4.056  64.686  1.00  0.00    -0.199 A  
HETATM   27  C   UNL     1     -10.717   4.680  65.683  1.00  0.00    -0.193 A  
HETATM   28 CL   UNL     1     -10.770   3.258  63.389  1.00  0.00    -0.243 Cl 
HETATM   29  C   UNL     1      -7.930   4.787  65.754  1.00  0.00    -0.102 A  
HETATM   30  C   UNL     1     -10.064   5.366  66.713  1.00  0.00    -0.246 A  
HETATM   31  C   UNL     1      -8.578   4.093  64.731  1.00  0.00    -0.119 A  
ENDBRANCH  18  25
ENDBRANCH  15  18
ENDBRANCH  11  12
ENDBRANCH   8  11
ENDBRANCH   2   5
TORSDOF 6
ENDMDL
MODEL       73
REMARK 921   NORMALIZED FREE ENERGY PREDICTED BY IDOCK:   -5.03 KCAL/MOL
REMARK 922        TOTAL FREE ENERGY PREDICTED BY IDOCK:   -7.37 KCAL/MOL
REMARK 923 INTER-LIGAND FREE ENERGY PREDICTED BY IDOCK:   -7.15 KCAL/MOL
REMARK 924 INTRA-LIGAND FREE ENERGY PREDICTED BY IDOCK:   -0.22 KCAL/MOL
REMARK 927      BINDING AFFINITY PREDICTED BY RF-SCORE:    0.00 PKD
ROOT
HETATM    1  C   UNL     1     -10.793  19.533  65.978  1.00  0.00    -0.428 C  
HETATM    2  C   UNL     1      -9.882  18.969  67.093  1.00  0.00    -0.383 C  
HETATM    3  C   UNL     1      -9.978  19.948  68.290  1.00  0.00    -0.552 C  
HETATM    4  C   UNL     1      -8.433  19.002  66.554  1.00  0.00    -0.320 C  
ENDROOT
BRANCH   2   5
HETATM    5  C   UNL     1     -10.263  17.549  67.563  1.00  0.00    -0.340 A  
HETATM    6  C   UNL     1     -10.342  16.428  66.713  1.00  0.00    -0.293 A  
HETATM    7  C   UNL     1     -10.824  15.176  67.167  1.00  0.00    -0.320 A  
HETATM    8  C   UNL     1     -11.214  15.004  68.498  1.00  0.00    -0.298 A  
HETATM    9  C   UNL     1     -10.624  17.343  68.904  1.00  0.00    -0.243 A  
HETATM   10  C   UNL     1     -11.088  16.108  69.354  1.00  0.00    -0.335 A  
BRANCH   8  11
HETATM   11  C   UNL     1     -11.937  13.783  69.060  1.00  0.00    -0.360 C  
BRANCH  11  12
HETATM   12  N   UNL     1     -11.187  12.765  69.821  1.00  0.00    -0.013 NA 
HETATM   13  C   UNL     1     -12.026  11.660  70.314  1.00  0.00    -0.358 C  
HETATM   14  C   UNL     1     -12.397  10.497  69.337  1.00  0.00     0.083 C  
HETATM   15  N   UNL     1     -11.501  10.156  68.201  1.00  0.00    -0.209 NA 
HETATM   16  C   UNL     1     -10.670  11.299  67.811  1.00  0.00    -0.220 C  
HETATM   17  C   UNL     1     -10.134  12.164  68.969  1.00  0.00     0.116 C  
BRANCH  15  18
HETATM   18  C   UNL     1     -10.821   8.834  68.344  1.00  0.00     0.034 C  
BRANCH  18  19
HETATM   19  C   UNL     1      -9.572   8.764  67.441  1.00  0.00    -0.206 A  
HETATM   20  C   UNL     1      -8.284   8.689  67.997  1.00  0.00    -0.115 A  
HETATM   21  C   UNL     1      -9.695   8.736  66.039  1.00  0.00    -0.276 A  
HETATM   22  C   UNL     1      -7.159   8.560  67.176  1.00  0.00    -0.076 A  
HETATM   23  C   UNL     1      -8.569   8.613  65.222  1.00  0.00    -0.206 A  
HETATM   24  C   UNL     1      -7.303   8.516  65.791  1.00  0.00    -0.080 A  
ENDBRANCH  18  19
BRANCH  18  25
HETATM   25  C   UNL     1     -10.421   8.432  69.781  1.00  0.00    -0.220 A  
HETATM   26  C   UNL     1      -9.605   7.722  72.385  1.00  0.00    -0.181 A  
HETATM   27  C   UNL     1     -10.594   6.982  71.742  1.00  0.00    -0.234 A  
HETATM   28 CL   UNL     1      -9.051   7.244  73.942  1.00  0.00    -0.253 Cl 
HETATM   29  C   UNL     1      -9.463   9.196  70.475  1.00  0.00    -0.291 A  
HETATM   30  C   UNL     1     -11.010   7.348  70.457  1.00  0.00    -0.270 A  
HETATM   31  C   UNL     1      -9.053   8.840  71.761  1.00  0.00    -0.305 A  
ENDBRANCH  18  25
ENDBRANCH  15  18
ENDBRANCH  11  12
ENDBRANCH   8  11
ENDBRANCH   2   5
TORSDOF 6
ENDMDL
MODEL       74
REMARK 921   NORMALIZED FREE ENERGY PREDICTED BY IDOCK:   -5.02 KCAL/MOL
REMARK 922        TOTAL FREE ENERGY PREDICTED BY IDOCK:   -7.36 KCAL/MOL
REMARK 923 INTER-LIGAND FREE ENERGY PREDICTED BY IDOCK:   -6.97 KCAL/MOL
REMARK 924 INTRA-LIGAND FREE ENERGY PREDICTED BY IDOCK:   -0.38 KCAL/MOL
REMARK 927      BINDING AFFINITY PREDICTED BY RF-SCORE:    0.00 PKD
ROOT
HETATM    1  C   UNL     1      -9.503   3.047  64.898  1.00  0.00    -0.136 C  
HETATM    2  C   UNL     1      -8.059   3.575  65.053  1.00  0.00    -0.090 C  
HETATM    3  C   UNL     1      -7.414   3.541  63.645  1.00  0.00    -0.059 C  
HETATM    4  C   UNL     1      -7.304   2.573  65.957  1.00  0.00    -0.067 C  
ENDROOT
BRANCH   2   5
HETATM    5  C   UNL     1      -7.967   5.007  65.623  1.00  0.00    -0.107 A  
HETATM    6  C   UNL     1      -7.736   5.306  66.980  1.00  0.00    -0.096 A  
HETATM    7  C   UNL     1      -7.793   6.632  67.476  1.00  0.00    -0.111 A  
HETATM    8  C   UNL     1      -8.055   7.702  66.616  1.00  0.00    -0.119 A  
HETATM    9  C   UNL     1      -8.191   6.101  64.771  1.00  0.00    -0.112 A  
HETATM   10  C   UNL     1      -8.236   7.407  65.257  1.00  0.00    -0.128 A  
BRANCH   8  11
HETATM   11  C   UNL     1      -8.346   9.136  67.048  1.00  0.00    -0.120 C  
BRANCH  11  12
HETATM   12  N   UNL     1      -9.447   9.890  66.418  1.00  0.00    -0.173 NA 
HETATM   13  C   UNL     1     -10.762   9.639  67.035  1.00  0.00    -0.155 C  
HETATM   14  C   UNL     1     -11.139  10.400  68.348  1.00  0.00    -0.268 C  
HETATM   15  N   UNL     1     -10.541  11.727  68.646  1.00  0.00    -0.218 NA 
HETATM   16  C   UNL     1      -9.262  11.907  67.952  1.00  0.00    -0.187 C  
HETATM   17  C   UNL     1      -9.192  11.346  66.518  1.00  0.00    -0.189 C  
BRANCH  15  18
HETATM   18  C   UNL     1     -11.517  12.856  68.583  1.00  0.00    -0.308 C  
BRANCH  18  19
HETATM   19  C   UNL     1     -12.125  13.127  69.976  1.00  0.00    -0.375 A  
HETATM   20  C   UNL     1     -12.482  14.429  70.365  1.00  0.00    -0.420 A  
HETATM   21  C   UNL     1     -12.371  12.072  70.875  1.00  0.00    -0.384 A  
HETATM   22  C   UNL     1     -13.093  14.661  71.602  1.00  0.00    -0.423 A  
HETATM   23  C   UNL     1     -12.975  12.307  72.111  1.00  0.00    -0.291 A  
HETATM   24  C   UNL     1     -13.344  13.600  72.471  1.00  0.00    -0.638 A  
ENDBRANCH  18  19
BRANCH  18  25
HETATM   25  C   UNL     1     -10.979  14.185  68.007  1.00  0.00    -0.269 A  
HETATM   26  C   UNL     1      -9.989  16.569  66.873  1.00  0.00    -0.271 A  
HETATM   27  C   UNL     1      -9.659  16.235  68.184  1.00  0.00    -0.219 A  
HETATM   28 CL   UNL     1      -9.324  17.983  66.154  1.00  0.00    -0.207 Cl 
HETATM   29  C   UNL     1     -11.342  14.574  66.703  1.00  0.00    -0.359 A  
HETATM   30  C   UNL     1     -10.167  15.060  68.750  1.00  0.00    -0.235 A  
HETATM   31  C   UNL     1     -10.845  15.750  66.139  1.00  0.00    -0.240 A  
ENDBRANCH  18  25
ENDBRANCH  15  18
ENDBRANCH  11  12
ENDBRANCH   8  11
ENDBRANCH   2   5
TORSDOF 6
ENDMDL
MODEL       75
REMARK 921   NORMALIZED FREE ENERGY PREDICTED BY IDOCK:   -5.01 KCAL/MOL
REMARK 922        TOTAL FREE ENERGY PREDICTED BY IDOCK:   -7.35 KCAL/MOL
REMARK 923 INTER-LIGAND FREE ENERGY PREDICTED BY IDOCK:   -6.75 KCAL/MOL
REMARK 924 INTRA-LIGAND FREE ENERGY PREDICTED BY IDOCK:   -0.60 KCAL/MOL
REMARK 927      BINDING AFFINITY PREDICTED BY RF-SCORE:    0.00 PKD
ROOT
HETATM    1  C   UNL     1      -9.237   3.822  70.236  1.00  0.00    -0.219 C  
HETATM    2  C   UNL     1      -9.148   4.893  71.347  1.00  0.00    -0.177 C  
HETATM    3  C   UNL     1      -7.649   5.043  71.708  1.00  0.00    -0.104 C  
HETATM    4  C   UNL     1      -9.890   4.330  72.581  1.00  0.00    -0.201 C  
ENDROOT
BRANCH   2   5
HETATM    5  C   UNL     1      -9.716   6.271  70.944  1.00  0.00    -0.197 A  
HETATM    6  C   UNL     1     -10.225   6.575  69.666  1.00  0.00    -0.220 A  
HETATM    7  C   UNL     1     -10.612   7.890  69.307  1.00  0.00    -0.195 A  
HETATM    8  C   UNL     1     -10.525   8.934  70.231  1.00  0.00    -0.239 A  
HETATM    9  C   UNL     1      -9.674   7.328  71.868  1.00  0.00    -0.171 A  
HETATM   10  C   UNL     1     -10.065   8.620  71.518  1.00  0.00    -0.345 A  
BRANCH   8  11
HETATM   11  C   UNL     1     -10.710  10.416  69.915  1.00  0.00    -0.279 C  
BRANCH  11  12
HETATM   12  N   UNL     1     -10.773  10.870  68.512  1.00  0.00    -0.189 NA 
HETATM   13  C   UNL     1     -11.354  12.214  68.353  1.00  0.00    -0.286 C  
HETATM   14  C   UNL     1     -10.448  13.465  68.602  1.00  0.00    -0.225 C  
HETATM   15  N   UNL     1      -8.978  13.380  68.399  1.00  0.00    -0.169 NA 
HETATM   16  C   UNL     1      -8.498  12.001  68.527  1.00  0.00    -0.098 C  
HETATM   17  C   UNL     1      -9.412  10.913  67.928  1.00  0.00    -0.159 C  
BRANCH  15  18
HETATM   18  C   UNL     1      -8.484  14.170  67.232  1.00  0.00    -0.214 C  
BRANCH  18  19
HETATM   19  C   UNL     1      -9.618  14.396  66.209  1.00  0.00    -0.321 A  
HETATM   20  C   UNL     1     -10.236  15.652  66.085  1.00  0.00    -0.327 A  
HETATM   21  C   UNL     1     -10.035  13.361  65.351  1.00  0.00    -0.211 A  
HETATM   22  C   UNL     1     -11.218  15.870  65.112  1.00  0.00    -0.228 A  
HETATM   23  C   UNL     1     -11.019  13.581  64.386  1.00  0.00    -0.399 A  
HETATM   24  C   UNL     1     -11.604  14.837  64.261  1.00  0.00    -0.215 A  
ENDBRANCH  18  19
BRANCH  18  25
HETATM   25  C   UNL     1      -7.833  15.531  67.563  1.00  0.00    -0.191 A  
HETATM   26  C   UNL     1      -6.710  18.031  68.229  1.00  0.00    -0.207 A  
HETATM   27  C   UNL     1      -6.656  17.573  66.915  1.00  0.00    -0.221 A  
HETATM   28 CL   UNL     1      -6.094  19.588  68.623  1.00  0.00    -0.257 Cl 
HETATM   29  C   UNL     1      -7.825  15.992  68.894  1.00  0.00    -0.202 A  
HETATM   30  C   UNL     1      -7.197  16.324  66.591  1.00  0.00    -0.160 A  
HETATM   31  C   UNL     1      -7.276  17.233  69.222  1.00  0.00    -0.118 A  
ENDBRANCH  18  25
ENDBRANCH  15  18
ENDBRANCH  11  12
ENDBRANCH   8  11
ENDBRANCH   2   5
TORSDOF 6
ENDMDL
MODEL       76
REMARK 921   NORMALIZED FREE ENERGY PREDICTED BY IDOCK:   -5.01 KCAL/MOL
REMARK 922        TOTAL FREE ENERGY PREDICTED BY IDOCK:   -7.35 KCAL/MOL
REMARK 923 INTER-LIGAND FREE ENERGY PREDICTED BY IDOCK:   -6.66 KCAL/MOL
REMARK 924 INTRA-LIGAND FREE ENERGY PREDICTED BY IDOCK:   -0.68 KCAL/MOL
REMARK 927      BINDING AFFINITY PREDICTED BY RF-SCORE:    0.00 PKD
ROOT
HETATM    1  C   UNL     1      -9.424   4.410  62.978  1.00  0.00    -0.085 C  
HETATM    2  C   UNL     1      -9.364   4.306  64.519  1.00  0.00    -0.160 C  
HETATM    3  C   UNL     1      -8.762   2.918  64.853  1.00  0.00    -0.112 C  
HETATM    4  C   UNL     1     -10.822   4.338  65.032  1.00  0.00    -0.102 C  
ENDROOT
BRANCH   2   5
HETATM    5  C   UNL     1      -8.518   5.406  65.195  1.00  0.00    -0.150 A  
HETATM    6  C   UNL     1      -8.709   5.850  66.519  1.00  0.00    -0.126 A  
HETATM    7  C   UNL     1      -7.995   6.952  67.050  1.00  0.00    -0.116 A  
HETATM    8  C   UNL     1      -7.046   7.625  66.274  1.00  0.00    -0.070 A  
HETATM    9  C   UNL     1      -7.534   6.072  64.448  1.00  0.00    -0.078 A  
HETATM   10  C   UNL     1      -6.822   7.150  64.974  1.00  0.00    -0.047 A  
BRANCH   8  11
HETATM   11  C   UNL     1      -6.366   8.939  66.648  1.00  0.00    -0.062 C  
BRANCH  11  12
HETATM   12  N   UNL     1      -6.827  10.207  66.050  1.00  0.00    -0.104 NA 
HETATM   13  C   UNL     1      -8.222  10.163  65.579  1.00  0.00    -0.156 C  
HETATM   14  C   UNL     1      -9.377  10.360  66.614  1.00  0.00    -0.158 C  
HETATM   15  N   UNL     1      -9.150  11.149  67.853  1.00  0.00    -0.146 NA 
HETATM   16  C   UNL     1      -7.730  11.177  68.218  1.00  0.00    -0.116 C  
HETATM   17  C   UNL     1      -6.738  11.302  67.043  1.00  0.00    -0.126 C  
BRANCH  15  18
HETATM   18  C   UNL     1      -9.890  12.446  67.887  1.00  0.00    -0.202 C  
BRANCH  18  19
HETATM   19  C   UNL     1     -10.617  12.691  66.548  1.00  0.00    -0.272 A  
HETATM   20  C   UNL     1     -11.756  11.947  66.199  1.00  0.00    -0.217 A  
HETATM   21  C   UNL     1     -10.178  13.692  65.660  1.00  0.00    -0.316 A  
HETATM   22  C   UNL     1     -12.450  12.217  65.015  1.00  0.00    -0.257 A  
HETATM   23  C   UNL     1     -10.869  13.955  64.476  1.00  0.00    -0.381 A  
HETATM   24  C   UNL     1     -12.010  13.224  64.158  1.00  0.00    -0.505 A  
ENDBRANCH  18  19
BRANCH  18  25
HETATM   25  C   UNL     1     -10.901  12.617  69.042  1.00  0.00    -0.192 A  
HETATM   26  C   UNL     1     -12.696  12.999  71.183  1.00  0.00    -0.283 A  
HETATM   27  C   UNL     1     -12.455  11.716  70.700  1.00  0.00    -0.386 A  
HETATM   28 CL   UNL     1     -13.730  13.226  72.539  1.00  0.00    -0.675 Cl 
HETATM   29  C   UNL     1     -11.205  13.909  69.513  1.00  0.00    -0.237 A  
HETATM   30  C   UNL     1     -11.578  11.531  69.625  1.00  0.00    -0.403 A  
HETATM   31  C   UNL     1     -12.087  14.098  70.579  1.00  0.00    -0.420 A  
ENDBRANCH  18  25
ENDBRANCH  15  18
ENDBRANCH  11  12
ENDBRANCH   8  11
ENDBRANCH   2   5
TORSDOF 6
ENDMDL
MODEL       77
REMARK 921   NORMALIZED FREE ENERGY PREDICTED BY IDOCK:   -4.97 KCAL/MOL
REMARK 922        TOTAL FREE ENERGY PREDICTED BY IDOCK:   -7.29 KCAL/MOL
REMARK 923 INTER-LIGAND FREE ENERGY PREDICTED BY IDOCK:   -6.62 KCAL/MOL
REMARK 924 INTRA-LIGAND FREE ENERGY PREDICTED BY IDOCK:   -0.66 KCAL/MOL
REMARK 927      BINDING AFFINITY PREDICTED BY RF-SCORE:    0.00 PKD
ROOT
HETATM    1  C   UNL     1      -7.638   3.926  74.178  1.00  0.00    -0.074 C  
HETATM    2  C   UNL     1      -8.824   3.814  73.194  1.00  0.00    -0.097 C  
HETATM    3  C   UNL     1      -9.732   2.670  73.711  1.00  0.00    -0.133 C  
HETATM    4  C   UNL     1      -8.240   3.388  71.827  1.00  0.00    -0.067 C  
ENDROOT
BRANCH   2   5
HETATM    5  C   UNL     1      -9.658   5.105  73.057  1.00  0.00    -0.158 A  
HETATM    6  C   UNL     1     -10.999   5.140  72.625  1.00  0.00    -0.303 A  
HETATM    7  C   UNL     1     -11.679   6.360  72.389  1.00  0.00    -0.286 A  
HETATM    8  C   UNL     1     -11.041   7.584  72.609  1.00  0.00    -0.398 A  
HETATM    9  C   UNL     1      -9.050   6.345  73.309  1.00  0.00    -0.135 A  
HETATM   10  C   UNL     1      -9.723   7.547  73.088  1.00  0.00    -0.301 A  
BRANCH   8  11
HETATM   11  C   UNL     1     -11.582   8.952  72.203  1.00  0.00    -0.330 C  
BRANCH  11  12
HETATM   12  N   UNL     1     -12.350   9.101  70.952  1.00  0.00    -0.206 NA 
HETATM   13  C   UNL     1     -12.971  10.428  70.795  1.00  0.00    -0.341 C  
HETATM   14  C   UNL     1     -12.097  11.614  70.270  1.00  0.00    -0.358 C  
HETATM   15  N   UNL     1     -10.924  11.354  69.396  1.00  0.00    -0.230 NA 
HETATM   16  C   UNL     1     -10.405   9.996  69.584  1.00  0.00    -0.247 C  
HETATM   17  C   UNL     1     -11.465   8.894  69.782  1.00  0.00     0.193 C  
BRANCH  15  18
HETATM   18  C   UNL     1     -11.102  11.830  67.991  1.00  0.00    -0.242 C  
BRANCH  18  19
HETATM   19  C   UNL     1     -10.938  13.362  67.911  1.00  0.00    -0.276 A  
HETATM   20  C   UNL     1     -10.238  14.064  68.906  1.00  0.00    -0.159 A  
HETATM   21  C   UNL     1     -11.454  14.088  66.821  1.00  0.00    -0.379 A  
HETATM   22  C   UNL     1     -10.035  15.444  68.797  1.00  0.00    -0.208 A  
HETATM   23  C   UNL     1     -11.255  15.466  66.717  1.00  0.00    -0.197 A  
HETATM   24  C   UNL     1     -10.538  16.143  67.701  1.00  0.00    -0.315 A  
ENDBRANCH  18  19
BRANCH  18  25
HETATM   25  C   UNL     1     -10.186  11.174  66.934  1.00  0.00    -0.260 A  
HETATM   26  C   UNL     1      -8.445  10.027  65.035  1.00  0.00    -0.160 A  
HETATM   27  C   UNL     1      -9.773  10.274  64.699  1.00  0.00    -0.398 A  
HETATM   28 CL   UNL     1      -7.362   9.400  63.855  1.00  0.00    -0.102 Cl 
HETATM   29  C   UNL     1      -8.853  10.864  67.266  1.00  0.00    -0.134 A  
HETATM   30  C   UNL     1     -10.640  10.826  65.649  1.00  0.00    -0.199 A  
HETATM   31  C   UNL     1      -7.989  10.303  66.324  1.00  0.00    -0.124 A  
ENDBRANCH  18  25
ENDBRANCH  15  18
ENDBRANCH  11  12
ENDBRANCH   8  11
ENDBRANCH   2   5
TORSDOF 6
ENDMDL
MODEL       78
REMARK 921   NORMALIZED FREE ENERGY PREDICTED BY IDOCK:   -4.96 KCAL/MOL
REMARK 922        TOTAL FREE ENERGY PREDICTED BY IDOCK:   -7.27 KCAL/MOL
REMARK 923 INTER-LIGAND FREE ENERGY PREDICTED BY IDOCK:   -6.53 KCAL/MOL
REMARK 924 INTRA-LIGAND FREE ENERGY PREDICTED BY IDOCK:   -0.74 KCAL/MOL
REMARK 927      BINDING AFFINITY PREDICTED BY RF-SCORE:    0.00 PKD
ROOT
HETATM    1  C   UNL     1     -13.062  14.015  65.394  1.00  0.00    -0.215 C  
HETATM    2  C   UNL     1     -11.632  13.818  64.843  1.00  0.00    -0.362 C  
HETATM    3  C   UNL     1     -11.077  15.227  64.516  1.00  0.00    -0.260 C  
HETATM    4  C   UNL     1     -11.760  13.029  63.519  1.00  0.00    -0.532 C  
ENDROOT
BRANCH   2   5
HETATM    5  C   UNL     1     -10.671  13.104  65.818  1.00  0.00    -0.292 A  
HETATM    6  C   UNL     1      -9.815  12.046  65.453  1.00  0.00    -0.243 A  
HETATM    7  C   UNL     1      -9.050  11.337  66.411  1.00  0.00    -0.201 A  
HETATM    8  C   UNL     1      -9.101  11.688  67.763  1.00  0.00    -0.175 A  
HETATM    9  C   UNL     1     -10.677  13.464  67.175  1.00  0.00    -0.268 A  
HETATM   10  C   UNL     1      -9.916  12.773  68.117  1.00  0.00    -0.229 A  
BRANCH   8  11
HETATM   11  C   UNL     1      -8.496  10.884  68.911  1.00  0.00    -0.141 C  
BRANCH  11  12
HETATM   12  N   UNL     1      -9.345   9.972  69.702  1.00  0.00    -0.224 NA 
HETATM   13  C   UNL     1     -10.545   9.510  68.983  1.00  0.00    -0.219 C  
HETATM   14  C   UNL     1     -10.410   8.327  67.968  1.00  0.00    -0.213 C  
HETATM   15  N   UNL     1      -9.340   7.310  68.138  1.00  0.00    -0.132 NA 
HETATM   16  C   UNL     1      -8.210   7.843  68.905  1.00  0.00    -0.126 C  
HETATM   17  C   UNL     1      -8.576   8.765  70.086  1.00  0.00    -0.146 C  
BRANCH  15  18
HETATM   18  C   UNL     1      -9.848   5.958  68.517  1.00  0.00    -0.135 C  
BRANCH  18  19
HETATM   19  C   UNL     1      -8.971   4.853  67.892  1.00  0.00    -0.120 A  
HETATM   20  C   UNL     1      -9.477   3.557  67.695  1.00  0.00    -0.233 A  
HETATM   21  C   UNL     1      -7.656   5.126  67.468  1.00  0.00    -0.088 A  
HETATM   22  C   UNL     1      -8.701   2.576  67.067  1.00  0.00    -0.137 A  
HETATM   23  C   UNL     1      -6.883   4.143  66.848  1.00  0.00    -0.051 A  
HETATM   24  C   UNL     1      -7.408   2.871  66.639  1.00  0.00    -0.070 A  
ENDBRANCH  18  19
BRANCH  18  25
HETATM   25  C   UNL     1      -9.985   5.688  70.032  1.00  0.00    -0.267 A  
HETATM   26  C   UNL     1     -10.287   5.271  72.805  1.00  0.00    -0.196 A  
HETATM   27  C   UNL     1      -9.094   4.923  72.176  1.00  0.00    -0.148 A  
HETATM   28 CL   UNL     1     -10.445   5.089  74.508  1.00  0.00    -0.312 Cl 
HETATM   29  C   UNL     1     -11.200   5.979  70.682  1.00  0.00    -0.347 A  
HETATM   30  C   UNL     1      -8.954   5.114  70.797  1.00  0.00    -0.162 A  
HETATM   31  C   UNL     1     -11.347   5.781  72.056  1.00  0.00    -0.289 A  
ENDBRANCH  18  25
ENDBRANCH  15  18
ENDBRANCH  11  12
ENDBRANCH   8  11
ENDBRANCH   2   5
TORSDOF 6
ENDMDL
MODEL       79
REMARK 921   NORMALIZED FREE ENERGY PREDICTED BY IDOCK:   -4.96 KCAL/MOL
REMARK 922        TOTAL FREE ENERGY PREDICTED BY IDOCK:   -7.27 KCAL/MOL
REMARK 923 INTER-LIGAND FREE ENERGY PREDICTED BY IDOCK:   -6.54 KCAL/MOL
REMARK 924 INTRA-LIGAND FREE ENERGY PREDICTED BY IDOCK:   -0.73 KCAL/MOL
REMARK 927      BINDING AFFINITY PREDICTED BY RF-SCORE:    0.00 PKD
ROOT
HETATM    1  C   UNL     1      -8.533   7.628  65.220  1.00  0.00    -0.090 C  
HETATM    2  C   UNL     1      -7.296   7.638  66.145  1.00  0.00    -0.078 C  
HETATM    3  C   UNL     1      -6.091   7.174  65.290  1.00  0.00    -0.037 C  
HETATM    4  C   UNL     1      -7.545   6.581  67.246  1.00  0.00    -0.096 C  
ENDROOT
BRANCH   2   5
HETATM    5  C   UNL     1      -6.981   9.016  66.766  1.00  0.00    -0.081 A  
HETATM    6  C   UNL     1      -7.435   9.436  68.032  1.00  0.00    -0.080 A  
HETATM    7  C   UNL     1      -7.231  10.757  68.501  1.00  0.00    -0.088 A  
HETATM    8  C   UNL     1      -6.539  11.689  67.722  1.00  0.00    -0.071 A  
HETATM    9  C   UNL     1      -6.256   9.956  66.018  1.00  0.00    -0.074 A  
HETATM   10  C   UNL     1      -6.045  11.254  66.484  1.00  0.00    -0.139 A  
BRANCH   8  11
HETATM   11  C   UNL     1      -6.432  13.183  68.014  1.00  0.00    -0.126 C  
BRANCH  11  12
HETATM   12  N   UNL     1      -7.276  14.143  67.277  1.00  0.00    -0.102 NA 
HETATM   13  C   UNL     1      -8.553  13.572  66.816  1.00  0.00    -0.024 C  
HETATM   14  C   UNL     1      -9.744  13.467  67.825  1.00  0.00    -0.216 C  
HETATM   15  N   UNL     1      -9.847  14.413  68.966  1.00  0.00    -0.155 NA 
HETATM   16  C   UNL     1      -8.538  14.967  69.323  1.00  0.00    -0.167 C  
HETATM   17  C   UNL     1      -7.605  15.301  68.141  1.00  0.00    -0.115 C  
BRANCH  15  18
HETATM   18  C   UNL     1     -10.988  15.370  68.855  1.00  0.00    -0.261 C  
BRANCH  18  19
HETATM   19  C   UNL     1     -11.746  15.470  70.195  1.00  0.00    -0.367 A  
HETATM   20  C   UNL     1     -13.148  15.563  70.224  1.00  0.00    -0.033 A  
HETATM   21  C   UNL     1     -11.056  15.433  71.421  1.00  0.00    -0.319 A  
HETATM   22  C   UNL     1     -13.836  15.587  71.442  1.00  0.00    -0.501 A  
HETATM   23  C   UNL     1     -11.745  15.463  72.635  1.00  0.00    -0.556 A  
HETATM   24  C   UNL     1     -13.135  15.531  72.645  1.00  0.00    -0.553 A  
ENDBRANCH  18  19
BRANCH  18  25
HETATM   25  C   UNL     1     -10.631  16.795  68.376  1.00  0.00    -0.354 A  
HETATM   26  C   UNL     1     -10.030  19.429  67.569  1.00  0.00    -0.368 A  
HETATM   27  C   UNL     1     -10.189  18.430  66.613  1.00  0.00    -0.416 A  
HETATM   28 CL   UNL     1      -9.740  21.052  67.076  1.00  0.00    -0.303 Cl 
HETATM   29  C   UNL     1     -10.410  17.812  69.325  1.00  0.00    -0.065 A  
HETATM   30  C   UNL     1     -10.469  17.120  67.017  1.00  0.00    -0.282 A  
HETATM   31  C   UNL     1     -10.121  19.118  68.925  1.00  0.00    -0.422 A  
ENDBRANCH  18  25
ENDBRANCH  15  18
ENDBRANCH  11  12
ENDBRANCH   8  11
ENDBRANCH   2   5
TORSDOF 6
ENDMDL
MODEL       80
REMARK 921   NORMALIZED FREE ENERGY PREDICTED BY IDOCK:   -4.93 KCAL/MOL
REMARK 922        TOTAL FREE ENERGY PREDICTED BY IDOCK:   -7.24 KCAL/MOL
REMARK 923 INTER-LIGAND FREE ENERGY PREDICTED BY IDOCK:   -7.04 KCAL/MOL
REMARK 924 INTRA-LIGAND FREE ENERGY PREDICTED BY IDOCK:   -0.20 KCAL/MOL
REMARK 927      BINDING AFFINITY PREDICTED BY RF-SCORE:    0.00 PKD
ROOT
HETATM    1  C   UNL     1     -10.186  19.459  68.650  1.00  0.00    -0.462 C  
HETATM    2  C   UNL     1      -9.170  18.939  67.609  1.00  0.00    -0.318 C  
HETATM    3  C   UNL     1      -7.820  19.639  67.909  1.00  0.00    -0.333 C  
HETATM    4  C   UNL     1      -9.661  19.409  66.221  1.00  0.00    -0.455 C  
ENDROOT
BRANCH   2   5
HETATM    5  C   UNL     1      -8.967  17.409  67.632  1.00  0.00    -0.233 A  
HETATM    6  C   UNL     1      -8.463  16.693  68.736  1.00  0.00    -0.255 A  
HETATM    7  C   UNL     1      -8.171  15.309  68.662  1.00  0.00    -0.159 A  
HETATM    8  C   UNL     1      -8.404  14.595  67.484  1.00  0.00    -0.203 A  
HETATM    9  C   UNL     1      -9.230  16.664  66.471  1.00  0.00    -0.297 A  
HETATM   10  C   UNL     1      -8.953  15.299  66.401  1.00  0.00    -0.339 A  
BRANCH   8  11
HETATM   11  C   UNL     1      -7.946  13.166  67.207  1.00  0.00    -0.133 C  
BRANCH  11  12
HETATM   12  N   UNL     1      -8.896  12.177  66.661  1.00  0.00    -0.201 NA 
HETATM   13  C   UNL     1      -8.261  10.914  66.249  1.00  0.00    -0.165 C  
HETATM   14  C   UNL     1      -7.938   9.839  67.338  1.00  0.00    -0.102 C  
HETATM   15  N   UNL     1      -8.743   9.768  68.586  1.00  0.00    -0.119 NA 
HETATM   16  C   UNL     1      -9.376  11.054  68.889  1.00  0.00    -0.145 C  
HETATM   17  C   UNL     1      -9.919  11.838  67.677  1.00  0.00    -0.194 C  
BRANCH  15  18
HETATM   18  C   UNL     1      -9.597   8.546  68.684  1.00  0.00    -0.149 C  
BRANCH  18  19
HETATM   19  C   UNL     1      -8.727   7.293  68.918  1.00  0.00    -0.128 A  
HETATM   20  C   UNL     1      -7.846   7.222  70.010  1.00  0.00    -0.111 A  
HETATM   21  C   UNL     1      -8.823   6.176  68.065  1.00  0.00    -0.111 A  
HETATM   22  C   UNL     1      -7.108   6.059  70.256  1.00  0.00    -0.074 A  
HETATM   23  C   UNL     1      -8.080   5.020  68.310  1.00  0.00    -0.086 A  
HETATM   24  C   UNL     1      -7.230   4.958  69.410  1.00  0.00    -0.056 A  
ENDBRANCH  18  19
BRANCH  18  25
HETATM   25  C   UNL     1     -10.714   8.584  69.750  1.00  0.00    -0.213 A  
HETATM   26  C   UNL     1     -12.795   8.588  71.653  1.00  0.00    -0.338 A  
HETATM   27  C   UNL     1     -12.185   9.785  71.290  1.00  0.00    -0.465 A  
HETATM   28 CL   UNL     1     -14.115   8.596  72.755  1.00  0.00    -0.279 Cl 
HETATM   29  C   UNL     1     -11.310   7.382  70.176  1.00  0.00    -0.200 A  
HETATM   30  C   UNL     1     -11.140   9.779  70.359  1.00  0.00    -0.367 A  
HETATM   31  C   UNL     1     -12.345   7.384  71.112  1.00  0.00    -0.349 A  
ENDBRANCH  18  25
ENDBRANCH  15  18
ENDBRANCH  11  12
ENDBRANCH   8  11
ENDBRANCH   2   5
TORSDOF 6
ENDMDL
MODEL       81
REMARK 921   NORMALIZED FREE ENERGY PREDICTED BY IDOCK:   -4.93 KCAL/MOL
REMARK 922        TOTAL FREE ENERGY PREDICTED BY IDOCK:   -7.24 KCAL/MOL
REMARK 923 INTER-LIGAND FREE ENERGY PREDICTED BY IDOCK:   -7.17 KCAL/MOL
REMARK 924 INTRA-LIGAND FREE ENERGY PREDICTED BY IDOCK:   -0.06 KCAL/MOL
REMARK 927      BINDING AFFINITY PREDICTED BY RF-SCORE:    0.00 PKD
ROOT
HETATM    1  C   UNL     1      -8.281  21.068  67.181  1.00  0.00    -0.011 C  
HETATM    2  C   UNL     1      -9.076  19.749  67.309  1.00  0.00    -0.413 C  
HETATM    3  C   UNL     1      -9.936  19.616  66.026  1.00  0.00    -0.508 C  
HETATM    4  C   UNL     1     -10.029  19.910  68.516  1.00  0.00    -0.507 C  
ENDROOT
BRANCH   2   5
HETATM    5  C   UNL     1      -8.196  18.492  67.466  1.00  0.00    -0.262 A  
HETATM    6  C   UNL     1      -7.944  17.567  66.433  1.00  0.00    -0.320 A  
HETATM    7  C   UNL     1      -7.239  16.360  66.663  1.00  0.00    -0.208 A  
HETATM    8  C   UNL     1      -6.740  16.059  67.933  1.00  0.00    -0.158 A  
HETATM    9  C   UNL     1      -7.653  18.186  68.724  1.00  0.00    -0.285 A  
HETATM   10  C   UNL     1      -6.949  17.003  68.949  1.00  0.00    -0.219 A  
BRANCH   8  11
HETATM   11  C   UNL     1      -6.152  14.716  68.360  1.00  0.00    -0.101 C  
BRANCH  11  12
HETATM   12  N   UNL     1      -7.003  13.718  69.036  1.00  0.00    -0.111 NA 
HETATM   13  C   UNL     1      -8.314  14.245  69.453  1.00  0.00     0.336 C  
HETATM   14  C   UNL     1      -9.461  14.343  68.394  1.00  0.00    -0.207 C  
HETATM   15  N   UNL     1      -9.488  13.422  67.228  1.00  0.00    -0.225 NA 
HETATM   16  C   UNL     1      -8.150  12.910  66.918  1.00  0.00     0.039 C  
HETATM   17  C   UNL     1      -7.262  12.573  68.133  1.00  0.00    -0.106 C  
BRANCH  15  18
HETATM   18  C   UNL     1     -10.606  12.433  67.266  1.00  0.00    -0.223 C  
BRANCH  18  19
HETATM   19  C   UNL     1     -11.197  12.226  65.856  1.00  0.00    -0.381 A  
HETATM   20  C   UNL     1     -12.496  12.667  65.547  1.00  0.00    -0.345 A  
HETATM   21  C   UNL     1     -10.438  11.626  64.834  1.00  0.00    -0.339 A  
HETATM   22  C   UNL     1     -13.003  12.537  64.250  1.00  0.00    -0.253 A  
HETATM   23  C   UNL     1     -10.949  11.492  63.542  1.00  0.00    -0.453 A  
HETATM   24  C   UNL     1     -12.229  11.956  63.248  1.00  0.00    -0.487 A  
ENDBRANCH  18  19
BRANCH  18  25
HETATM   25  C   UNL     1     -10.268  11.053  67.873  1.00  0.00    -0.207 A  
HETATM   26  C   UNL     1      -9.607   8.576  69.048  1.00  0.00    -0.167 A  
HETATM   27  C   UNL     1      -9.658   8.695  67.662  1.00  0.00    -0.190 A  
HETATM   28 CL   UNL     1      -9.129   7.088  69.766  1.00  0.00    -0.145 Cl 
HETATM   29  C   UNL     1     -10.264  10.892  69.272  1.00  0.00    -0.190 A  
HETATM   30  C   UNL     1     -10.005   9.921  67.082  1.00  0.00    -0.252 A  
HETATM   31  C   UNL     1      -9.929   9.668  69.854  1.00  0.00    -0.273 A  
ENDBRANCH  18  25
ENDBRANCH  15  18
ENDBRANCH  11  12
ENDBRANCH   8  11
ENDBRANCH   2   5
TORSDOF 6
ENDMDL
MODEL       82
REMARK 921   NORMALIZED FREE ENERGY PREDICTED BY IDOCK:   -4.93 KCAL/MOL
REMARK 922        TOTAL FREE ENERGY PREDICTED BY IDOCK:   -7.23 KCAL/MOL
REMARK 923 INTER-LIGAND FREE ENERGY PREDICTED BY IDOCK:   -6.92 KCAL/MOL
REMARK 924 INTRA-LIGAND FREE ENERGY PREDICTED BY IDOCK:   -0.31 KCAL/MOL
REMARK 927      BINDING AFFINITY PREDICTED BY RF-SCORE:    0.00 PKD
ROOT
HETATM    1  C   UNL     1      -7.406  19.398  69.015  1.00  0.00    -0.395 C  
HETATM    2  C   UNL     1      -8.652  19.143  68.138  1.00  0.00    -0.359 C  
HETATM    3  C   UNL     1      -8.499  20.024  66.873  1.00  0.00    -0.385 C  
HETATM    4  C   UNL     1      -9.878  19.646  68.934  1.00  0.00    -0.498 C  
ENDROOT
BRANCH   2   5
HETATM    5  C   UNL     1      -8.837  17.670  67.715  1.00  0.00    -0.240 A  
HETATM    6  C   UNL     1      -9.146  17.255  66.404  1.00  0.00    -0.281 A  
HETATM    7  C   UNL     1      -9.437  15.904  66.094  1.00  0.00    -0.375 A  
HETATM    8  C   UNL     1      -9.398  14.922  67.088  1.00  0.00    -0.227 A  
HETATM    9  C   UNL     1      -8.767  16.661  68.689  1.00  0.00    -0.250 A  
HETATM   10  C   UNL     1      -9.043  15.329  68.382  1.00  0.00    -0.189 A  
BRANCH   8  11
HETATM   11  C   UNL     1      -9.887  13.485  66.933  1.00  0.00    -0.257 C  
BRANCH  11  12
HETATM   12  N   UNL     1      -9.862  12.567  68.089  1.00  0.00    -0.217 NA 
HETATM   13  C   UNL     1     -11.003  11.637  68.128  1.00  0.00    -0.226 C  
HETATM   14  C   UNL     1     -10.960  10.348  67.244  1.00  0.00    -0.240 C  
HETATM   15  N   UNL     1      -9.657   9.739  66.866  1.00  0.00    -0.172 NA 
HETATM   16  C   UNL     1      -8.574  10.726  66.903  1.00  0.00    -0.132 C  
HETATM   17  C   UNL     1      -8.631  11.744  68.060  1.00  0.00    -0.158 C  
BRANCH  15  18
HETATM   18  C   UNL     1      -9.400   8.417  67.512  1.00  0.00    -0.147 C  
BRANCH  18  19
HETATM   19  C   UNL     1      -7.899   8.063  67.444  1.00  0.00    -0.117 A  
HETATM   20  C   UNL     1      -7.101   8.087  68.600  1.00  0.00    -0.072 A  
HETATM   21  C   UNL     1      -7.303   7.671  66.230  1.00  0.00    -0.079 A  
HETATM   22  C   UNL     1      -5.757   7.701  68.546  1.00  0.00    -0.027 A  
HETATM   23  C   UNL     1      -5.960   7.293  66.179  1.00  0.00    -0.036 A  
HETATM   24  C   UNL     1      -5.189   7.300  67.338  1.00  0.00    -0.020 A  
ENDBRANCH  18  19
BRANCH  18  25
HETATM   25  C   UNL     1      -9.881   8.272  68.972  1.00  0.00    -0.176 A  
HETATM   26  C   UNL     1     -10.842   7.979  71.607  1.00  0.00    -0.237 A  
HETATM   27  C   UNL     1      -9.957   9.009  71.301  1.00  0.00    -0.381 A  
HETATM   28 CL   UNL     1     -11.489   7.845  73.195  1.00  0.00    -0.249 Cl 
HETATM   29  C   UNL     1     -10.734   7.206  69.319  1.00  0.00    -0.231 A  
HETATM   30  C   UNL     1      -9.467   9.141  69.997  1.00  0.00    -0.218 A  
HETATM   31  C   UNL     1     -11.216   7.066  70.622  1.00  0.00    -0.327 A  
ENDBRANCH  18  25
ENDBRANCH  15  18
ENDBRANCH  11  12
ENDBRANCH   8  11
ENDBRANCH   2   5
TORSDOF 6
ENDMDL
MODEL       83
REMARK 921   NORMALIZED FREE ENERGY PREDICTED BY IDOCK:   -4.90 KCAL/MOL
REMARK 922        TOTAL FREE ENERGY PREDICTED BY IDOCK:   -7.20 KCAL/MOL
REMARK 923 INTER-LIGAND FREE ENERGY PREDICTED BY IDOCK:   -6.04 KCAL/MOL
REMARK 924 INTRA-LIGAND FREE ENERGY PREDICTED BY IDOCK:   -1.16 KCAL/MOL
REMARK 927      BINDING AFFINITY PREDICTED BY RF-SCORE:    0.00 PKD
ROOT
HETATM    1  C   UNL     1     -10.805   2.719  63.069  1.00  0.00    -0.210 C  
HETATM    2  C   UNL     1      -9.403   3.063  63.619  1.00  0.00    -0.098 C  
HETATM    3  C   UNL     1      -8.543   3.511  62.410  1.00  0.00    -0.077 C  
HETATM    4  C   UNL     1      -8.802   1.753  64.181  1.00  0.00    -0.092 C  
ENDROOT
BRANCH   2   5
HETATM    5  C   UNL     1      -9.398   4.174  64.689  1.00  0.00    -0.163 A  
HETATM    6  C   UNL     1      -8.293   5.005  64.964  1.00  0.00    -0.140 A  
HETATM    7  C   UNL     1      -8.293   5.920  66.045  1.00  0.00    -0.128 A  
HETATM    8  C   UNL     1      -9.417   6.049  66.866  1.00  0.00    -0.146 A  
HETATM    9  C   UNL     1     -10.528   4.349  65.504  1.00  0.00    -0.228 A  
HETATM   10  C   UNL     1     -10.533   5.258  66.562  1.00  0.00    -0.354 A  
BRANCH   8  11
HETATM   11  C   UNL     1      -9.473   6.836  68.173  1.00  0.00    -0.120 C  
BRANCH  11  12
HETATM   12  N   UNL     1     -10.493   7.886  68.360  1.00  0.00    -0.194 NA 
HETATM   13  C   UNL     1     -10.250   8.742  69.534  1.00  0.00    -0.208 C  
HETATM   14  C   UNL     1      -9.223   9.915  69.416  1.00  0.00    -0.214 C  
HETATM   15  N   UNL     1      -8.958  10.553  68.100  1.00  0.00    -0.134 NA 
HETATM   16  C   UNL     1      -9.274   9.646  66.992  1.00  0.00    -0.142 C  
HETATM   17  C   UNL     1     -10.533   8.775  67.175  1.00  0.00    -0.283 C  
BRANCH  15  18
HETATM   18  C   UNL     1      -9.458  11.957  67.998  1.00  0.00    -0.197 C  
BRANCH  18  19
HETATM   19  C   UNL     1      -8.292  12.959  68.129  1.00  0.00    -0.168 A  
HETATM   20  C   UNL     1      -6.965  12.553  67.909  1.00  0.00    -0.105 A  
HETATM   21  C   UNL     1      -8.532  14.312  68.435  1.00  0.00    -0.166 A  
HETATM   22  C   UNL     1      -5.917  13.479  67.964  1.00  0.00    -0.131 A  
HETATM   23  C   UNL     1      -7.484  15.232  68.495  1.00  0.00    -0.121 A  
HETATM   24  C   UNL     1      -6.178  14.817  68.251  1.00  0.00    -0.125 A  
ENDBRANCH  18  19
BRANCH  18  25
HETATM   25  C   UNL     1     -10.268  12.296  66.727  1.00  0.00    -0.229 A  
HETATM   26  C   UNL     1     -11.677  12.969  64.380  1.00  0.00    -0.373 A  
HETATM   27  C   UNL     1     -12.367  12.787  65.575  1.00  0.00    -0.495 A  
HETATM   28 CL   UNL     1     -12.525  13.455  62.964  1.00  0.00    -0.100 Cl 
HETATM   29  C   UNL     1      -9.601  12.433  65.495  1.00  0.00    -0.076 A  
HETATM   30  C   UNL     1     -11.667  12.435  66.735  1.00  0.00    -0.430 A  
HETATM   31  C   UNL     1     -10.298  12.774  64.334  1.00  0.00    -0.388 A  
ENDBRANCH  18  25
ENDBRANCH  15  18
ENDBRANCH  11  12
ENDBRANCH   8  11
ENDBRANCH   2   5
TORSDOF 6
ENDMDL
MODEL       84
REMARK 921   NORMALIZED FREE ENERGY PREDICTED BY IDOCK:   -4.88 KCAL/MOL
REMARK 922        TOTAL FREE ENERGY PREDICTED BY IDOCK:   -7.17 KCAL/MOL
REMARK 923 INTER-LIGAND FREE ENERGY PREDICTED BY IDOCK:   -7.38 KCAL/MOL
REMARK 924 INTRA-LIGAND FREE ENERGY PREDICTED BY IDOCK:    0.21 KCAL/MOL
REMARK 927      BINDING AFFINITY PREDICTED BY RF-SCORE:    0.00 PKD
ROOT
HETATM    1  C   UNL     1      -7.483  19.424  66.116  1.00  0.00    -0.297 C  
HETATM    2  C   UNL     1      -8.258  19.409  67.453  1.00  0.00    -0.319 C  
HETATM    3  C   UNL     1      -9.341  20.513  67.357  1.00  0.00    -0.511 C  
HETATM    4  C   UNL     1      -7.257  19.807  68.562  1.00  0.00    -0.356 C  
ENDROOT
BRANCH   2   5
HETATM    5  C   UNL     1      -8.932  18.059  67.778  1.00  0.00    -0.255 A  
HETATM    6  C   UNL     1      -8.434  17.131  68.714  1.00  0.00    -0.225 A  
HETATM    7  C   UNL     1      -9.015  15.849  68.880  1.00  0.00    -0.228 A  
HETATM    8  C   UNL     1     -10.133  15.473  68.131  1.00  0.00    -0.218 A  
HETATM    9  C   UNL     1     -10.078  17.673  67.065  1.00  0.00    -0.330 A  
HETATM   10  C   UNL     1     -10.657  16.416  67.236  1.00  0.00    -0.293 A  
BRANCH   8  11
HETATM   11  C   UNL     1     -10.722  14.066  68.063  1.00  0.00    -0.246 C  
BRANCH  11  12
HETATM   12  N   UNL     1      -9.866  12.893  68.323  1.00  0.00    -0.229 NA 
HETATM   13  C   UNL     1     -10.608  11.716  68.806  1.00  0.00    -0.212 C  
HETATM   14  C   UNL     1     -11.348  10.809  67.768  1.00  0.00    -0.279 C  
HETATM   15  N   UNL     1     -10.863  10.722  66.366  1.00  0.00    -0.161 NA 
HETATM   16  C   UNL     1     -10.094  11.912  65.990  1.00  0.00    -0.231 C  
HETATM   17  C   UNL     1      -9.168  12.486  67.081  1.00  0.00    -0.205 C  
BRANCH  15  18
HETATM   18  C   UNL     1     -10.282   9.393  66.010  1.00  0.00    -0.134 C  
BRANCH  18  19
HETATM   19  C   UNL     1      -8.963   9.568  65.228  1.00  0.00    -0.244 A  
HETATM   20  C   UNL     1      -8.975   9.863  63.854  1.00  0.00    -0.280 A  
HETATM   21  C   UNL     1      -7.719   9.474  65.879  1.00  0.00    -0.100 A  
HETATM   22  C   UNL     1      -7.779  10.086  63.163  1.00  0.00    -0.145 A  
HETATM   23  C   UNL     1      -6.527   9.691  65.185  1.00  0.00    -0.088 A  
HETATM   24  C   UNL     1      -6.557  10.006  63.829  1.00  0.00    -0.130 A  
ENDBRANCH  18  19
BRANCH  18  25
HETATM   25  C   UNL     1     -10.039   8.423  67.188  1.00  0.00    -0.335 A  
HETATM   26  C   UNL     1      -9.685   6.641  69.345  1.00  0.00    -0.147 A  
HETATM   27  C   UNL     1      -8.845   7.744  69.210  1.00  0.00    -0.139 A  
HETATM   28 CL   UNL     1      -9.520   5.597  70.701  1.00  0.00    -0.193 Cl 
HETATM   29  C   UNL     1     -10.839   7.272  67.317  1.00  0.00    -0.354 A  
HETATM   30  C   UNL     1      -9.011   8.616  68.129  1.00  0.00    -0.141 A  
HETATM   31  C   UNL     1     -10.669   6.394  68.388  1.00  0.00    -0.349 A  
ENDBRANCH  18  25
ENDBRANCH  15  18
ENDBRANCH  11  12
ENDBRANCH   8  11
ENDBRANCH   2   5
TORSDOF 6
ENDMDL
MODEL       85
REMARK 921   NORMALIZED FREE ENERGY PREDICTED BY IDOCK:   -4.81 KCAL/MOL
REMARK 922        TOTAL FREE ENERGY PREDICTED BY IDOCK:   -7.08 KCAL/MOL
REMARK 923 INTER-LIGAND FREE ENERGY PREDICTED BY IDOCK:   -6.23 KCAL/MOL
REMARK 924 INTRA-LIGAND FREE ENERGY PREDICTED BY IDOCK:   -0.85 KCAL/MOL
REMARK 927      BINDING AFFINITY PREDICTED BY RF-SCORE:    0.00 PKD
ROOT
HETATM    1  C   UNL     1      -7.299   3.680  72.471  1.00  0.00    -0.050 C  
HETATM    2  C   UNL     1      -6.974   5.083  73.031  1.00  0.00    -0.078 C  
HETATM    3  C   UNL     1      -5.469   5.336  72.764  1.00  0.00    -0.017 C  
HETATM    4  C   UNL     1      -7.191   5.022  74.561  1.00  0.00    -0.082 C  
ENDROOT
BRANCH   2   5
HETATM    5  C   UNL     1      -7.804   6.223  72.403  1.00  0.00    -0.103 A  
HETATM    6  C   UNL     1      -7.281   7.484  72.056  1.00  0.00    -0.068 A  
HETATM    7  C   UNL     1      -8.110   8.541  71.606  1.00  0.00    -0.195 A  
HETATM    8  C   UNL     1      -9.487   8.353  71.463  1.00  0.00    -0.267 A  
HETATM    9  C   UNL     1      -9.184   6.045  72.215  1.00  0.00    -0.146 A  
HETATM   10  C   UNL     1      -9.999   7.082  71.762  1.00  0.00    -0.187 A  
BRANCH   8  11
HETATM   11  C   UNL     1     -10.509   9.454  71.191  1.00  0.00    -0.322 C  
BRANCH  11  12
HETATM   12  N   UNL     1     -11.339   9.407  69.971  1.00  0.00    -0.192 NA 
HETATM   13  C   UNL     1     -11.933  10.707  69.612  1.00  0.00    -0.268 C  
HETATM   14  C   UNL     1     -11.058  11.752  68.844  1.00  0.00    -0.243 C  
HETATM   15  N   UNL     1      -9.940  11.302  67.974  1.00  0.00    -0.174 NA 
HETATM   16  C   UNL     1      -9.447   9.981  68.375  1.00  0.00    -0.141 C  
HETATM   17  C   UNL     1     -10.522   8.968  68.816  1.00  0.00    -0.206 C  
BRANCH  15  18
HETATM   18  C   UNL     1     -10.181  11.529  66.518  1.00  0.00    -0.218 C  
BRANCH  18  19
HETATM   19  C   UNL     1     -10.188  13.039  66.197  1.00  0.00    -0.288 A  
HETATM   20  C   UNL     1     -11.094  13.573  65.265  1.00  0.00    -0.307 A  
HETATM   21  C   UNL     1      -9.313  13.922  66.858  1.00  0.00    -0.265 A  
HETATM   22  C   UNL     1     -11.141  14.950  65.026  1.00  0.00    -0.422 A  
HETATM   23  C   UNL     1      -9.359  15.296  66.612  1.00  0.00    -0.285 A  
HETATM   24  C   UNL     1     -10.279  15.810  65.703  1.00  0.00    -0.407 A  
ENDBRANCH  18  19
BRANCH  18  25
HETATM   25  C   UNL     1      -9.207  10.818  65.552  1.00  0.00    -0.230 A  
HETATM   26  C   UNL     1      -7.366   9.585  63.807  1.00  0.00    -0.113 A  
HETATM   27  C   UNL     1      -8.727   9.558  63.514  1.00  0.00    -0.235 A  
HETATM   28 CL   UNL     1      -6.236   8.901  62.706  1.00  0.00    -0.091 Cl 
HETATM   29  C   UNL     1      -7.832  10.784  65.854  1.00  0.00    -0.131 A  
HETATM   30  C   UNL     1      -9.640  10.154  64.391  1.00  0.00    -0.366 A  
HETATM   31  C   UNL     1      -6.919  10.180  64.986  1.00  0.00    -0.135 A  
ENDBRANCH  18  25
ENDBRANCH  15  18
ENDBRANCH  11  12
ENDBRANCH   8  11
ENDBRANCH   2   5
TORSDOF 6
ENDMDL
MODEL       86
REMARK 921   NORMALIZED FREE ENERGY PREDICTED BY IDOCK:   -4.76 KCAL/MOL
REMARK 922        TOTAL FREE ENERGY PREDICTED BY IDOCK:   -7.01 KCAL/MOL
REMARK 923 INTER-LIGAND FREE ENERGY PREDICTED BY IDOCK:   -6.80 KCAL/MOL
REMARK 924 INTRA-LIGAND FREE ENERGY PREDICTED BY IDOCK:   -0.21 KCAL/MOL
REMARK 927      BINDING AFFINITY PREDICTED BY RF-SCORE:    0.00 PKD
ROOT
HETATM    1  C   UNL     1     -11.568   5.105  72.853  1.00  0.00    -0.282 C  
HETATM    2  C   UNL     1     -11.511   6.454  72.101  1.00  0.00    -0.344 C  
HETATM    3  C   UNL     1     -10.948   7.501  73.095  1.00  0.00    -0.420 C  
HETATM    4  C   UNL     1     -12.968   6.844  71.759  1.00  0.00    -0.326 C  
ENDROOT
BRANCH   2   5
HETATM    5  C   UNL     1     -10.634   6.434  70.831  1.00  0.00    -0.285 A  
HETATM    6  C   UNL     1     -10.911   5.654  69.690  1.00  0.00    -0.365 A  
HETATM    7  C   UNL     1     -10.006   5.568  68.603  1.00  0.00    -0.222 A  
HETATM    8  C   UNL     1      -8.808   6.287  68.618  1.00  0.00    -0.119 A  
HETATM    9  C   UNL     1      -9.443   7.177  70.806  1.00  0.00    -0.164 A  
HETATM   10  C   UNL     1      -8.557   7.102  69.732  1.00  0.00    -0.141 A  
BRANCH   8  11
HETATM   11  C   UNL     1      -7.664   6.125  67.619  1.00  0.00    -0.098 C  
BRANCH  11  12
HETATM   12  N   UNL     1      -7.626   6.953  66.398  1.00  0.00    -0.087 NA 
HETATM   13  C   UNL     1      -8.932   7.530  66.035  1.00  0.00    -0.127 C  
HETATM   14  C   UNL     1      -9.417   8.825  66.765  1.00  0.00    -0.191 C  
HETATM   15  N   UNL     1      -8.431   9.787  67.323  1.00  0.00    -0.124 NA 
HETATM   16  C   UNL     1      -7.149   9.136  67.607  1.00  0.00    -0.082 C  
HETATM   17  C   UNL     1      -6.687   8.084  66.579  1.00  0.00    -0.062 C  
BRANCH  15  18
HETATM   18  C   UNL     1      -8.390  11.094  66.601  1.00  0.00    -0.160 C  
BRANCH  18  19
HETATM   19  C   UNL     1      -8.811  10.914  65.127  1.00  0.00    -0.167 A  
HETATM   20  C   UNL     1      -7.948  10.304  64.201  1.00  0.00    -0.126 A  
HETATM   21  C   UNL     1     -10.083  11.321  64.684  1.00  0.00    -0.343 A  
HETATM   22  C   UNL     1      -8.358  10.083  62.882  1.00  0.00    -0.166 A  
HETATM   23  C   UNL     1     -10.488  11.105  63.365  1.00  0.00    -0.382 A  
HETATM   24  C   UNL     1      -9.629  10.478  62.467  1.00  0.00    -0.241 A  
ENDBRANCH  18  19
BRANCH  18  25
HETATM   25  C   UNL     1      -9.223  12.237  67.222  1.00  0.00    -0.185 A  
HETATM   26  C   UNL     1     -10.820  14.278  68.334  1.00  0.00    -0.253 A  
HETATM   27  C   UNL     1      -9.627  14.601  67.693  1.00  0.00    -0.212 A  
HETATM   28 CL   UNL     1     -11.833  15.527  68.944  1.00  0.00    -0.375 Cl 
HETATM   29  C   UNL     1     -10.405  11.932  67.923  1.00  0.00    -0.212 A  
HETATM   30  C   UNL     1      -8.827  13.585  67.158  1.00  0.00    -0.231 A  
HETATM   31  C   UNL     1     -11.200  12.943  68.467  1.00  0.00    -0.310 A  
ENDBRANCH  18  25
ENDBRANCH  15  18
ENDBRANCH  11  12
ENDBRANCH   8  11
ENDBRANCH   2   5
TORSDOF 6
ENDMDL
MODEL       87
REMARK 921   NORMALIZED FREE ENERGY PREDICTED BY IDOCK:   -4.70 KCAL/MOL
REMARK 922        TOTAL FREE ENERGY PREDICTED BY IDOCK:   -6.92 KCAL/MOL
REMARK 923 INTER-LIGAND FREE ENERGY PREDICTED BY IDOCK:   -7.22 KCAL/MOL
REMARK 924 INTRA-LIGAND FREE ENERGY PREDICTED BY IDOCK:    0.31 KCAL/MOL
REMARK 927      BINDING AFFINITY PREDICTED BY RF-SCORE:    0.00 PKD
ROOT
HETATM    1  C   UNL     1      -8.788  21.200  66.920  1.00  0.00     0.361 C  
HETATM    2  C   UNL     1      -9.473  19.843  67.199  1.00  0.00    -0.497 C  
HETATM    3  C   UNL     1     -10.366  19.528  65.973  1.00  0.00    -0.604 C  
HETATM    4  C   UNL     1     -10.390  20.042  68.428  1.00  0.00    -0.465 C  
ENDROOT
BRANCH   2   5
HETATM    5  C   UNL     1      -8.491  18.674  67.430  1.00  0.00    -0.277 A  
HETATM    6  C   UNL     1      -7.913  17.910  66.396  1.00  0.00    -0.302 A  
HETATM    7  C   UNL     1      -7.123  16.765  66.663  1.00  0.00    -0.275 A  
HETATM    8  C   UNL     1      -6.867  16.368  67.978  1.00  0.00    -0.147 A  
HETATM    9  C   UNL     1      -8.189  18.280  68.743  1.00  0.00    -0.253 A  
HETATM   10  C   UNL     1      -7.402  17.158  69.006  1.00  0.00    -0.217 A  
BRANCH   8  11
HETATM   11  C   UNL     1      -6.214  15.054  68.397  1.00  0.00    -0.106 C  
BRANCH  11  12
HETATM   12  N   UNL     1      -7.040  13.961  68.947  1.00  0.00    -0.109 NA 
HETATM   13  C   UNL     1      -8.408  14.376  69.301  1.00  0.00     0.153 C  
HETATM   14  C   UNL     1      -9.485  14.473  68.171  1.00  0.00    -0.208 C  
HETATM   15  N   UNL     1      -9.372  13.633  66.951  1.00  0.00    -0.250 NA 
HETATM   16  C   UNL     1      -7.985  13.227  66.705  1.00  0.00     0.327 C  
HETATM   17  C   UNL     1      -7.160  12.865  67.957  1.00  0.00    -0.111 C  
BRANCH  15  18
HETATM   18  C   UNL     1     -10.422  12.575  66.847  1.00  0.00    -0.228 C  
BRANCH  18  19
HETATM   19  C   UNL     1     -10.139  11.645  65.648  1.00  0.00    -0.278 A  
HETATM   20  C   UNL     1     -10.488  12.027  64.342  1.00  0.00    -0.353 A  
HETATM   21  C   UNL     1      -9.492  10.408  65.830  1.00  0.00    -0.247 A  
HETATM   22  C   UNL     1     -10.171  11.211  63.251  1.00  0.00    -0.403 A  
HETATM   23  C   UNL     1      -9.182   9.593  64.740  1.00  0.00    -0.298 A  
HETATM   24  C   UNL     1      -9.514   9.998  63.450  1.00  0.00    -0.239 A  
ENDBRANCH  18  19
BRANCH  18  25
HETATM   25  C   UNL     1     -10.639  11.711  68.109  1.00  0.00    -0.230 A  
HETATM   26  C   UNL     1     -11.073  10.207  70.454  1.00  0.00    -0.324 A  
HETATM   27  C   UNL     1      -9.930   9.988  69.691  1.00  0.00    -0.263 A  
HETATM   28 CL   UNL     1     -11.303   9.345  71.925  1.00  0.00    -0.386 Cl 
HETATM   29  C   UNL     1     -11.814  11.874  68.869  1.00  0.00    -0.366 A  
HETATM   30  C   UNL     1      -9.725  10.723  68.518  1.00  0.00    -0.184 A  
HETATM   31  C   UNL     1     -12.025  11.135  70.034  1.00  0.00    -0.447 A  
ENDBRANCH  18  25
ENDBRANCH  15  18
ENDBRANCH  11  12
ENDBRANCH   8  11
ENDBRANCH   2   5
TORSDOF 6
ENDMDL
MODEL       88
REMARK 921   NORMALIZED FREE ENERGY PREDICTED BY IDOCK:   -4.69 KCAL/MOL
REMARK 922        TOTAL FREE ENERGY PREDICTED BY IDOCK:   -6.91 KCAL/MOL
REMARK 923 INTER-LIGAND FREE ENERGY PREDICTED BY IDOCK:   -6.99 KCAL/MOL
REMARK 924 INTRA-LIGAND FREE ENERGY PREDICTED BY IDOCK:    0.08 KCAL/MOL
REMARK 927      BINDING AFFINITY PREDICTED BY RF-SCORE:    0.00 PKD
ROOT
HETATM    1  C   UNL     1     -12.483  15.147  73.103  1.00  0.00    -0.561 C  
HETATM    2  C   UNL     1     -12.948  14.698  71.700  1.00  0.00    -0.408 C  
HETATM    3  C   UNL     1     -12.064  15.448  70.672  1.00  0.00    -0.412 C  
HETATM    4  C   UNL     1     -14.406  15.182  71.529  1.00  0.00    -0.660 C  
ENDROOT
BRANCH   2   5
HETATM    5  C   UNL     1     -12.840  13.178  71.453  1.00  0.00    -0.401 A  
HETATM    6  C   UNL     1     -13.467  12.200  72.251  1.00  0.00    -0.298 A  
HETATM    7  C   UNL     1     -13.229  10.816  72.064  1.00  0.00    -0.466 A  
HETATM    8  C   UNL     1     -12.376  10.371  71.051  1.00  0.00    -0.490 A  
HETATM    9  C   UNL     1     -12.017  12.707  70.418  1.00  0.00    -0.331 A  
HETATM   10  C   UNL     1     -11.791  11.344  70.227  1.00  0.00    -0.438 A  
BRANCH   8  11
HETATM   11  C   UNL     1     -11.877   8.939  70.877  1.00  0.00    -0.240 C  
BRANCH  11  12
HETATM   12  N   UNL     1     -10.440   8.634  71.016  1.00  0.00    -0.207 NA 
HETATM   13  C   UNL     1     -10.160   7.207  71.254  1.00  0.00    -0.189 C  
HETATM   14  C   UNL     1     -10.137   6.228  70.035  1.00  0.00    -0.175 C  
HETATM   15  N   UNL     1      -9.792   6.726  68.677  1.00  0.00    -0.141 NA 
HETATM   16  C   UNL     1     -10.057   8.162  68.549  1.00  0.00    -0.200 C  
HETATM   17  C   UNL     1      -9.715   9.020  69.784  1.00  0.00    -0.175 C  
BRANCH  15  18
HETATM   18  C   UNL     1      -8.481   6.224  68.166  1.00  0.00    -0.114 C  
BRANCH  18  19
HETATM   19  C   UNL     1      -7.734   5.439  69.265  1.00  0.00    -0.085 A  
HETATM   20  C   UNL     1      -6.508   5.901  69.772  1.00  0.00    -0.042 A  
HETATM   21  C   UNL     1      -8.281   4.263  69.813  1.00  0.00    -0.069 A  
HETATM   22  C   UNL     1      -5.866   5.222  70.814  1.00  0.00    -0.021 A  
HETATM   23  C   UNL     1      -7.635   3.585  70.848  1.00  0.00    -0.040 A  
HETATM   24  C   UNL     1      -6.432   4.069  71.354  1.00  0.00    -0.015 A  
ENDBRANCH  18  19
BRANCH  18  25
HETATM   25  C   UNL     1      -8.540   5.359  66.887  1.00  0.00    -0.109 A  
HETATM   26  C   UNL     1      -8.623   3.854  64.504  1.00  0.00    -0.107 A  
HETATM   27  C   UNL     1      -9.540   3.596  65.520  1.00  0.00    -0.149 A  
HETATM   28 CL   UNL     1      -8.721   2.990  63.020  1.00  0.00    -0.085 Cl 
HETATM   29  C   UNL     1      -7.591   5.562  65.867  1.00  0.00    -0.083 A  
HETATM   30  C   UNL     1      -9.485   4.332  66.709  1.00  0.00    -0.202 A  
HETATM   31  C   UNL     1      -7.637   4.823  64.684  1.00  0.00    -0.076 A  
ENDBRANCH  18  25
ENDBRANCH  15  18
ENDBRANCH  11  12
ENDBRANCH   8  11
ENDBRANCH   2   5
TORSDOF 6
ENDMDL
MODEL       89
REMARK 921   NORMALIZED FREE ENERGY PREDICTED BY IDOCK:   -4.67 KCAL/MOL
REMARK 922        TOTAL FREE ENERGY PREDICTED BY IDOCK:   -6.89 KCAL/MOL
REMARK 923 INTER-LIGAND FREE ENERGY PREDICTED BY IDOCK:   -5.72 KCAL/MOL
REMARK 924 INTRA-LIGAND FREE ENERGY PREDICTED BY IDOCK:   -1.17 KCAL/MOL
REMARK 927      BINDING AFFINITY PREDICTED BY RF-SCORE:    0.00 PKD
ROOT
HETATM    1  C   UNL     1     -12.700  13.808  65.614  1.00  0.00    -0.523 C  
HETATM    2  C   UNL     1     -11.326  13.160  65.328  1.00  0.00    -0.321 C  
HETATM    3  C   UNL     1     -10.366  14.305  64.917  1.00  0.00    -0.429 C  
HETATM    4  C   UNL     1     -11.510  12.222  64.113  1.00  0.00    -0.453 C  
ENDROOT
BRANCH   2   5
HETATM    5  C   UNL     1     -10.725  12.396  66.527  1.00  0.00    -0.265 A  
HETATM    6  C   UNL     1      -9.573  11.588  66.454  1.00  0.00    -0.230 A  
HETATM    7  C   UNL     1      -9.137  10.802  67.549  1.00  0.00    -0.143 A  
HETATM    8  C   UNL     1      -9.831  10.827  68.762  1.00  0.00    -0.200 A  
HETATM    9  C   UNL     1     -11.383  12.434  67.766  1.00  0.00    -0.356 A  
HETATM   10  C   UNL     1     -10.949  11.670  68.849  1.00  0.00    -0.282 A  
BRANCH   8  11
HETATM   11  C   UNL     1      -9.594   9.884  69.939  1.00  0.00    -0.227 C  
BRANCH  11  12
HETATM   12  N   UNL     1     -10.526   8.768  70.191  1.00  0.00    -0.207 NA 
HETATM   13  C   UNL     1     -10.965   8.077  68.967  1.00  0.00     0.114 C  
HETATM   14  C   UNL     1     -10.026   7.002  68.327  1.00  0.00    -0.153 C  
HETATM   15  N   UNL     1      -9.061   6.249  69.170  1.00  0.00    -0.130 NA 
HETATM   16  C   UNL     1      -8.721   6.991  70.388  1.00  0.00    -0.147 C  
HETATM   17  C   UNL     1      -9.883   7.752  71.057  1.00  0.00    -0.174 C  
BRANCH  15  18
HETATM   18  C   UNL     1      -9.395   4.801  69.322  1.00  0.00    -0.135 C  
BRANCH  18  19
HETATM   19  C   UNL     1      -8.758   3.975  68.185  1.00  0.00    -0.120 A  
HETATM   20  C   UNL     1      -9.173   2.656  67.934  1.00  0.00    -0.252 A  
HETATM   21  C   UNL     1      -7.774   4.534  67.348  1.00  0.00    -0.089 A  
HETATM   22  C   UNL     1      -8.640   1.933  66.861  1.00  0.00    -0.113 A  
HETATM   23  C   UNL     1      -7.240   3.808  66.283  1.00  0.00    -0.064 A  
HETATM   24  C   UNL     1      -7.679   2.511  66.034  1.00  0.00    -0.080 A  
ENDBRANCH  18  19
BRANCH  18  25
HETATM   25  C   UNL     1      -9.021   4.159  70.677  1.00  0.00    -0.153 A  
HETATM   26  C   UNL     1      -8.271   2.941  73.106  1.00  0.00    -0.071 A  
HETATM   27  C   UNL     1      -9.613   3.208  72.849  1.00  0.00    -0.158 A  
HETATM   28 CL   UNL     1      -7.819   2.128  74.553  1.00  0.00    -0.045 Cl 
HETATM   29  C   UNL     1      -7.666   3.929  70.985  1.00  0.00    -0.048 A  
HETATM   30  C   UNL     1      -9.980   3.830  71.650  1.00  0.00    -0.211 A  
HETATM   31  C   UNL     1      -7.295   3.318  72.184  1.00  0.00    -0.051 A  
ENDBRANCH  18  25
ENDBRANCH  15  18
ENDBRANCH  11  12
ENDBRANCH   8  11
ENDBRANCH   2   5
TORSDOF 6
ENDMDL
MODEL       90
REMARK 921   NORMALIZED FREE ENERGY PREDICTED BY IDOCK:   -4.64 KCAL/MOL
REMARK 922        TOTAL FREE ENERGY PREDICTED BY IDOCK:   -6.85 KCAL/MOL
REMARK 923 INTER-LIGAND FREE ENERGY PREDICTED BY IDOCK:   -6.66 KCAL/MOL
REMARK 924 INTRA-LIGAND FREE ENERGY PREDICTED BY IDOCK:   -0.19 KCAL/MOL
REMARK 927      BINDING AFFINITY PREDICTED BY RF-SCORE:    0.00 PKD
ROOT
HETATM    1  C   UNL     1      -7.398  17.400  66.215  1.00  0.00    -0.347 C  
HETATM    2  C   UNL     1      -8.660  17.052  67.034  1.00  0.00    -0.232 C  
HETATM    3  C   UNL     1      -9.860  17.722  66.319  1.00  0.00    -0.301 C  
HETATM    4  C   UNL     1      -8.496  17.710  68.424  1.00  0.00    -0.287 C  
ENDROOT
BRANCH   2   5
HETATM    5  C   UNL     1      -8.928  15.538  67.171  1.00  0.00    -0.232 A  
HETATM    6  C   UNL     1      -7.921  14.568  67.346  1.00  0.00    -0.221 A  
HETATM    7  C   UNL     1      -8.206  13.181  67.332  1.00  0.00    -0.187 A  
HETATM    8  C   UNL     1      -9.518  12.726  67.171  1.00  0.00    -0.223 A  
HETATM    9  C   UNL     1     -10.242  15.059  67.049  1.00  0.00    -0.257 A  
HETATM   10  C   UNL     1     -10.525  13.693  67.047  1.00  0.00    -0.270 A  
BRANCH   8  11
HETATM   11  C   UNL     1      -9.930  11.275  66.933  1.00  0.00    -0.207 C  
BRANCH  11  12
HETATM   12  N   UNL     1     -10.812  10.590  67.898  1.00  0.00    -0.260 NA 
HETATM   13  C   UNL     1     -10.901   9.135  67.685  1.00  0.00    -0.089 C  
HETATM   14  C   UNL     1      -9.763   8.218  68.241  1.00  0.00    -0.158 C  
HETATM   15  N   UNL     1      -8.970   8.639  69.426  1.00  0.00    -0.144 NA 
HETATM   16  C   UNL     1      -8.979  10.096  69.586  1.00  0.00    -0.169 C  
HETATM   17  C   UNL     1     -10.317  10.798  69.278  1.00  0.00    -0.205 C  
BRANCH  15  18
HETATM   18  C   UNL     1      -9.224   7.815  70.645  1.00  0.00    -0.161 C  
BRANCH  18  19
HETATM   19  C   UNL     1     -10.713   7.885  71.048  1.00  0.00    -0.239 A  
HETATM   20  C   UNL     1     -11.189   8.923  71.867  1.00  0.00    -0.447 A  
HETATM   21  C   UNL     1     -11.635   6.934  70.574  1.00  0.00    -0.396 A  
HETATM   22  C   UNL     1     -12.551   9.020  72.175  1.00  0.00    -0.461 A  
HETATM   23  C   UNL     1     -12.992   7.030  70.888  1.00  0.00    -0.115 A  
HETATM   24  C   UNL     1     -13.451   8.078  71.681  1.00  0.00    -0.375 A  
ENDBRANCH  18  19
BRANCH  18  25
HETATM   25  C   UNL     1      -8.799   6.333  70.561  1.00  0.00    -0.144 A  
HETATM   26  C   UNL     1      -8.045   3.626  70.319  1.00  0.00    -0.049 A  
HETATM   27  C   UNL     1      -8.646   4.077  71.491  1.00  0.00    -0.127 A  
HETATM   28 CL   UNL     1      -7.654   1.961  70.140  1.00  0.00    -0.042 Cl 
HETATM   29  C   UNL     1      -8.140   5.864  69.409  1.00  0.00    -0.109 A  
HETATM   30  C   UNL     1      -9.003   5.425  71.616  1.00  0.00    -0.147 A  
HETATM   31  C   UNL     1      -7.773   4.522  69.286  1.00  0.00    -0.055 A  
ENDBRANCH  18  25
ENDBRANCH  15  18
ENDBRANCH  11  12
ENDBRANCH   8  11
ENDBRANCH   2   5
TORSDOF 6
ENDMDL
MODEL       91
REMARK 921   NORMALIZED FREE ENERGY PREDICTED BY IDOCK:   -4.64 KCAL/MOL
REMARK 922        TOTAL FREE ENERGY PREDICTED BY IDOCK:   -6.84 KCAL/MOL
REMARK 923 INTER-LIGAND FREE ENERGY PREDICTED BY IDOCK:   -7.37 KCAL/MOL
REMARK 924 INTRA-LIGAND FREE ENERGY PREDICTED BY IDOCK:    0.53 KCAL/MOL
REMARK 927      BINDING AFFINITY PREDICTED BY RF-SCORE:    0.00 PKD
ROOT
HETATM    1  C   UNL     1      -9.455   4.806  70.879  1.00  0.00    -0.230 C  
HETATM    2  C   UNL     1     -10.012   5.608  69.681  1.00  0.00    -0.267 C  
HETATM    3  C   UNL     1     -11.398   6.152  70.110  1.00  0.00    -0.433 C  
HETATM    4  C   UNL     1     -10.222   4.606  68.523  1.00  0.00     0.002 C  
ENDROOT
BRANCH   2   5
HETATM    5  C   UNL     1      -9.118   6.785  69.236  1.00  0.00    -0.139 A  
HETATM    6  C   UNL     1      -9.143   7.356  67.948  1.00  0.00    -0.129 A  
HETATM    7  C   UNL     1      -8.210   8.344  67.549  1.00  0.00    -0.125 A  
HETATM    8  C   UNL     1      -7.242   8.811  68.441  1.00  0.00    -0.081 A  
HETATM    9  C   UNL     1      -8.161   7.296  70.128  1.00  0.00    -0.129 A  
HETATM   10  C   UNL     1      -7.250   8.277  69.738  1.00  0.00    -0.060 A  
BRANCH   8  11
HETATM   11  C   UNL     1      -6.062   9.710  68.080  1.00  0.00    -0.051 C  
BRANCH  11  12
HETATM   12  N   UNL     1      -6.196  11.177  68.169  1.00  0.00    -0.049 NA 
HETATM   13  C   UNL     1      -6.658  11.804  66.918  1.00  0.00    -0.114 C  
HETATM   14  C   UNL     1      -8.186  11.794  66.585  1.00  0.00    -0.117 C  
HETATM   15  N   UNL     1      -9.192  11.741  67.678  1.00  0.00    -0.176 NA 
HETATM   16  C   UNL     1      -8.631  11.148  68.895  1.00  0.00    -0.087 C  
HETATM   17  C   UNL     1      -7.175  11.537  69.221  1.00  0.00    -0.048 C  
BRANCH  15  18
HETATM   18  C   UNL     1      -9.982  12.999  67.831  1.00  0.00    -0.230 C  
BRANCH  18  19
HETATM   19  C   UNL     1     -10.803  13.284  66.555  1.00  0.00    -0.288 A  
HETATM   20  C   UNL     1     -11.488  12.250  65.894  1.00  0.00    -0.428 A  
HETATM   21  C   UNL     1     -10.917  14.591  66.045  1.00  0.00    -0.324 A  
HETATM   22  C   UNL     1     -12.284  12.524  64.777  1.00  0.00    -0.532 A  
HETATM   23  C   UNL     1     -11.707  14.859  64.927  1.00  0.00    -0.371 A  
HETATM   24  C   UNL     1     -12.398  13.827  64.297  1.00  0.00    -0.384 A  
ENDBRANCH  18  19
BRANCH  18  25
HETATM   25  C   UNL     1     -10.924  13.062  69.055  1.00  0.00    -0.242 A  
HETATM   26  C   UNL     1     -12.690  13.108  71.252  1.00  0.00    -0.306 A  
HETATM   27  C   UNL     1     -12.142  14.296  70.777  1.00  0.00    -0.418 A  
HETATM   28 CL   UNL     1     -13.827  13.142  72.542  1.00  0.00    -0.617 Cl 
HETATM   29  C   UNL     1     -11.448  11.869  69.589  1.00  0.00    -0.337 A  
HETATM   30  C   UNL     1     -11.251  14.269  69.698  1.00  0.00    -0.256 A  
HETATM   31  C   UNL     1     -12.329  11.893  70.672  1.00  0.00    -0.405 A  
ENDBRANCH  18  25
ENDBRANCH  15  18
ENDBRANCH  11  12
ENDBRANCH   8  11
ENDBRANCH   2   5
TORSDOF 6
ENDMDL
MODEL       92
REMARK 921   NORMALIZED FREE ENERGY PREDICTED BY IDOCK:   -4.62 KCAL/MOL
REMARK 922        TOTAL FREE ENERGY PREDICTED BY IDOCK:   -6.82 KCAL/MOL
REMARK 923 INTER-LIGAND FREE ENERGY PREDICTED BY IDOCK:   -5.92 KCAL/MOL
REMARK 924 INTRA-LIGAND FREE ENERGY PREDICTED BY IDOCK:   -0.90 KCAL/MOL
REMARK 927      BINDING AFFINITY PREDICTED BY RF-SCORE:    0.00 PKD
ROOT
HETATM    1  C   UNL     1     -12.563  13.305  66.107  1.00  0.00    -0.208 C  
HETATM    2  C   UNL     1     -11.610  13.108  64.906  1.00  0.00    -0.356 C  
HETATM    3  C   UNL     1     -11.272  14.519  64.363  1.00  0.00    -0.208 C  
HETATM    4  C   UNL     1     -12.403  12.348  63.818  1.00  0.00    -0.625 C  
ENDROOT
BRANCH   2   5
HETATM    5  C   UNL     1     -10.301  12.367  65.252  1.00  0.00    -0.308 A  
HETATM    6  C   UNL     1      -9.810  11.254  64.541  1.00  0.00    -0.317 A  
HETATM    7  C   UNL     1      -8.675  10.527  64.977  1.00  0.00    -0.193 A  
HETATM    8  C   UNL     1      -7.982  10.915  66.127  1.00  0.00    -0.155 A  
HETATM    9  C   UNL     1      -9.567  12.760  66.382  1.00  0.00    -0.254 A  
HETATM   10  C   UNL     1      -8.443  12.052  66.806  1.00  0.00    -0.155 A  
BRANCH   8  11
HETATM   11  C   UNL     1      -6.883  10.108  66.814  1.00  0.00    -0.086 C  
BRANCH  11  12
HETATM   12  N   UNL     1      -7.058   8.659  67.036  1.00  0.00    -0.074 NA 
HETATM   13  C   UNL     1      -6.131   8.099  68.034  1.00  0.00    -0.047 C  
HETATM   14  C   UNL     1      -6.467   8.260  69.553  1.00  0.00    -0.037 C  
HETATM   15  N   UNL     1      -7.879   8.393  70.000  1.00  0.00    -0.100 NA 
HETATM   16  C   UNL     1      -8.735   8.910  68.929  1.00  0.00    -0.136 C  
HETATM   17  C   UNL     1      -8.432   8.379  67.513  1.00  0.00    -0.129 C  
BRANCH  15  18
HETATM   18  C   UNL     1      -8.381   7.214  70.768  1.00  0.00    -0.128 C  
BRANCH  18  19
HETATM   19  C   UNL     1      -7.596   7.050  72.087  1.00  0.00    -0.091 A  
HETATM   20  C   UNL     1      -6.846   8.114  72.615  1.00  0.00    -0.099 A  
HETATM   21  C   UNL     1      -7.644   5.844  72.811  1.00  0.00    -0.096 A  
HETATM   22  C   UNL     1      -6.189   7.983  73.844  1.00  0.00    -0.099 A  
HETATM   23  C   UNL     1      -6.983   5.714  74.034  1.00  0.00    -0.082 A  
HETATM   24  C   UNL     1      -6.263   6.786  74.554  1.00  0.00    -0.076 A  
ENDBRANCH  18  19
BRANCH  18  25
HETATM   25  C   UNL     1      -9.893   7.207  71.083  1.00  0.00    -0.180 A  
HETATM   26  C   UNL     1     -12.635   7.216  71.744  1.00  0.00    -0.346 A  
HETATM   27  C   UNL     1     -12.145   6.289  70.828  1.00  0.00     0.006 A  
HETATM   28 CL   UNL     1     -14.291   7.174  72.207  1.00  0.00    -0.228 Cl 
HETATM   29  C   UNL     1     -10.424   8.168  71.964  1.00  0.00    -0.329 A  
HETATM   30  C   UNL     1     -10.787   6.299  70.488  1.00  0.00    -0.348 A  
HETATM   31  C   UNL     1     -11.780   8.168  72.298  1.00  0.00    -0.439 A  
ENDBRANCH  18  25
ENDBRANCH  15  18
ENDBRANCH  11  12
ENDBRANCH   8  11
ENDBRANCH   2   5
TORSDOF 6
ENDMDL
MODEL       93
REMARK 921   NORMALIZED FREE ENERGY PREDICTED BY IDOCK:   -4.54 KCAL/MOL
REMARK 922        TOTAL FREE ENERGY PREDICTED BY IDOCK:   -6.71 KCAL/MOL
REMARK 923 INTER-LIGAND FREE ENERGY PREDICTED BY IDOCK:   -6.67 KCAL/MOL
REMARK 924 INTRA-LIGAND FREE ENERGY PREDICTED BY IDOCK:   -0.04 KCAL/MOL
REMARK 927      BINDING AFFINITY PREDICTED BY RF-SCORE:    0.00 PKD
ROOT
HETATM    1  C   UNL     1     -10.169  18.188  68.455  1.00  0.00    -0.401 C  
HETATM    2  C   UNL     1      -9.576  17.492  67.208  1.00  0.00    -0.273 C  
HETATM    3  C   UNL     1      -8.195  18.144  66.944  1.00  0.00    -0.258 C  
HETATM    4  C   UNL     1     -10.505  17.826  66.018  1.00  0.00    -0.286 C  
ENDROOT
BRANCH   2   5
HETATM    5  C   UNL     1      -9.400  15.966  67.359  1.00  0.00    -0.214 A  
HETATM    6  C   UNL     1      -8.647  15.353  68.380  1.00  0.00    -0.162 A  
HETATM    7  C   UNL     1      -8.406  13.957  68.398  1.00  0.00    -0.157 A  
HETATM    8  C   UNL     1      -8.939  13.131  67.404  1.00  0.00    -0.201 A  
HETATM    9  C   UNL     1      -9.956  15.113  66.393  1.00  0.00    -0.288 A  
HETATM   10  C   UNL     1      -9.729  13.737  66.416  1.00  0.00    -0.304 A  
BRANCH   8  11
HETATM   11  C   UNL     1      -8.588  11.661  67.192  1.00  0.00    -0.164 C  
BRANCH  11  12
HETATM   12  N   UNL     1      -8.745  10.696  68.297  1.00  0.00    -0.129 NA 
HETATM   13  C   UNL     1     -10.147  10.472  68.691  1.00  0.00    -0.180 C  
HETATM   14  C   UNL     1     -11.020   9.483  67.850  1.00  0.00    -0.110 C  
HETATM   15  N   UNL     1     -10.383   8.366  67.105  1.00  0.00    -0.290 NA 
HETATM   16  C   UNL     1      -8.978   8.656  66.800  1.00  0.00    -0.141 C  
HETATM   17  C   UNL     1      -8.187   9.380  67.909  1.00  0.00    -0.115 C  
BRANCH  15  18
HETATM   18  C   UNL     1     -10.697   7.015  67.658  1.00  0.00    -0.261 C  
BRANCH  18  19
HETATM   19  C   UNL     1      -9.844   5.932  66.965  1.00  0.00    -0.173 A  
HETATM   20  C   UNL     1      -8.467   5.825  67.224  1.00  0.00    -0.107 A  
HETATM   21  C   UNL     1     -10.431   5.001  66.087  1.00  0.00    -0.334 A  
HETATM   22  C   UNL     1      -7.710   4.801  66.645  1.00  0.00    -0.095 A  
HETATM   23  C   UNL     1      -9.671   3.984  65.506  1.00  0.00    -0.194 A  
HETATM   24  C   UNL     1      -8.313   3.879  65.792  1.00  0.00    -0.109 A  
ENDBRANCH  18  19
BRANCH  18  25
HETATM   25  C   UNL     1     -10.553   6.860  69.189  1.00  0.00    -0.245 A  
HETATM   26  C   UNL     1     -10.361   6.636  71.993  1.00  0.00    -0.197 A  
HETATM   27  C   UNL     1      -9.206   6.622  71.215  1.00  0.00    -0.155 A  
HETATM   28 CL   UNL     1     -10.241   6.576  73.708  1.00  0.00    -0.291 Cl 
HETATM   29  C   UNL     1     -11.707   6.816  69.994  1.00  0.00    -0.330 A  
HETATM   30  C   UNL     1      -9.306   6.715  69.822  1.00  0.00    -0.145 A  
HETATM   31  C   UNL     1     -11.612   6.713  71.383  1.00  0.00    -0.362 A  
ENDBRANCH  18  25
ENDBRANCH  15  18
ENDBRANCH  11  12
ENDBRANCH   8  11
ENDBRANCH   2   5
TORSDOF 6
ENDMDL
MODEL       94
REMARK 921   NORMALIZED FREE ENERGY PREDICTED BY IDOCK:   -4.50 KCAL/MOL
REMARK 922        TOTAL FREE ENERGY PREDICTED BY IDOCK:   -6.66 KCAL/MOL
REMARK 923 INTER-LIGAND FREE ENERGY PREDICTED BY IDOCK:   -6.77 KCAL/MOL
REMARK 924 INTRA-LIGAND FREE ENERGY PREDICTED BY IDOCK:    0.11 KCAL/MOL
REMARK 927      BINDING AFFINITY PREDICTED BY RF-SCORE:    0.00 PKD
ROOT
HETATM    1  C   UNL     1      -5.931   3.646  68.651  1.00  0.00    -0.024 C  
HETATM    2  C   UNL     1      -7.022   4.616  69.158  1.00  0.00    -0.051 C  
HETATM    3  C   UNL     1      -6.425   5.369  70.374  1.00  0.00    -0.034 C  
HETATM    4  C   UNL     1      -8.202   3.750  69.656  1.00  0.00    -0.068 C  
ENDROOT
BRANCH   2   5
HETATM    5  C   UNL     1      -7.496   5.641  68.106  1.00  0.00    -0.074 A  
HETATM    6  C   UNL     1      -6.631   6.425  67.317  1.00  0.00    -0.058 A  
HETATM    7  C   UNL     1      -7.114   7.445  66.462  1.00  0.00    -0.074 A  
HETATM    8  C   UNL     1      -8.485   7.690  66.351  1.00  0.00    -0.137 A  
HETATM    9  C   UNL     1      -8.871   5.879  67.950  1.00  0.00    -0.105 A  
HETATM   10  C   UNL     1      -9.348   6.876  67.100  1.00  0.00    -0.162 A  
BRANCH   8  11
HETATM   11  C   UNL     1      -9.119   8.880  65.635  1.00  0.00    -0.212 C  
BRANCH  11  12
HETATM   12  N   UNL     1      -8.768  10.256  66.036  1.00  0.00    -0.146 NA 
HETATM   13  C   UNL     1      -9.347  11.290  65.161  1.00  0.00    -0.189 C  
HETATM   14  C   UNL     1     -10.834  11.722  65.381  1.00  0.00    -0.295 C  
HETATM   15  N   UNL     1     -11.460  11.603  66.723  1.00  0.00    -0.481 NA 
HETATM   16  C   UNL     1     -10.789  10.587  67.540  1.00  0.00    -0.301 C  
HETATM   17  C   UNL     1      -9.254  10.527  67.409  1.00  0.00    -0.142 C  
BRANCH  15  18
HETATM   18  C   UNL     1     -11.753  12.917  67.371  1.00  0.00    -0.372 C  
BRANCH  18  19
HETATM   19  C   UNL     1     -12.028  12.730  68.878  1.00  0.00    -0.286 A  
HETATM   20  C   UNL     1     -12.165  13.840  69.729  1.00  0.00    -0.368 A  
HETATM   21  C   UNL     1     -12.188  11.444  69.430  1.00  0.00    -0.288 A  
HETATM   22  C   UNL     1     -12.480  13.668  71.081  1.00  0.00    -0.442 A  
HETATM   23  C   UNL     1     -12.496  11.276  70.781  1.00  0.00    -0.471 A  
HETATM   24  C   UNL     1     -12.651  12.388  71.604  1.00  0.00    -0.190 A  
ENDBRANCH  18  19
BRANCH  18  25
HETATM   25  C   UNL     1     -10.679  14.013  67.193  1.00  0.00    -0.283 A  
HETATM   26  C   UNL     1      -8.692  16.000  66.952  1.00  0.00    -0.229 A  
HETATM   27  C   UNL     1      -9.917  16.161  66.310  1.00  0.00    -0.336 A  
HETATM   28 CL   UNL     1      -7.509  17.245  66.871  1.00  0.00    -0.221 Cl 
HETATM   29  C   UNL     1      -9.413  13.849  67.787  1.00  0.00    -0.214 A  
HETATM   30  C   UNL     1     -10.895  15.165  66.415  1.00  0.00    -0.326 A  
HETATM   31  C   UNL     1      -8.432  14.836  67.674  1.00  0.00    -0.185 A  
ENDBRANCH  18  25
ENDBRANCH  15  18
ENDBRANCH  11  12
ENDBRANCH   8  11
ENDBRANCH   2   5
TORSDOF 6
ENDMDL
MODEL       95
REMARK 921   NORMALIZED FREE ENERGY PREDICTED BY IDOCK:   -4.48 KCAL/MOL
REMARK 922        TOTAL FREE ENERGY PREDICTED BY IDOCK:   -6.62 KCAL/MOL
REMARK 923 INTER-LIGAND FREE ENERGY PREDICTED BY IDOCK:   -6.58 KCAL/MOL
REMARK 924 INTRA-LIGAND FREE ENERGY PREDICTED BY IDOCK:   -0.04 KCAL/MOL
REMARK 927      BINDING AFFINITY PREDICTED BY RF-SCORE:    0.00 PKD
ROOT
HETATM    1  C   UNL     1     -10.372  17.014  67.603  1.00  0.00    -0.332 C  
HETATM    2  C   UNL     1      -9.920  15.880  66.655  1.00  0.00    -0.267 C  
HETATM    3  C   UNL     1      -8.397  16.060  66.432  1.00  0.00    -0.344 C  
HETATM    4  C   UNL     1     -10.638  16.104  65.304  1.00  0.00    -0.390 C  
ENDROOT
BRANCH   2   5
HETATM    5  C   UNL     1     -10.192  14.459  67.193  1.00  0.00    -0.257 A  
HETATM    6  C   UNL     1     -11.479  13.924  67.402  1.00  0.00    -0.374 A  
HETATM    7  C   UNL     1     -11.676  12.666  68.022  1.00  0.00    -0.402 A  
HETATM    8  C   UNL     1     -10.584  11.893  68.426  1.00  0.00    -0.239 A  
HETATM    9  C   UNL     1      -9.110  13.649  67.573  1.00  0.00    -0.213 A  
HETATM   10  C   UNL     1      -9.303  12.405  68.173  1.00  0.00    -0.209 A  
BRANCH   8  11
HETATM   11  C   UNL     1     -10.659  10.631  69.282  1.00  0.00    -0.233 C  
BRANCH  11  12
HETATM   12  N   UNL     1     -10.902   9.321  68.648  1.00  0.00    -0.136 NA 
HETATM   13  C   UNL     1      -9.992   9.031  67.525  1.00  0.00    -0.207 C  
HETATM   14  C   UNL     1      -8.557   8.492  67.834  1.00  0.00    -0.134 C  
HETATM   15  N   UNL     1      -8.295   7.724  69.079  1.00  0.00    -0.130 NA 
HETATM   16  C   UNL     1      -9.276   8.040  70.121  1.00  0.00    -0.152 C  
HETATM   17  C   UNL     1     -10.728   8.235  69.640  1.00  0.00    -0.194 C  
BRANCH  15  18
HETATM   18  C   UNL     1      -7.988   6.281  68.844  1.00  0.00    -0.109 C  
BRANCH  18  19
HETATM   19  C   UNL     1      -8.371   5.436  70.077  1.00  0.00    -0.107 A  
HETATM   20  C   UNL     1      -9.414   4.496  70.010  1.00  0.00    -0.247 A  
HETATM   21  C   UNL     1      -7.662   5.559  71.287  1.00  0.00    -0.108 A  
HETATM   22  C   UNL     1      -9.714   3.686  71.110  1.00  0.00    -0.245 A  
HETATM   23  C   UNL     1      -7.968   4.753  72.384  1.00  0.00    -0.099 A  
HETATM   24  C   UNL     1      -8.989   3.811  72.293  1.00  0.00    -0.136 A  
ENDBRANCH  18  19
BRANCH  18  25
HETATM   25  C   UNL     1      -8.628   5.650  67.587  1.00  0.00    -0.108 A  
HETATM   26  C   UNL     1      -9.863   4.464  65.347  1.00  0.00    -0.210 A  
HETATM   27  C   UNL     1      -8.474   4.523  65.424  1.00  0.00    -0.123 A  
HETATM   28 CL   UNL     1     -10.617   3.673  64.019  1.00  0.00    -0.275 Cl 
HETATM   29  C   UNL     1     -10.030   5.627  67.459  1.00  0.00    -0.180 A  
HETATM   30  C   UNL     1      -7.864   5.128  66.528  1.00  0.00    -0.103 A  
HETATM   31  C   UNL     1     -10.642   5.032  66.354  1.00  0.00    -0.317 A  
ENDBRANCH  18  25
ENDBRANCH  15  18
ENDBRANCH  11  12
ENDBRANCH   8  11
ENDBRANCH   2   5
TORSDOF 6
ENDMDL
MODEL       96
REMARK 921   NORMALIZED FREE ENERGY PREDICTED BY IDOCK:   -4.47 KCAL/MOL
REMARK 922        TOTAL FREE ENERGY PREDICTED BY IDOCK:   -6.62 KCAL/MOL
REMARK 923 INTER-LIGAND FREE ENERGY PREDICTED BY IDOCK:   -6.02 KCAL/MOL
REMARK 924 INTRA-LIGAND FREE ENERGY PREDICTED BY IDOCK:   -0.59 KCAL/MOL
REMARK 927      BINDING AFFINITY PREDICTED BY RF-SCORE:    0.00 PKD
ROOT
HETATM    1  C   UNL     1      -6.168  17.275  67.690  1.00  0.00    -0.165 C  
HETATM    2  C   UNL     1      -7.556  17.671  67.138  1.00  0.00    -0.227 C  
HETATM    3  C   UNL     1      -7.315  18.382  65.783  1.00  0.00    -0.176 C  
HETATM    4  C   UNL     1      -8.160  18.698  68.124  1.00  0.00    -0.318 C  
ENDROOT
BRANCH   2   5
HETATM    5  C   UNL     1      -8.516  16.480  66.927  1.00  0.00    -0.244 A  
HETATM    6  C   UNL     1      -9.920  16.593  66.884  1.00  0.00    -0.272 A  
HETATM    7  C   UNL     1     -10.762  15.456  66.821  1.00  0.00    -0.310 A  
HETATM    8  C   UNL     1     -10.217  14.170  66.771  1.00  0.00    -0.262 A  
HETATM    9  C   UNL     1      -7.990  15.182  66.836  1.00  0.00    -0.155 A  
HETATM   10  C   UNL     1      -8.818  14.062  66.763  1.00  0.00    -0.178 A  
BRANCH   8  11
HETATM   11  C   UNL     1     -11.001  12.868  66.909  1.00  0.00    -0.266 C  
BRANCH  11  12
HETATM   12  N   UNL     1     -11.647  12.526  68.191  1.00  0.00    -0.319 NA 
HETATM   13  C   UNL     1     -12.154  11.144  68.246  1.00  0.00     0.062 C  
HETATM   14  C   UNL     1     -11.156   9.983  68.565  1.00  0.00    -0.167 C  
HETATM   15  N   UNL     1      -9.934  10.243  69.369  1.00  0.00    -0.225 NA 
HETATM   16  C   UNL     1      -9.531  11.651  69.294  1.00  0.00     0.445 C  
HETATM   17  C   UNL     1     -10.681  12.679  69.304  1.00  0.00     0.081 C  
BRANCH  15  18
HETATM   18  C   UNL     1      -9.955   9.609  70.721  1.00  0.00    -0.189 C  
BRANCH  18  19
HETATM   19  C   UNL     1     -11.378   9.122  71.070  1.00  0.00    -0.377 A  
HETATM   20  C   UNL     1     -12.356  10.023  71.525  1.00  0.00    -0.513 A  
HETATM   21  C   UNL     1     -11.741   7.772  70.905  1.00  0.00    -0.281 A  
HETATM   22  C   UNL     1     -13.662   9.590  71.777  1.00  0.00    -0.385 A  
HETATM   23  C   UNL     1     -13.043   7.342  71.163  1.00  0.00    -0.276 A  
HETATM   24  C   UNL     1     -14.006   8.252  71.591  1.00  0.00    -0.461 A  
ENDBRANCH  18  19
BRANCH  18  25
HETATM   25  C   UNL     1      -8.962   8.446  70.939  1.00  0.00    -0.188 A  
HETATM   26  C   UNL     1      -7.106   6.374  71.400  1.00  0.00    -0.077 A  
HETATM   27  C   UNL     1      -7.603   6.588  70.117  1.00  0.00    -0.096 A  
HETATM   28 CL   UNL     1      -5.917   5.161  71.669  1.00  0.00    -0.023 Cl 
HETATM   29  C   UNL     1      -8.487   8.173  72.236  1.00  0.00    -0.227 A  
HETATM   30  C   UNL     1      -8.538   7.606  69.894  1.00  0.00    -0.138 A  
HETATM   31  C   UNL     1      -7.562   7.152  72.463  1.00  0.00    -0.089 A  
ENDBRANCH  18  25
ENDBRANCH  15  18
ENDBRANCH  11  12
ENDBRANCH   8  11
ENDBRANCH   2   5
TORSDOF 6
ENDMDL
MODEL       97
REMARK 921   NORMALIZED FREE ENERGY PREDICTED BY IDOCK:   -4.47 KCAL/MOL
REMARK 922        TOTAL FREE ENERGY PREDICTED BY IDOCK:   -6.61 KCAL/MOL
REMARK 923 INTER-LIGAND FREE ENERGY PREDICTED BY IDOCK:   -5.44 KCAL/MOL
REMARK 924 INTRA-LIGAND FREE ENERGY PREDICTED BY IDOCK:   -1.17 KCAL/MOL
REMARK 927      BINDING AFFINITY PREDICTED BY RF-SCORE:    0.00 PKD
ROOT
HETATM    1  C   UNL     1      -6.110   4.067  67.363  1.00  0.00    -0.028 C  
HETATM    2  C   UNL     1      -7.374   4.817  67.841  1.00  0.00    -0.070 C  
HETATM    3  C   UNL     1      -7.994   3.972  68.983  1.00  0.00    -0.057 C  
HETATM    4  C   UNL     1      -8.367   4.834  66.657  1.00  0.00    -0.106 C  
ENDROOT
BRANCH   2   5
HETATM    5  C   UNL     1      -7.104   6.248  68.354  1.00  0.00    -0.083 A  
HETATM    6  C   UNL     1      -8.103   7.117  68.837  1.00  0.00    -0.121 A  
HETATM    7  C   UNL     1      -7.825   8.465  69.171  1.00  0.00    -0.105 A  
HETATM    8  C   UNL     1      -6.528   8.973  69.058  1.00  0.00    -0.047 A  
HETATM    9  C   UNL     1      -5.802   6.768  68.285  1.00  0.00    -0.017 A  
HETATM   10  C   UNL     1      -5.526   8.092  68.624  1.00  0.00    -0.032 A  
BRANCH   8  11
HETATM   11  C   UNL     1      -6.137  10.443  69.185  1.00  0.00    -0.037 C  
BRANCH  11  12
HETATM   12  N   UNL     1      -5.895  11.251  67.974  1.00  0.00    -0.042 NA 
HETATM   13  C   UNL     1      -6.855  10.988  66.888  1.00  0.00    -0.121 C  
HETATM   14  C   UNL     1      -8.258  11.678  66.934  1.00  0.00    -0.169 C  
HETATM   15  N   UNL     1      -8.434  12.975  67.638  1.00  0.00    -0.173 NA 
HETATM   16  C   UNL     1      -7.408  13.172  68.665  1.00  0.00    -0.102 C  
HETATM   17  C   UNL     1      -5.989  12.694  68.297  1.00  0.00    -0.068 C  
BRANCH  15  18
HETATM   18  C   UNL     1      -8.717  14.122  66.725  1.00  0.00    -0.123 C  
BRANCH  18  19
HETATM   19  C   UNL     1     -10.163  14.048  66.190  1.00  0.00    -0.308 A  
HETATM   20  C   UNL     1     -11.193  13.502  66.974  1.00  0.00    -0.330 A  
HETATM   21  C   UNL     1     -10.492  14.560  64.921  1.00  0.00    -0.435 A  
HETATM   22  C   UNL     1     -12.514  13.496  66.513  1.00  0.00    -0.309 A  
HETATM   23  C   UNL     1     -11.810  14.548  64.461  1.00  0.00    -0.459 A  
HETATM   24  C   UNL     1     -12.822  14.024  65.261  1.00  0.00    -0.418 A  
ENDBRANCH  18  19
BRANCH  18  25
HETATM   25  C   UNL     1      -8.473  15.530  67.312  1.00  0.00    -0.216 A  
HETATM   26  C   UNL     1      -8.119  18.111  68.391  1.00  0.00    -0.303 A  
HETATM   27  C   UNL     1      -7.252  17.645  67.407  1.00  0.00    -0.198 A  
HETATM   28 CL   UNL     1      -7.952  19.713  68.996  1.00  0.00    -0.318 Cl 
HETATM   29  C   UNL     1      -9.302  16.004  68.347  1.00  0.00    -0.207 A  
HETATM   30  C   UNL     1      -7.418  16.357  66.886  1.00  0.00    -0.269 A  
HETATM   31  C   UNL     1      -9.132  17.284  68.876  1.00  0.00    -0.172 A  
ENDBRANCH  18  25
ENDBRANCH  15  18
ENDBRANCH  11  12
ENDBRANCH   8  11
ENDBRANCH   2   5
TORSDOF 6
ENDMDL
MODEL       98
REMARK 921   NORMALIZED FREE ENERGY PREDICTED BY IDOCK:   -4.44 KCAL/MOL
REMARK 922        TOTAL FREE ENERGY PREDICTED BY IDOCK:   -6.57 KCAL/MOL
REMARK 923 INTER-LIGAND FREE ENERGY PREDICTED BY IDOCK:   -6.20 KCAL/MOL
REMARK 924 INTRA-LIGAND FREE ENERGY PREDICTED BY IDOCK:   -0.37 KCAL/MOL
REMARK 927      BINDING AFFINITY PREDICTED BY RF-SCORE:    0.00 PKD
ROOT
HETATM    1  C   UNL     1     -11.558  15.132  67.322  1.00  0.00    -0.231 C  
HETATM    2  C   UNL     1     -11.366  14.292  66.039  1.00  0.00    -0.335 C  
HETATM    3  C   UNL     1     -10.762  15.236  64.969  1.00  0.00    -0.461 C  
HETATM    4  C   UNL     1     -12.773  13.860  65.564  1.00  0.00    -0.536 C  
ENDROOT
BRANCH   2   5
HETATM    5  C   UNL     1     -10.446  13.066  66.216  1.00  0.00    -0.285 A  
HETATM    6  C   UNL     1      -9.268  13.065  66.990  1.00  0.00    -0.232 A  
HETATM    7  C   UNL     1      -8.388  11.956  67.014  1.00  0.00    -0.178 A  
HETATM    8  C   UNL     1      -8.679  10.801  66.284  1.00  0.00    -0.175 A  
HETATM    9  C   UNL     1     -10.737  11.881  65.521  1.00  0.00    -0.329 A  
HETATM   10  C   UNL     1      -9.877  10.784  65.554  1.00  0.00    -0.309 A  
BRANCH   8  11
HETATM   11  C   UNL     1      -7.727   9.629  66.060  1.00  0.00    -0.102 C  
BRANCH  11  12
HETATM   12  N   UNL     1      -7.575   8.591  67.098  1.00  0.00    -0.095 NA 
HETATM   13  C   UNL     1      -8.708   8.525  68.037  1.00  0.00    -0.142 C  
HETATM   14  C   UNL     1     -10.000   7.753  67.611  1.00  0.00    -0.178 C  
HETATM   15  N   UNL     1      -9.920   6.638  66.632  1.00  0.00    -0.165 NA 
HETATM   16  C   UNL     1      -8.737   6.760  65.775  1.00  0.00    -0.110 C  
HETATM   17  C   UNL     1      -7.453   7.255  66.470  1.00  0.00    -0.088 C  
BRANCH  15  18
HETATM   18  C   UNL     1     -10.199   5.295  67.224  1.00  0.00    -0.206 C  
BRANCH  18  19
HETATM   19  C   UNL     1      -9.856   4.176  66.219  1.00  0.00    -0.208 A  
HETATM   20  C   UNL     1      -9.013   3.113  66.584  1.00  0.00    -0.168 A  
HETATM   21  C   UNL     1     -10.409   4.172  64.924  1.00  0.00    -0.210 A  
HETATM   22  C   UNL     1      -8.757   2.066  65.692  1.00  0.00    -0.119 A  
HETATM   23  C   UNL     1     -10.147   3.130  64.034  1.00  0.00    -0.175 A  
HETATM   24  C   UNL     1      -9.328   2.073  64.421  1.00  0.00    -0.132 A  
ENDBRANCH  18  19
BRANCH  18  25
HETATM   25  C   UNL     1      -9.502   4.990  68.568  1.00  0.00    -0.185 A  
HETATM   26  C   UNL     1      -8.288   4.488  71.064  1.00  0.00    -0.093 A  
HETATM   27  C   UNL     1      -7.507   4.558  69.913  1.00  0.00    -0.050 A  
HETATM   28 CL   UNL     1      -7.542   4.259  72.596  1.00  0.00    -0.077 Cl 
HETATM   29  C   UNL     1     -10.275   4.860  69.738  1.00  0.00    -0.284 A  
HETATM   30  C   UNL     1      -8.114   4.789  68.674  1.00  0.00    -0.083 A  
HETATM   31  C   UNL     1      -9.674   4.619  70.975  1.00  0.00    -0.258 A  
ENDBRANCH  18  25
ENDBRANCH  15  18
ENDBRANCH  11  12
ENDBRANCH   8  11
ENDBRANCH   2   5
TORSDOF 6
ENDMDL
MODEL       99
REMARK 921   NORMALIZED FREE ENERGY PREDICTED BY IDOCK:   -4.38 KCAL/MOL
REMARK 922        TOTAL FREE ENERGY PREDICTED BY IDOCK:   -6.50 KCAL/MOL
REMARK 923 INTER-LIGAND FREE ENERGY PREDICTED BY IDOCK:   -6.63 KCAL/MOL
REMARK 924 INTRA-LIGAND FREE ENERGY PREDICTED BY IDOCK:    0.13 KCAL/MOL
REMARK 927      BINDING AFFINITY PREDICTED BY RF-SCORE:    0.00 PKD
ROOT
HETATM    1  C   UNL     1      -8.255  19.797  66.964  1.00  0.00    -0.340 C  
HETATM    2  C   UNL     1      -9.730  19.349  67.072  1.00  0.00    -0.425 C  
HETATM    3  C   UNL     1     -10.465  19.918  65.833  1.00  0.00    -0.567 C  
HETATM    4  C   UNL     1     -10.318  20.021  68.335  1.00  0.00    -0.465 C  
ENDROOT
BRANCH   2   5
HETATM    5  C   UNL     1      -9.925  17.818  67.123  1.00  0.00    -0.322 A  
HETATM    6  C   UNL     1      -9.675  16.952  66.039  1.00  0.00    -0.260 A  
HETATM    7  C   UNL     1      -9.995  15.573  66.093  1.00  0.00    -0.332 A  
HETATM    8  C   UNL     1     -10.549  15.017  67.249  1.00  0.00    -0.279 A  
HETATM    9  C   UNL     1     -10.446  17.230  68.286  1.00  0.00    -0.385 A  
HETATM   10  C   UNL     1     -10.751  15.871  68.344  1.00  0.00    -0.281 A  
BRANCH   8  11
HETATM   11  C   UNL     1     -11.125  13.608  67.367  1.00  0.00    -0.282 C  
BRANCH  11  12
HETATM   12  N   UNL     1     -10.530  12.642  68.310  1.00  0.00    -0.233 NA 
HETATM   13  C   UNL     1     -10.985  11.257  68.101  1.00  0.00    -0.231 C  
HETATM   14  C   UNL     1     -10.317  10.402  66.975  1.00  0.00    -0.240 C  
HETATM   15  N   UNL     1      -8.922  10.683  66.545  1.00  0.00    -0.153 NA 
HETATM   16  C   UNL     1      -8.541  12.069  66.836  1.00  0.00    -0.189 C  
HETATM   17  C   UNL     1      -9.054  12.640  68.173  1.00  0.00    -0.204 C  
BRANCH  15  18
HETATM   18  C   UNL     1      -7.949   9.613  66.918  1.00  0.00    -0.105 C  
BRANCH  18  19
HETATM   19  C   UNL     1      -7.399   9.851  68.340  1.00  0.00    -0.078 A  
HETATM   20  C   UNL     1      -8.103   9.398  69.469  1.00  0.00    -0.114 A  
HETATM   21  C   UNL     1      -6.162  10.492  68.540  1.00  0.00    -0.046 A  
HETATM   22  C   UNL     1      -7.569   9.556  70.753  1.00  0.00    -0.099 A  
HETATM   23  C   UNL     1      -5.635  10.654  69.822  1.00  0.00    -0.043 A  
HETATM   24  C   UNL     1      -6.335  10.179  70.928  1.00  0.00     0.002 A  
ENDBRANCH  18  19
BRANCH  18  25
HETATM   25  C   UNL     1      -8.469   8.162  66.819  1.00  0.00    -0.123 A  
HETATM   26  C   UNL     1      -9.338   5.488  66.600  1.00  0.00    -0.141 A  
HETATM   27  C   UNL     1     -10.247   6.530  66.434  1.00  0.00    -0.039 A  
HETATM   28 CL   UNL     1      -9.849   3.860  66.391  1.00  0.00    -0.182 Cl 
HETATM   29  C   UNL     1      -7.581   7.090  67.037  1.00  0.00    -0.102 A  
HETATM   30  C   UNL     1      -9.817   7.855  66.561  1.00  0.00    -0.272 A  
HETATM   31  C   UNL     1      -8.010   5.767  66.921  1.00  0.00    -0.102 A  
ENDBRANCH  18  25
ENDBRANCH  15  18
ENDBRANCH  11  12
ENDBRANCH   8  11
ENDBRANCH   2   5
TORSDOF 6
ENDMDL
MODEL      100
REMARK 921   NORMALIZED FREE ENERGY PREDICTED BY IDOCK:   -4.38 KCAL/MOL
REMARK 922        TOTAL FREE ENERGY PREDICTED BY IDOCK:   -6.49 KCAL/MOL
REMARK 923 INTER-LIGAND FREE ENERGY PREDICTED BY IDOCK:   -5.56 KCAL/MOL
REMARK 924 INTRA-LIGAND FREE ENERGY PREDICTED BY IDOCK:   -0.93 KCAL/MOL
REMARK 927      BINDING AFFINITY PREDICTED BY RF-SCORE:    0.00 PKD
ROOT
HETATM    1  C   UNL     1     -13.045  13.995  65.367  1.00  0.00    -0.215 C  
HETATM    2  C   UNL     1     -11.594  13.671  64.946  1.00  0.00    -0.360 C  
HETATM    3  C   UNL     1     -10.886  15.026  64.693  1.00  0.00    -0.290 C  
HETATM    4  C   UNL     1     -11.672  12.907  63.604  1.00  0.00    -0.572 C  
ENDROOT
BRANCH   2   5
HETATM    5  C   UNL     1     -10.796  12.866  65.993  1.00  0.00    -0.300 A  
HETATM    6  C   UNL     1      -9.550  12.257  65.742  1.00  0.00    -0.185 A  
HETATM    7  C   UNL     1      -8.921  11.418  66.694  1.00  0.00    -0.183 A  
HETATM    8  C   UNL     1      -9.512  11.187  67.939  1.00  0.00    -0.178 A  
HETATM    9  C   UNL     1     -11.352  12.651  67.264  1.00  0.00    -0.372 A  
HETATM   10  C   UNL     1     -10.728  11.833  68.206  1.00  0.00    -0.246 A  
BRANCH   8  11
HETATM   11  C   UNL     1      -9.049  10.153  68.963  1.00  0.00    -0.173 C  
BRANCH  11  12
HETATM   12  N   UNL     1      -9.864   8.950  69.218  1.00  0.00    -0.172 NA 
HETATM   13  C   UNL     1     -10.778   8.611  68.113  1.00  0.00    -0.058 C  
HETATM   14  C   UNL     1     -10.216   7.834  66.877  1.00  0.00    -0.303 C  
HETATM   15  N   UNL     1      -9.037   6.940  67.024  1.00  0.00    -0.132 NA 
HETATM   16  C   UNL     1      -8.214   7.322  68.175  1.00  0.00    -0.124 C  
HETATM   17  C   UNL     1      -8.986   7.776  69.431  1.00  0.00    -0.142 C  
BRANCH  15  18
HETATM   18  C   UNL     1      -9.357   5.490  66.863  1.00  0.00    -0.127 C  
BRANCH  18  19
HETATM   19  C   UNL     1      -9.037   5.020  65.428  1.00  0.00    -0.157 A  
HETATM   20  C   UNL     1      -9.755   3.965  64.839  1.00  0.00    -0.188 A  
HETATM   21  C   UNL     1      -8.044   5.659  64.662  1.00  0.00    -0.128 A  
HETATM   22  C   UNL     1      -9.507   3.585  63.516  1.00  0.00    -0.121 A  
HETATM   23  C   UNL     1      -7.795   5.274  63.344  1.00  0.00    -0.087 A  
HETATM   24  C   UNL     1      -8.532   4.242  62.768  1.00  0.00    -0.091 A  
ENDBRANCH  18  19
BRANCH  18  25
HETATM   25  C   UNL     1      -8.677   4.532  67.866  1.00  0.00    -0.114 A  
HETATM   26  C   UNL     1      -7.382   2.755  69.630  1.00  0.00    -0.044 A  
HETATM   27  C   UNL     1      -8.746   2.997  69.767  1.00  0.00    -0.130 A  
HETATM   28 CL   UNL     1      -6.605   1.613  70.656  1.00  0.00    -0.024 Cl 
HETATM   29  C   UNL     1      -7.289   4.312  67.784  1.00  0.00    -0.068 A  
HETATM   30  C   UNL     1      -9.383   3.894  68.902  1.00  0.00    -0.231 A  
HETATM   31  C   UNL     1      -6.649   3.426  68.652  1.00  0.00    -0.040 A  
ENDBRANCH  18  25
ENDBRANCH  15  18
ENDBRANCH  11  12
ENDBRANCH   8  11
ENDBRANCH   2   5
TORSDOF 6
ENDMDL
MODEL      101
REMARK 921   NORMALIZED FREE ENERGY PREDICTED BY IDOCK:   -4.37 KCAL/MOL
REMARK 922        TOTAL FREE ENERGY PREDICTED BY IDOCK:   -6.49 KCAL/MOL
REMARK 923 INTER-LIGAND FREE ENERGY PREDICTED BY IDOCK:   -5.92 KCAL/MOL
REMARK 924 INTRA-LIGAND FREE ENERGY PREDICTED BY IDOCK:   -0.56 KCAL/MOL
REMARK 927      BINDING AFFINITY PREDICTED BY RF-SCORE:    0.00 PKD
ROOT
HETATM    1  C   UNL     1     -12.351  13.945  63.368  1.00  0.00     0.056 C  
HETATM    2  C   UNL     1     -11.801  13.875  64.811  1.00  0.00    -0.414 C  
HETATM    3  C   UNL     1     -12.991  14.165  65.760  1.00  0.00    -0.235 C  
HETATM    4  C   UNL     1     -10.771  15.018  64.961  1.00  0.00    -0.448 C  
ENDROOT
BRANCH   2   5
HETATM    5  C   UNL     1     -11.172  12.515  65.183  1.00  0.00    -0.342 A  
HETATM    6  C   UNL     1     -11.295  11.905  66.447  1.00  0.00    -0.400 A  
HETATM    7  C   UNL     1     -10.589  10.722  66.780  1.00  0.00    -0.307 A  
HETATM    8  C   UNL     1      -9.761  10.101  65.842  1.00  0.00    -0.292 A  
HETATM    9  C   UNL     1     -10.365  11.853  64.245  1.00  0.00    -0.362 A  
HETATM   10  C   UNL     1      -9.678  10.682  64.568  1.00  0.00    -0.367 A  
BRANCH   8  11
HETATM   11  C   UNL     1      -8.795   8.955  66.133  1.00  0.00    -0.161 C  
BRANCH  11  12
HETATM   12  N   UNL     1      -9.142   7.577  65.735  1.00  0.00    -0.043 NA 
HETATM   13  C   UNL     1      -8.058   6.606  65.964  1.00  0.00    -0.122 C  
HETATM   14  C   UNL     1      -7.855   6.023  67.401  1.00  0.00    -0.102 C  
HETATM   15  N   UNL     1      -9.001   5.929  68.343  1.00  0.00    -0.113 NA 
HETATM   16  C   UNL     1     -10.050   6.896  68.009  1.00  0.00    -0.166 C  
HETATM   17  C   UNL     1     -10.317   7.105  66.504  1.00  0.00    -0.034 C  
BRANCH  15  18
HETATM   18  C   UNL     1      -9.430   4.527  68.632  1.00  0.00    -0.158 C  
BRANCH  18  19
HETATM   19  C   UNL     1      -8.394   3.520  68.090  1.00  0.00    -0.096 A  
HETATM   20  C   UNL     1      -8.669   2.747  66.949  1.00  0.00    -0.129 A  
HETATM   21  C   UNL     1      -7.135   3.377  68.703  1.00  0.00    -0.050 A  
HETATM   22  C   UNL     1      -7.703   1.884  66.422  1.00  0.00    -0.067 A  
HETATM   23  C   UNL     1      -6.175   2.510  68.179  1.00  0.00    -0.028 A  
HETATM   24  C   UNL     1      -6.456   1.770  67.034  1.00  0.00    -0.027 A  
ENDBRANCH  18  19
BRANCH  18  25
HETATM   25  C   UNL     1      -9.717   4.200  70.114  1.00  0.00    -0.278 A  
HETATM   26  C   UNL     1     -10.195   3.677  72.843  1.00  0.00    -0.163 A  
HETATM   27  C   UNL     1      -9.987   2.621  71.960  1.00  0.00    -0.224 A  
HETATM   28 CL   UNL     1     -10.410   3.365  74.521  1.00  0.00    -0.230 Cl 
HETATM   29  C   UNL     1      -9.985   5.247  71.017  1.00  0.00    -0.266 A  
HETATM   30  C   UNL     1      -9.769   2.882  70.603  1.00  0.00    -0.104 A  
HETATM   31  C   UNL     1     -10.214   4.989  72.370  1.00  0.00    -0.254 A  
ENDBRANCH  18  25
ENDBRANCH  15  18
ENDBRANCH  11  12
ENDBRANCH   8  11
ENDBRANCH   2   5
TORSDOF 6
ENDMDL
MODEL      102
REMARK 921   NORMALIZED FREE ENERGY PREDICTED BY IDOCK:   -4.37 KCAL/MOL
REMARK 922        TOTAL FREE ENERGY PREDICTED BY IDOCK:   -6.48 KCAL/MOL
REMARK 923 INTER-LIGAND FREE ENERGY PREDICTED BY IDOCK:   -6.21 KCAL/MOL
REMARK 924 INTRA-LIGAND FREE ENERGY PREDICTED BY IDOCK:   -0.27 KCAL/MOL
REMARK 927      BINDING AFFINITY PREDICTED BY RF-SCORE:    0.00 PKD
ROOT
HETATM    1  C   UNL     1      -9.629   5.390  74.236  1.00  0.00    -0.155 C  
HETATM    2  C   UNL     1     -10.525   5.703  73.017  1.00  0.00    -0.246 C  
HETATM    3  C   UNL     1     -10.865   7.213  73.084  1.00  0.00    -0.373 C  
HETATM    4  C   UNL     1     -11.836   4.903  73.200  1.00  0.00    -0.113 C  
ENDROOT
BRANCH   2   5
HETATM    5  C   UNL     1      -9.873   5.386  71.654  1.00  0.00    -0.223 A  
HETATM    6  C   UNL     1      -8.494   5.162  71.469  1.00  0.00    -0.124 A  
HETATM    7  C   UNL     1      -7.927   5.007  70.181  1.00  0.00    -0.077 A  
HETATM    8  C   UNL     1      -8.732   5.044  69.040  1.00  0.00    -0.101 A  
HETATM    9  C   UNL     1     -10.668   5.381  70.497  1.00  0.00    -0.266 A  
HETATM   10  C   UNL     1     -10.111   5.217  69.229  1.00  0.00    -0.300 A  
BRANCH   8  11
HETATM   11  C   UNL     1      -8.229   5.098  67.600  1.00  0.00    -0.099 C  
BRANCH  11  12
HETATM   12  N   UNL     1      -7.354   6.203  67.163  1.00  0.00    -0.075 NA 
HETATM   13  C   UNL     1      -7.689   6.729  65.829  1.00  0.00    -0.096 C  
HETATM   14  C   UNL     1      -8.865   7.752  65.692  1.00  0.00    -0.065 C  
HETATM   15  N   UNL     1      -9.232   8.631  66.832  1.00  0.00    -0.151 NA 
HETATM   16  C   UNL     1      -8.816   8.051  68.113  1.00  0.00    -0.132 C  
HETATM   17  C   UNL     1      -7.450   7.336  68.114  1.00  0.00    -0.102 C  
BRANCH  15  18
HETATM   18  C   UNL     1      -8.924  10.075  66.603  1.00  0.00    -0.139 C  
BRANCH  18  19
HETATM   19  C   UNL     1      -9.006  10.416  65.101  1.00  0.00    -0.217 A  
HETATM   20  C   UNL     1     -10.229  10.776  64.510  1.00  0.00    -0.428 A  
HETATM   21  C   UNL     1      -7.852  10.413  64.294  1.00  0.00    -0.058 A  
HETATM   22  C   UNL     1     -10.288  11.149  63.162  1.00  0.00    -0.309 A  
HETATM   23  C   UNL     1      -7.915  10.779  62.949  1.00  0.00    -0.031 A  
HETATM   24  C   UNL     1      -9.131  11.155  62.385  1.00  0.00    -0.292 A  
ENDBRANCH  18  19
BRANCH  18  25
HETATM   25  C   UNL     1      -9.787  11.084  67.393  1.00  0.00    -0.197 A  
HETATM   26  C   UNL     1     -11.287  12.959  68.871  1.00  0.00    -0.288 A  
HETATM   27  C   UNL     1     -11.810  11.693  68.622  1.00  0.00    -0.370 A  
HETATM   28 CL   UNL     1     -12.166  14.077  69.838  1.00  0.00    -0.389 Cl 
HETATM   29  C   UNL     1      -9.305  12.389  67.611  1.00  0.00    -0.188 A  
HETATM   30  C   UNL     1     -11.072  10.771  67.872  1.00  0.00    -0.369 A  
HETATM   31  C   UNL     1     -10.043  13.315  68.350  1.00  0.00    -0.237 A  
ENDBRANCH  18  25
ENDBRANCH  15  18
ENDBRANCH  11  12
ENDBRANCH   8  11
ENDBRANCH   2   5
TORSDOF 6
ENDMDL
MODEL      103
REMARK 921   NORMALIZED FREE ENERGY PREDICTED BY IDOCK:   -4.27 KCAL/MOL
REMARK 922        TOTAL FREE ENERGY PREDICTED BY IDOCK:   -6.35 KCAL/MOL
REMARK 923 INTER-LIGAND FREE ENERGY PREDICTED BY IDOCK:   -5.44 KCAL/MOL
REMARK 924 INTRA-LIGAND FREE ENERGY PREDICTED BY IDOCK:   -0.90 KCAL/MOL
REMARK 927      BINDING AFFINITY PREDICTED BY RF-SCORE:    0.00 PKD
ROOT
HETATM    1  C   UNL     1      -8.504  16.878  66.512  1.00  0.00    -0.307 C  
HETATM    2  C   UNL     1      -9.847  16.175  66.811  1.00  0.00    -0.255 C  
HETATM    3  C   UNL     1     -10.617  16.086  65.470  1.00  0.00    -0.415 C  
HETATM    4  C   UNL     1     -10.640  17.099  67.765  1.00  0.00    -0.360 C  
ENDROOT
BRANCH   2   5
HETATM    5  C   UNL     1      -9.701  14.760  67.411  1.00  0.00    -0.214 A  
HETATM    6  C   UNL     1      -8.476  14.074  67.532  1.00  0.00    -0.201 A  
HETATM    7  C   UNL     1      -8.411  12.727  67.965  1.00  0.00    -0.173 A  
HETATM    8  C   UNL     1      -9.574  12.037  68.318  1.00  0.00    -0.204 A  
HETATM    9  C   UNL     1     -10.851  14.060  67.807  1.00  0.00    -0.257 A  
HETATM   10  C   UNL     1     -10.787  12.737  68.244  1.00  0.00    -0.270 A  
BRANCH   8  11
HETATM   11  C   UNL     1      -9.666  10.540  68.599  1.00  0.00    -0.173 C  
BRANCH  11  12
HETATM   12  N   UNL     1      -8.440   9.719  68.642  1.00  0.00    -0.113 NA 
HETATM   13  C   UNL     1      -8.494   8.630  69.633  1.00  0.00    -0.129 C  
HETATM   14  C   UNL     1      -9.236   7.304  69.260  1.00  0.00    -0.144 C  
HETATM   15  N   UNL     1      -9.346   6.878  67.840  1.00  0.00    -0.120 NA 
HETATM   16  C   UNL     1      -9.232   8.020  66.927  1.00  0.00    -0.154 C  
HETATM   17  C   UNL     1      -8.198   9.094  67.321  1.00  0.00    -0.114 C  
BRANCH  15  18
HETATM   18  C   UNL     1      -8.547   5.659  67.513  1.00  0.00    -0.108 C  
BRANCH  18  19
HETATM   19  C   UNL     1      -8.419   4.746  68.751  1.00  0.00    -0.087 A  
HETATM   20  C   UNL     1      -9.558   4.180  69.349  1.00  0.00    -0.265 A  
HETATM   21  C   UNL     1      -7.157   4.427  69.287  1.00  0.00    -0.051 A  
HETATM   22  C   UNL     1      -9.432   3.301  70.430  1.00  0.00    -0.235 A  
HETATM   23  C   UNL     1      -7.036   3.554  70.369  1.00  0.00    -0.034 A  
HETATM   24  C   UNL     1      -8.173   2.984  70.935  1.00  0.00    -0.072 A  
ENDBRANCH  18  19
BRANCH  18  25
HETATM   25  C   UNL     1      -9.055   4.817  66.322  1.00  0.00    -0.122 A  
HETATM   26  C   UNL     1      -9.904   3.298  64.103  1.00  0.00    -0.171 A  
HETATM   27  C   UNL     1     -10.829   4.045  64.828  1.00  0.00    -0.093 A  
HETATM   28 CL   UNL     1     -10.406   2.432  62.705  1.00  0.00    -0.107 Cl 
HETATM   29  C   UNL     1      -8.150   4.009  65.606  1.00  0.00    -0.101 A  
HETATM   30  C   UNL     1     -10.408   4.784  65.940  1.00  0.00    -0.303 A  
HETATM   31  C   UNL     1      -8.569   3.263  64.503  1.00  0.00    -0.094 A  
ENDBRANCH  18  25
ENDBRANCH  15  18
ENDBRANCH  11  12
ENDBRANCH   8  11
ENDBRANCH   2   5
TORSDOF 6
ENDMDL
MODEL      104
REMARK 921   NORMALIZED FREE ENERGY PREDICTED BY IDOCK:   -4.26 KCAL/MOL
REMARK 922        TOTAL FREE ENERGY PREDICTED BY IDOCK:   -6.33 KCAL/MOL
REMARK 923 INTER-LIGAND FREE ENERGY PREDICTED BY IDOCK:   -6.44 KCAL/MOL
REMARK 924 INTRA-LIGAND FREE ENERGY PREDICTED BY IDOCK:    0.11 KCAL/MOL
REMARK 927      BINDING AFFINITY PREDICTED BY RF-SCORE:    0.00 PKD
ROOT
HETATM    1  C   UNL     1      -6.428   3.490  70.896  1.00  0.00    -0.030 C  
HETATM    2  C   UNL     1      -6.280   4.804  71.696  1.00  0.00    -0.021 C  
HETATM    3  C   UNL     1      -5.241   5.673  70.945  1.00  0.00    -0.009 C  
HETATM    4  C   UNL     1      -5.691   4.430  73.077  1.00  0.00    -0.008 C  
ENDROOT
BRANCH   2   5
HETATM    5  C   UNL     1      -7.593   5.599  71.855  1.00  0.00    -0.096 A  
HETATM    6  C   UNL     1      -7.757   6.689  72.734  1.00  0.00    -0.100 A  
HETATM    7  C   UNL     1      -9.018   7.301  72.940  1.00  0.00    -0.168 A  
HETATM    8  C   UNL     1     -10.147   6.855  72.248  1.00  0.00    -0.194 A  
HETATM    9  C   UNL     1      -8.732   5.194  71.142  1.00  0.00    -0.139 A  
HETATM   10  C   UNL     1      -9.971   5.804  71.337  1.00  0.00    -0.234 A  
BRANCH   8  11
HETATM   11  C   UNL     1     -11.585   7.284  72.528  1.00  0.00    -0.245 C  
BRANCH  11  12
HETATM   12  N   UNL     1     -12.436   7.778  71.428  1.00  0.00    -0.323 NA 
HETATM   13  C   UNL     1     -13.546   8.635  71.880  1.00  0.00    -0.410 C  
HETATM   14  C   UNL     1     -13.262  10.141  72.190  1.00  0.00    -0.362 C  
HETATM   15  N   UNL     1     -12.149  10.851  71.508  1.00  0.00    -0.148 NA 
HETATM   16  C   UNL     1     -11.117   9.917  71.050  1.00  0.00    -0.331 C  
HETATM   17  C   UNL     1     -11.629   8.579  70.478  1.00  0.00    -0.132 C  
BRANCH  15  18
HETATM   18  C   UNL     1     -12.603  11.896  70.542  1.00  0.00    -0.128 C  
BRANCH  18  19
HETATM   19  C   UNL     1     -12.656  13.280  71.223  1.00  0.00    -0.398 A  
HETATM   20  C   UNL     1     -13.465  13.497  72.351  1.00  0.00    -0.685 A  
HETATM   21  C   UNL     1     -11.866  14.347  70.754  1.00  0.00    -0.349 A  
HETATM   22  C   UNL     1     -13.459  14.734  73.005  1.00  0.00    -0.473 A  
HETATM   23  C   UNL     1     -11.867  15.582  71.405  1.00  0.00    -0.461 A  
HETATM   24  C   UNL     1     -12.657  15.773  72.535  1.00  0.00    -0.541 A  
ENDBRANCH  18  19
BRANCH  18  25
HETATM   25  C   UNL     1     -11.784  12.012  69.237  1.00  0.00    -0.389 A  
HETATM   26  C   UNL     1     -10.224  12.267  66.902  1.00  0.00    -0.213 A  
HETATM   27  C   UNL     1     -11.611  12.363  66.824  1.00  0.00    -0.444 A  
HETATM   28 CL   UNL     1      -9.266  12.499  65.492  1.00  0.00     0.144 Cl 
HETATM   29  C   UNL     1     -10.385  11.864  69.280  1.00  0.00     0.129 A  
HETATM   30  C   UNL     1     -12.384  12.218  67.982  1.00  0.00     0.520 A  
HETATM   31  C   UNL     1      -9.611  11.998  68.125  1.00  0.00    -0.200 A  
ENDBRANCH  18  25
ENDBRANCH  15  18
ENDBRANCH  11  12
ENDBRANCH   8  11
ENDBRANCH   2   5
TORSDOF 6
ENDMDL
MODEL      105
REMARK 921   NORMALIZED FREE ENERGY PREDICTED BY IDOCK:   -4.26 KCAL/MOL
REMARK 922        TOTAL FREE ENERGY PREDICTED BY IDOCK:   -6.33 KCAL/MOL
REMARK 923 INTER-LIGAND FREE ENERGY PREDICTED BY IDOCK:   -6.29 KCAL/MOL
REMARK 924 INTRA-LIGAND FREE ENERGY PREDICTED BY IDOCK:   -0.04 KCAL/MOL
REMARK 927      BINDING AFFINITY PREDICTED BY RF-SCORE:    0.00 PKD
ROOT
HETATM    1  C   UNL     1     -11.465  15.420  70.140  1.00  0.00    -0.338 C  
HETATM    2  C   UNL     1     -10.508  15.729  68.967  1.00  0.00    -0.225 C  
HETATM    3  C   UNL     1      -9.074  15.759  69.553  1.00  0.00    -0.202 C  
HETATM    4  C   UNL     1     -10.854  17.148  68.461  1.00  0.00    -0.281 C  
ENDROOT
BRANCH   2   5
HETATM    5  C   UNL     1     -10.567  14.704  67.815  1.00  0.00    -0.251 A  
HETATM    6  C   UNL     1     -11.713  13.958  67.476  1.00  0.00    -0.416 A  
HETATM    7  C   UNL     1     -11.679  12.935  66.498  1.00  0.00    -0.453 A  
HETATM    8  C   UNL     1     -10.498  12.649  65.808  1.00  0.00    -0.299 A  
HETATM    9  C   UNL     1      -9.401  14.426  67.082  1.00  0.00    -0.226 A  
HETATM   10  C   UNL     1      -9.370  13.426  66.111  1.00  0.00    -0.075 A  
BRANCH   8  11
HETATM   11  C   UNL     1     -10.274  11.450  64.890  1.00  0.00    -0.278 C  
BRANCH  11  12
HETATM   12  N   UNL     1     -10.421  10.079  65.416  1.00  0.00    -0.050 NA 
HETATM   13  C   UNL     1      -9.225   9.241  65.220  1.00  0.00    -0.212 C  
HETATM   14  C   UNL     1      -8.031   9.380  66.221  1.00  0.00    -0.111 C  
HETATM   15  N   UNL     1      -8.270   9.829  67.617  1.00  0.00    -0.114 NA 
HETATM   16  C   UNL     1      -9.504  10.612  67.725  1.00  0.00    -0.153 C  
HETATM   17  C   UNL     1     -10.690  10.118  66.872  1.00  0.00    -0.161 C  
BRANCH  15  18
HETATM   18  C   UNL     1      -8.044   8.764  68.640  1.00  0.00    -0.116 C  
BRANCH  18  19
HETATM   19  C   UNL     1      -6.994   9.219  69.675  1.00  0.00    -0.056 A  
HETATM   20  C   UNL     1      -6.679  10.580  69.831  1.00  0.00    -0.142 A  
HETATM   21  C   UNL     1      -6.355   8.287  70.515  1.00  0.00    -0.036 A  
HETATM   22  C   UNL     1      -5.775  10.994  70.816  1.00  0.00    -0.095 A  
HETATM   23  C   UNL     1      -5.449   8.703  71.492  1.00  0.00    -0.038 A  
HETATM   24  C   UNL     1      -5.166  10.057  71.648  1.00  0.00    -0.070 A  
ENDBRANCH  18  19
BRANCH  18  25
HETATM   25  C   UNL     1      -9.301   8.268  69.389  1.00  0.00    -0.155 A  
HETATM   26  C   UNL     1     -11.555   7.384  70.834  1.00  0.00    -0.291 A  
HETATM   27  C   UNL     1     -11.176   6.725  69.667  1.00  0.00    -0.345 A  
HETATM   28 CL   UNL     1     -12.882   6.799  71.759  1.00  0.00    -0.369 Cl 
HETATM   29  C   UNL     1      -9.737   8.950  70.541  1.00  0.00    -0.244 A  
HETATM   30  C   UNL     1     -10.068   7.178  68.942  1.00  0.00    -0.177 A  
HETATM   31  C   UNL     1     -10.848   8.507  71.261  1.00  0.00    -0.312 A  
ENDBRANCH  18  25
ENDBRANCH  15  18
ENDBRANCH  11  12
ENDBRANCH   8  11
ENDBRANCH   2   5
TORSDOF 6
ENDMDL
MODEL      106
REMARK 921   NORMALIZED FREE ENERGY PREDICTED BY IDOCK:   -4.22 KCAL/MOL
REMARK 922        TOTAL FREE ENERGY PREDICTED BY IDOCK:   -6.28 KCAL/MOL
REMARK 923 INTER-LIGAND FREE ENERGY PREDICTED BY IDOCK:   -6.15 KCAL/MOL
REMARK 924 INTRA-LIGAND FREE ENERGY PREDICTED BY IDOCK:   -0.13 KCAL/MOL
REMARK 927      BINDING AFFINITY PREDICTED BY RF-SCORE:    0.00 PKD
ROOT
HETATM    1  C   UNL     1     -12.518  13.247  66.202  1.00  0.00    -0.335 C  
HETATM    2  C   UNL     1     -11.557  13.116  64.999  1.00  0.00    -0.354 C  
HETATM    3  C   UNL     1     -11.208  14.555  64.544  1.00  0.00    -0.302 C  
HETATM    4  C   UNL     1     -12.345  12.426  63.862  1.00  0.00    -0.602 C  
ENDROOT
BRANCH   2   5
HETATM    5  C   UNL     1     -10.254  12.349  65.310  1.00  0.00    -0.306 A  
HETATM    6  C   UNL     1      -9.730  11.319  64.503  1.00  0.00    -0.293 A  
HETATM    7  C   UNL     1      -8.604  10.556  64.900  1.00  0.00    -0.179 A  
HETATM    8  C   UNL     1      -7.954  10.823  66.107  1.00  0.00    -0.157 A  
HETATM    9  C   UNL     1      -9.562  12.624  66.500  1.00  0.00    -0.248 A  
HETATM   10  C   UNL     1      -8.447  11.881  66.886  1.00  0.00    -0.174 A  
BRANCH   8  11
HETATM   11  C   UNL     1      -6.872   9.954  66.743  1.00  0.00    -0.084 C  
BRANCH  11  12
HETATM   12  N   UNL     1      -6.921   8.486  66.595  1.00  0.00    -0.075 NA 
HETATM   13  C   UNL     1      -5.985   7.772  67.480  1.00  0.00    -0.045 C  
HETATM   14  C   UNL     1      -6.392   7.525  68.970  1.00  0.00    -0.039 C  
HETATM   15  N   UNL     1      -7.826   7.429  69.351  1.00  0.00    -0.119 NA 
HETATM   16  C   UNL     1      -8.684   8.125  68.388  1.00  0.00    -0.134 C  
HETATM   17  C   UNL     1      -8.281   7.987  66.906  1.00  0.00    -0.115 C  
BRANCH  15  18
HETATM   18  C   UNL     1      -8.246   6.061  69.777  1.00  0.00    -0.118 C  
BRANCH  18  19
HETATM   19  C   UNL     1      -9.568   6.122  70.572  1.00  0.00    -0.192 A  
HETATM   20  C   UNL     1      -9.680   5.506  71.831  1.00  0.00    -0.197 A  
HETATM   21  C   UNL     1     -10.680   6.827  70.074  1.00  0.00    -0.287 A  
HETATM   22  C   UNL     1     -10.858   5.620  72.577  1.00  0.00    -0.299 A  
HETATM   23  C   UNL     1     -11.856   6.933  70.818  1.00  0.00    -0.427 A  
HETATM   24  C   UNL     1     -11.942   6.337  72.073  1.00  0.00    -0.353 A  
ENDBRANCH  18  19
BRANCH  18  25
HETATM   25  C   UNL     1      -8.390   5.015  68.650  1.00  0.00    -0.087 A  
HETATM   26  C   UNL     1      -8.732   3.081  66.626  1.00  0.00    -0.129 A  
HETATM   27  C   UNL     1      -7.460   3.342  67.129  1.00  0.00    -0.074 A  
HETATM   28 CL   UNL     1      -8.953   1.848  65.448  1.00  0.00    -0.124 Cl 
HETATM   29  C   UNL     1      -9.657   4.771  68.086  1.00  0.00    -0.200 A  
HETATM   30  C   UNL     1      -7.290   4.316  68.120  1.00  0.00    -0.064 A  
HETATM   31  C   UNL     1      -9.828   3.808  67.090  1.00  0.00    -0.035 A  
ENDBRANCH  18  25
ENDBRANCH  15  18
ENDBRANCH  11  12
ENDBRANCH   8  11
ENDBRANCH   2   5
TORSDOF 6
ENDMDL
MODEL      107
REMARK 921   NORMALIZED FREE ENERGY PREDICTED BY IDOCK:   -4.19 KCAL/MOL
REMARK 922        TOTAL FREE ENERGY PREDICTED BY IDOCK:   -6.23 KCAL/MOL
REMARK 923 INTER-LIGAND FREE ENERGY PREDICTED BY IDOCK:   -6.27 KCAL/MOL
REMARK 924 INTRA-LIGAND FREE ENERGY PREDICTED BY IDOCK:    0.03 KCAL/MOL
REMARK 927      BINDING AFFINITY PREDICTED BY RF-SCORE:    0.00 PKD
ROOT
HETATM    1  C   UNL     1      -9.436  19.062  68.690  1.00  0.00    -0.457 C  
HETATM    2  C   UNL     1      -9.598  18.641  67.212  1.00  0.00    -0.316 C  
HETATM    3  C   UNL     1      -8.285  19.031  66.487  1.00  0.00    -0.312 C  
HETATM    4  C   UNL     1     -10.747  19.489  66.622  1.00  0.00    -0.552 C  
ENDROOT
BRANCH   2   5
HETATM    5  C   UNL     1      -9.865  17.134  67.009  1.00  0.00    -0.276 A  
HETATM    6  C   UNL     1      -9.979  16.201  68.059  1.00  0.00    -0.238 A  
HETATM    7  C   UNL     1     -10.091  14.810  67.816  1.00  0.00    -0.224 A  
HETATM    8  C   UNL     1     -10.122  14.317  66.509  1.00  0.00    -0.283 A  
HETATM    9  C   UNL     1      -9.937  16.619  65.705  1.00  0.00    -0.197 A  
HETATM   10  C   UNL     1     -10.059  15.251  65.465  1.00  0.00    -0.408 A  
BRANCH   8  11
HETATM   11  C   UNL     1     -10.033  12.845  66.115  1.00  0.00    -0.272 C  
BRANCH  11  12
HETATM   12  N   UNL     1      -9.814  11.814  67.149  1.00  0.00    -0.192 NA 
HETATM   13  C   UNL     1     -10.520  10.550  66.880  1.00  0.00    -0.246 C  
HETATM   14  C   UNL     1      -9.886   9.526  65.882  1.00  0.00    -0.290 C  
HETATM   15  N   UNL     1      -8.414   9.487  65.681  1.00  0.00    -0.128 NA 
HETATM   16  C   UNL     1      -7.792  10.770  66.019  1.00  0.00    -0.149 C  
HETATM   17  C   UNL     1      -8.372  11.493  67.252  1.00  0.00    -0.154 C  
BRANCH  15  18
HETATM   18  C   UNL     1      -7.765   8.251  66.213  1.00  0.00    -0.097 C  
BRANCH  18  19
HETATM   19  C   UNL     1      -7.796   8.243  67.756  1.00  0.00    -0.114 A  
HETATM   20  C   UNL     1      -6.621   8.446  68.501  1.00  0.00    -0.059 A  
HETATM   21  C   UNL     1      -9.006   8.072  68.455  1.00  0.00    -0.133 A  
HETATM   22  C   UNL     1      -6.664   8.504  69.898  1.00  0.00    -0.042 A  
HETATM   23  C   UNL     1      -9.044   8.124  69.849  1.00  0.00    -0.151 A  
HETATM   24  C   UNL     1      -7.875   8.349  70.570  1.00  0.00    -0.089 A  
ENDBRANCH  18  19
BRANCH  18  25
HETATM   25  C   UNL     1      -8.335   6.912  65.696  1.00  0.00    -0.147 A  
HETATM   26  C   UNL     1      -9.388   4.505  64.670  1.00  0.00    -0.126 A  
HETATM   27  C   UNL     1      -9.623   4.856  65.997  1.00  0.00    -0.185 A  
HETATM   28 CL   UNL     1     -10.093   3.077  64.021  1.00  0.00    -0.164 Cl 
HETATM   29  C   UNL     1      -8.066   6.507  64.374  1.00  0.00    -0.065 A  
HETATM   30  C   UNL     1      -9.083   6.042  66.509  1.00  0.00    -0.153 A  
HETATM   31  C   UNL     1      -8.594   5.320  63.864  1.00  0.00    -0.052 A  
ENDBRANCH  18  25
ENDBRANCH  15  18
ENDBRANCH  11  12
ENDBRANCH   8  11
ENDBRANCH   2   5
TORSDOF 6
ENDMDL
MODEL      108
REMARK 921   NORMALIZED FREE ENERGY PREDICTED BY IDOCK:   -4.18 KCAL/MOL
REMARK 922        TOTAL FREE ENERGY PREDICTED BY IDOCK:   -6.22 KCAL/MOL
REMARK 923 INTER-LIGAND FREE ENERGY PREDICTED BY IDOCK:   -5.83 KCAL/MOL
REMARK 924 INTRA-LIGAND FREE ENERGY PREDICTED BY IDOCK:   -0.39 KCAL/MOL
REMARK 927      BINDING AFFINITY PREDICTED BY RF-SCORE:    0.00 PKD
ROOT
HETATM    1  C   UNL     1     -10.867  15.564  65.902  1.00  0.00    -0.317 C  
HETATM    2  C   UNL     1     -11.529  14.218  66.275  1.00  0.00    -0.360 C  
HETATM    3  C   UNL     1     -12.771  14.060  65.363  1.00  0.00    -0.499 C  
HETATM    4  C   UNL     1     -12.014  14.342  67.738  1.00  0.00    -0.384 C  
ENDROOT
BRANCH   2   5
HETATM    5  C   UNL     1     -10.608  12.991  66.102  1.00  0.00    -0.289 A  
HETATM    6  C   UNL     1      -9.483  12.726  66.907  1.00  0.00    -0.235 A  
HETATM    7  C   UNL     1      -8.594  11.659  66.624  1.00  0.00    -0.179 A  
HETATM    8  C   UNL     1      -8.826  10.809  65.540  1.00  0.00    -0.203 A  
HETATM    9  C   UNL     1     -10.842  12.102  65.041  1.00  0.00    -0.344 A  
HETATM   10  C   UNL     1      -9.974  11.045  64.769  1.00  0.00    -0.350 A  
BRANCH   8  11
HETATM   11  C   UNL     1      -7.849   9.764  65.007  1.00  0.00    -0.128 C  
BRANCH  11  12
HETATM   12  N   UNL     1      -8.294   8.372  64.804  1.00  0.00    -0.161 NA 
HETATM   13  C   UNL     1      -7.187   7.426  64.576  1.00  0.00    -0.073 C  
HETATM   14  C   UNL     1      -6.395   6.877  65.808  1.00  0.00    -0.046 C  
HETATM   15  N   UNL     1      -7.049   6.781  67.139  1.00  0.00    -0.077 NA 
HETATM   16  C   UNL     1      -8.167   7.721  67.257  1.00  0.00    -0.119 C  
HETATM   17  C   UNL     1      -9.035   7.894  65.994  1.00  0.00    -0.154 C  
BRANCH  15  18
HETATM   18  C   UNL     1      -7.285   5.378  67.595  1.00  0.00    -0.072 C  
BRANCH  18  19
HETATM   19  C   UNL     1      -8.129   5.361  68.887  1.00  0.00    -0.094 A  
HETATM   20  C   UNL     1      -9.465   4.925  68.869  1.00  0.00    -0.202 A  
HETATM   21  C   UNL     1      -7.570   5.746  70.120  1.00  0.00    -0.086 A  
HETATM   22  C   UNL     1     -10.205   4.849  70.053  1.00  0.00    -0.313 A  
HETATM   23  C   UNL     1      -8.314   5.674  71.299  1.00  0.00    -0.127 A  
HETATM   24  C   UNL     1      -9.629   5.218  71.267  1.00  0.00    -0.212 A  
ENDBRANCH  18  19
BRANCH  18  25
HETATM   25  C   UNL     1      -7.935   4.431  66.562  1.00  0.00    -0.099 A  
HETATM   26  C   UNL     1      -9.039   2.685  64.642  1.00  0.00    -0.129 A  
HETATM   27  C   UNL     1      -9.737   3.828  65.024  1.00  0.00    -0.183 A  
HETATM   28 CL   UNL     1      -9.675   1.661  63.416  1.00  0.00    -0.107 Cl 
HETATM   29  C   UNL     1      -7.276   3.241  66.198  1.00  0.00    -0.067 A  
HETATM   30  C   UNL     1      -9.196   4.683  65.991  1.00  0.00    -0.144 A  
HETATM   31  C   UNL     1      -7.818   2.381  65.242  1.00  0.00    -0.078 A  
ENDBRANCH  18  25
ENDBRANCH  15  18
ENDBRANCH  11  12
ENDBRANCH   8  11
ENDBRANCH   2   5
TORSDOF 6
ENDMDL
MODEL      109
REMARK 921   NORMALIZED FREE ENERGY PREDICTED BY IDOCK:   -4.18 KCAL/MOL
REMARK 922        TOTAL FREE ENERGY PREDICTED BY IDOCK:   -6.22 KCAL/MOL
REMARK 923 INTER-LIGAND FREE ENERGY PREDICTED BY IDOCK:   -5.47 KCAL/MOL
REMARK 924 INTRA-LIGAND FREE ENERGY PREDICTED BY IDOCK:   -0.74 KCAL/MOL
REMARK 927      BINDING AFFINITY PREDICTED BY RF-SCORE:    0.00 PKD
ROOT
HETATM    1  C   UNL     1     -11.248  15.810  64.833  1.00  0.00    -0.358 C  
HETATM    2  C   UNL     1     -11.446  14.634  65.816  1.00  0.00    -0.338 C  
HETATM    3  C   UNL     1     -12.612  13.776  65.262  1.00  0.00    -0.510 C  
HETATM    4  C   UNL     1     -11.892  15.243  67.166  1.00  0.00     0.054 C  
ENDROOT
BRANCH   2   5
HETATM    5  C   UNL     1     -10.199  13.744  65.998  1.00  0.00    -0.315 A  
HETATM    6  C   UNL     1     -10.071  12.442  65.474  1.00  0.00    -0.287 A  
HETATM    7  C   UNL     1      -8.962  11.616  65.780  1.00  0.00    -0.067 A  
HETATM    8  C   UNL     1      -7.933  12.083  66.602  1.00  0.00     0.013 A  
HETATM    9  C   UNL     1      -9.135  14.206  66.789  1.00  0.00    -0.266 A  
HETATM   10  C   UNL     1      -8.038  13.397  67.083  1.00  0.00    -0.096 A  
BRANCH   8  11
HETATM   11  C   UNL     1      -6.799  11.235  67.172  1.00  0.00    -0.114 C  
BRANCH  11  12
HETATM   12  N   UNL     1      -6.812  10.844  68.595  1.00  0.00    -0.059 NA 
HETATM   13  C   UNL     1      -8.159  10.833  69.191  1.00  0.00    -0.131 C  
HETATM   14  C   UNL     1      -9.081   9.592  68.955  1.00  0.00    -0.141 C  
HETATM   15  N   UNL     1      -8.488   8.253  68.700  1.00  0.00    -0.125 NA 
HETATM   16  C   UNL     1      -7.132   8.362  68.154  1.00  0.00    -0.085 C  
HETATM   17  C   UNL     1      -6.255   9.480  68.753  1.00  0.00    -0.043 C  
BRANCH  15  18
HETATM   18  C   UNL     1      -8.702   7.278  69.811  1.00  0.00    -0.142 C  
BRANCH  18  19
HETATM   19  C   UNL     1      -9.920   7.687  70.666  1.00  0.00    -0.183 A  
HETATM   20  C   UNL     1      -9.789   7.899  72.049  1.00  0.00    -0.250 A  
HETATM   21  C   UNL     1     -11.181   7.895  70.076  1.00  0.00    -0.105 A  
HETATM   22  C   UNL     1     -10.880   8.333  72.810  1.00  0.00    -0.308 A  
HETATM   23  C   UNL     1     -12.269   8.323  70.839  1.00  0.00    -0.101 A  
HETATM   24  C   UNL     1     -12.116   8.550  72.204  1.00  0.00    -0.449 A  
ENDBRANCH  18  19
BRANCH  18  25
HETATM   25  C   UNL     1      -8.861   5.799  69.392  1.00  0.00    -0.117 A  
HETATM   26  C   UNL     1      -9.227   3.123  68.582  1.00  0.00    -0.167 A  
HETATM   27  C   UNL     1      -8.683   3.402  69.833  1.00  0.00    -0.131 A  
HETATM   28 CL   UNL     1      -9.523   1.493  68.118  1.00  0.00    -0.228 Cl 
HETATM   29  C   UNL     1      -9.358   5.490  68.111  1.00  0.00    -0.123 A  
HETATM   30  C   UNL     1      -8.485   4.730  70.225  1.00  0.00    -0.095 A  
HETATM   31  C   UNL     1      -9.546   4.165  67.713  1.00  0.00    -0.208 A  
ENDBRANCH  18  25
ENDBRANCH  15  18
ENDBRANCH  11  12
ENDBRANCH   8  11
ENDBRANCH   2   5
TORSDOF 6
ENDMDL
MODEL      110
REMARK 921   NORMALIZED FREE ENERGY PREDICTED BY IDOCK:   -4.15 KCAL/MOL
REMARK 922        TOTAL FREE ENERGY PREDICTED BY IDOCK:   -6.19 KCAL/MOL
REMARK 923 INTER-LIGAND FREE ENERGY PREDICTED BY IDOCK:   -6.53 KCAL/MOL
REMARK 924 INTRA-LIGAND FREE ENERGY PREDICTED BY IDOCK:    0.35 KCAL/MOL
REMARK 927      BINDING AFFINITY PREDICTED BY RF-SCORE:    0.00 PKD
ROOT
HETATM    1  C   UNL     1     -12.104  16.094  72.150  1.00  0.00    -0.593 C  
HETATM    2  C   UNL     1     -12.875  14.831  71.705  1.00  0.00    -0.405 C  
HETATM    3  C   UNL     1     -14.287  15.296  71.267  1.00  0.00    -0.488 C  
HETATM    4  C   UNL     1     -13.028  13.929  72.951  1.00  0.00    -0.349 C  
ENDROOT
BRANCH   2   5
HETATM    5  C   UNL     1     -12.210  14.059  70.545  1.00  0.00    -0.435 A  
HETATM    6  C   UNL     1     -11.483  14.668  69.503  1.00  0.00    -0.334 A  
HETATM    7  C   UNL     1     -11.005  13.930  68.392  1.00  0.00    -0.272 A  
HETATM    8  C   UNL     1     -11.219  12.551  68.309  1.00  0.00    -0.309 A  
HETATM    9  C   UNL     1     -12.379  12.668  70.459  1.00  0.00    -0.350 A  
HETATM   10  C   UNL     1     -11.900  11.939  69.371  1.00  0.00    -0.389 A  
BRANCH   8  11
HETATM   11  C   UNL     1     -10.943  11.683  67.084  1.00  0.00    -0.280 C  
BRANCH  11  12
HETATM   12  N   UNL     1      -9.635  11.017  66.930  1.00  0.00    -0.180 NA 
HETATM   13  C   UNL     1      -8.939  10.780  68.206  1.00  0.00    -0.143 C  
HETATM   14  C   UNL     1      -9.345   9.542  69.072  1.00  0.00    -0.155 C  
HETATM   15  N   UNL     1      -9.920   8.332  68.428  1.00  0.00    -0.184 NA 
HETATM   16  C   UNL     1     -10.547   8.655  67.143  1.00  0.00    -0.234 C  
HETATM   17  C   UNL     1      -9.809   9.697  66.279  1.00  0.00    -0.256 C  
BRANCH  15  18
HETATM   18  C   UNL     1      -9.019   7.141  68.470  1.00  0.00    -0.127 C  
BRANCH  18  19
HETATM   19  C   UNL     1      -8.060   7.143  67.260  1.00  0.00    -0.115 A  
HETATM   20  C   UNL     1      -8.059   6.080  66.341  1.00  0.00    -0.110 A  
HETATM   21  C   UNL     1      -7.192   8.227  67.027  1.00  0.00    -0.083 A  
HETATM   22  C   UNL     1      -7.235   6.116  65.211  1.00  0.00    -0.070 A  
HETATM   23  C   UNL     1      -6.367   8.257  65.902  1.00  0.00    -0.052 A  
HETATM   24  C   UNL     1      -6.395   7.206  64.989  1.00  0.00    -0.037 A  
ENDBRANCH  18  19
BRANCH  18  25
HETATM   25  C   UNL     1      -8.192   6.964  69.762  1.00  0.00    -0.131 A  
HETATM   26  C   UNL     1      -6.756   6.659  72.170  1.00  0.00    -0.059 A  
HETATM   27  C   UNL     1      -6.125   7.188  71.048  1.00  0.00    -0.036 A  
HETATM   28 CL   UNL     1      -5.905   6.545  73.661  1.00  0.00    -0.057 Cl 
HETATM   29  C   UNL     1      -8.791   6.381  70.896  1.00  0.00    -0.136 A  
HETATM   30  C   UNL     1      -6.834   7.321  69.849  1.00  0.00    -0.056 A  
HETATM   31  C   UNL     1      -8.083   6.237  72.090  1.00  0.00    -0.109 A  
ENDBRANCH  18  25
ENDBRANCH  15  18
ENDBRANCH  11  12
ENDBRANCH   8  11
ENDBRANCH   2   5
TORSDOF 6
ENDMDL
MODEL      111
REMARK 921   NORMALIZED FREE ENERGY PREDICTED BY IDOCK:   -4.10 KCAL/MOL
REMARK 922        TOTAL FREE ENERGY PREDICTED BY IDOCK:   -6.11 KCAL/MOL
REMARK 923 INTER-LIGAND FREE ENERGY PREDICTED BY IDOCK:   -6.79 KCAL/MOL
REMARK 924 INTRA-LIGAND FREE ENERGY PREDICTED BY IDOCK:    0.68 KCAL/MOL
REMARK 927      BINDING AFFINITY PREDICTED BY RF-SCORE:    0.00 PKD
ROOT
HETATM    1  C   UNL     1      -6.457   1.621  65.170  1.00  0.00    -0.023 C  
HETATM    2  C   UNL     1      -7.614   2.440  64.553  1.00  0.00    -0.071 C  
HETATM    3  C   UNL     1      -8.895   1.580  64.687  1.00  0.00    -0.105 C  
HETATM    4  C   UNL     1      -7.299   2.608  63.048  1.00  0.00    -0.048 C  
ENDROOT
BRANCH   2   5
HETATM    5  C   UNL     1      -7.847   3.811  65.223  1.00  0.00    -0.086 A  
HETATM    6  C   UNL     1      -7.035   4.341  66.245  1.00  0.00    -0.066 A  
HETATM    7  C   UNL     1      -7.366   5.541  66.920  1.00  0.00    -0.079 A  
HETATM    8  C   UNL     1      -8.511   6.262  66.567  1.00  0.00    -0.121 A  
HETATM    9  C   UNL     1      -8.970   4.571  64.860  1.00  0.00    -0.151 A  
HETATM   10  C   UNL     1      -9.291   5.759  65.516  1.00  0.00     0.077 A  
BRANCH   8  11
HETATM   11  C   UNL     1      -9.088   7.444  67.341  1.00  0.00    -0.122 C  
BRANCH  11  12
HETATM   12  N   UNL     1      -9.957   8.421  66.659  1.00  0.00    -0.268 NA 
HETATM   13  C   UNL     1     -10.771   9.232  67.581  1.00  0.00    -0.209 C  
HETATM   14  C   UNL     1     -10.117  10.468  68.281  1.00  0.00    -0.160 C  
HETATM   15  N   UNL     1      -8.984  11.184  67.637  1.00  0.00    -0.139 NA 
HETATM   16  C   UNL     1      -8.264  10.315  66.701  1.00  0.00    -0.125 C  
HETATM   17  C   UNL     1      -9.138   9.363  65.860  1.00  0.00    -0.195 C  
BRANCH  15  18
HETATM   18  C   UNL     1      -9.329  12.559  67.167  1.00  0.00    -0.201 C  
BRANCH  18  19
HETATM   19  C   UNL     1     -10.305  12.496  65.973  1.00  0.00    -0.277 A  
HETATM   20  C   UNL     1     -11.675  12.758  66.149  1.00  0.00    -0.458 A  
HETATM   21  C   UNL     1      -9.842  12.212  64.674  1.00  0.00    -0.153 A  
HETATM   22  C   UNL     1     -12.545  12.765  65.054  1.00  0.00    -0.538 A  
HETATM   23  C   UNL     1     -10.715  12.213  63.585  1.00  0.00    -0.518 A  
HETATM   24  C   UNL     1     -12.064  12.498  63.773  1.00  0.00    -0.615 A  
ENDBRANCH  18  19
BRANCH  18  25
HETATM   25  C   UNL     1      -9.906  13.514  68.234  1.00  0.00    -0.233 A  
HETATM   26  C   UNL     1     -11.044  15.238  70.154  1.00  0.00    -0.293 A  
HETATM   27  C   UNL     1      -9.834  15.571  69.553  1.00  0.00    -0.284 A  
HETATM   28 CL   UNL     1     -11.778  16.324  71.267  1.00  0.00    -0.460 Cl 
HETATM   29  C   UNL     1     -11.101  13.174  68.897  1.00  0.00    -0.310 A  
HETATM   30  C   UNL     1      -9.262  14.705  68.614  1.00  0.00    -0.194 A  
HETATM   31  C   UNL     1     -11.669  14.031  69.842  1.00  0.00    -0.368 A  
ENDBRANCH  18  25
ENDBRANCH  15  18
ENDBRANCH  11  12
ENDBRANCH   8  11
ENDBRANCH   2   5
TORSDOF 6
ENDMDL
MODEL      112
REMARK 921   NORMALIZED FREE ENERGY PREDICTED BY IDOCK:   -4.07 KCAL/MOL
REMARK 922        TOTAL FREE ENERGY PREDICTED BY IDOCK:   -6.07 KCAL/MOL
REMARK 923 INTER-LIGAND FREE ENERGY PREDICTED BY IDOCK:   -4.95 KCAL/MOL
REMARK 924 INTRA-LIGAND FREE ENERGY PREDICTED BY IDOCK:   -1.12 KCAL/MOL
REMARK 927      BINDING AFFINITY PREDICTED BY RF-SCORE:    0.00 PKD
ROOT
HETATM    1  C   UNL     1      -7.880   2.655  63.561  1.00  0.00    -0.069 C  
HETATM    2  C   UNL     1      -8.917   3.115  64.610  1.00  0.00    -0.124 C  
HETATM    3  C   UNL     1      -9.143   1.922  65.572  1.00  0.00    -0.079 C  
HETATM    4  C   UNL     1     -10.238   3.385  63.854  1.00  0.00    -0.216 C  
ENDROOT
BRANCH   2   5
HETATM    5  C   UNL     1      -8.486   4.353  65.424  1.00  0.00    -0.120 A  
HETATM    6  C   UNL     1      -8.730   4.519  66.802  1.00  0.00    -0.111 A  
HETATM    7  C   UNL     1      -8.433   5.730  67.476  1.00  0.00    -0.103 A  
HETATM    8  C   UNL     1      -7.855   6.802  66.790  1.00  0.00    -0.107 A  
HETATM    9  C   UNL     1      -7.870   5.429  64.765  1.00  0.00    -0.103 A  
HETATM   10  C   UNL     1      -7.568   6.617  65.430  1.00  0.00    -0.086 A  
BRANCH   8  11
HETATM   11  C   UNL     1      -7.679   8.214  67.340  1.00  0.00    -0.102 C  
BRANCH  11  12
HETATM   12  N   UNL     1      -8.844   8.957  67.858  1.00  0.00    -0.132 NA 
HETATM   13  C   UNL     1      -8.597   9.614  69.154  1.00  0.00    -0.146 C  
HETATM   14  C   UNL     1      -7.850  10.988  69.175  1.00  0.00    -0.091 C  
HETATM   15  N   UNL     1      -7.922  11.900  68.003  1.00  0.00    -0.138 NA 
HETATM   16  C   UNL     1      -8.221  11.166  66.770  1.00  0.00    -0.154 C  
HETATM   17  C   UNL     1      -9.240  10.017  66.902  1.00  0.00    -0.147 C  
BRANCH  15  18
HETATM   18  C   UNL     1      -8.698  13.151  68.260  1.00  0.00    -0.165 C  
BRANCH  18  19
HETATM   19  C   UNL     1      -7.746  14.347  68.470  1.00  0.00    -0.135 A  
HETATM   20  C   UNL     1      -8.162  15.481  69.188  1.00  0.00    -0.247 A  
HETATM   21  C   UNL     1      -6.426  14.315  67.981  1.00  0.00    -0.158 A  
HETATM   22  C   UNL     1      -7.275  16.535  69.432  1.00  0.00    -0.151 A  
HETATM   23  C   UNL     1      -5.545  15.371  68.222  1.00  0.00    -0.120 A  
HETATM   24  C   UNL     1      -5.967  16.477  68.955  1.00  0.00    -0.143 A  
ENDBRANCH  18  19
BRANCH  18  25
HETATM   25  C   UNL     1      -9.746  13.528  67.189  1.00  0.00    -0.244 A  
HETATM   26  C   UNL     1     -11.612  14.295  65.219  1.00  0.00    -0.348 A  
HETATM   27  C   UNL     1     -12.040  13.602  66.348  1.00  0.00    -0.478 A  
HETATM   28 CL   UNL     1     -12.758  14.831  64.055  1.00  0.00     0.075 Cl 
HETATM   29  C   UNL     1      -9.331  14.181  66.012  1.00  0.00    -0.108 A  
HETATM   30  C   UNL     1     -11.109  13.206  67.316  1.00  0.00    -0.305 A  
HETATM   31  C   UNL     1     -10.256  14.568  65.041  1.00  0.00    -0.398 A  
ENDBRANCH  18  25
ENDBRANCH  15  18
ENDBRANCH  11  12
ENDBRANCH   8  11
ENDBRANCH   2   5
TORSDOF 6
ENDMDL
MODEL      113
REMARK 921   NORMALIZED FREE ENERGY PREDICTED BY IDOCK:   -4.06 KCAL/MOL
REMARK 922        TOTAL FREE ENERGY PREDICTED BY IDOCK:   -6.06 KCAL/MOL
REMARK 923 INTER-LIGAND FREE ENERGY PREDICTED BY IDOCK:   -5.34 KCAL/MOL
REMARK 924 INTRA-LIGAND FREE ENERGY PREDICTED BY IDOCK:   -0.72 KCAL/MOL
REMARK 927      BINDING AFFINITY PREDICTED BY RF-SCORE:    0.00 PKD
ROOT
HETATM    1  C   UNL     1      -8.045   3.897  64.910  1.00  0.00    -0.093 C  
HETATM    2  C   UNL     1      -8.509   4.372  66.306  1.00  0.00    -0.112 C  
HETATM    3  C   UNL     1      -7.689   3.572  67.349  1.00  0.00    -0.078 C  
HETATM    4  C   UNL     1      -9.996   3.975  66.449  1.00  0.00    -0.114 C  
ENDROOT
BRANCH   2   5
HETATM    5  C   UNL     1      -8.316   5.883  66.556  1.00  0.00    -0.112 A  
HETATM    6  C   UNL     1      -7.945   6.440  67.796  1.00  0.00    -0.114 A  
HETATM    7  C   UNL     1      -7.911   7.840  68.009  1.00  0.00    -0.124 A  
HETATM    8  C   UNL     1      -8.221   8.725  66.973  1.00  0.00    -0.103 A  
HETATM    9  C   UNL     1      -8.587   6.791  65.519  1.00  0.00    -0.095 A  
HETATM   10  C   UNL     1      -8.542   8.170  65.725  1.00  0.00    -0.175 A  
BRANCH   8  11
HETATM   11  C   UNL     1      -8.423  10.230  67.123  1.00  0.00    -0.125 C  
BRANCH  11  12
HETATM   12  N   UNL     1      -8.450  10.842  68.465  1.00  0.00    -0.140 NA 
HETATM   13  C   UNL     1      -7.297  11.716  68.739  1.00  0.00    -0.118 C  
HETATM   14  C   UNL     1      -7.310  13.181  68.191  1.00  0.00    -0.119 C  
HETATM   15  N   UNL     1      -8.598  13.885  67.958  1.00  0.00    -0.168 NA 
HETATM   16  C   UNL     1      -9.696  12.937  67.745  1.00  0.00    -0.214 C  
HETATM   17  C   UNL     1      -9.669  11.670  68.623  1.00  0.00    -0.143 C  
BRANCH  15  18
HETATM   18  C   UNL     1      -8.846  15.017  68.901  1.00  0.00    -0.201 C  
BRANCH  18  19
HETATM   19  C   UNL     1      -8.501  16.365  68.233  1.00  0.00    -0.195 A  
HETATM   20  C   UNL     1      -8.420  16.476  66.834  1.00  0.00    -0.244 A  
HETATM   21  C   UNL     1      -8.297  17.523  69.006  1.00  0.00    -0.048 A  
HETATM   22  C   UNL     1      -8.172  17.713  66.231  1.00  0.00    -0.264 A  
HETATM   23  C   UNL     1      -8.044  18.755  68.401  1.00  0.00    -0.371 A  
HETATM   24  C   UNL     1      -7.990  18.852  67.013  1.00  0.00    -0.262 A  
ENDBRANCH  18  19
BRANCH  18  25
HETATM   25  C   UNL     1     -10.269  15.103  69.494  1.00  0.00    -0.241 A  
HETATM   26  C   UNL     1     -12.839  15.215  70.651  1.00  0.00    -0.388 A  
HETATM   27  C   UNL     1     -12.704  15.088  69.271  1.00  0.00     0.251 A  
HETATM   28 CL   UNL     1     -14.403  15.206  71.365  1.00  0.00    -0.604 Cl 
HETATM   29  C   UNL     1     -10.434  15.287  70.881  1.00  0.00     0.151 A  
HETATM   30  C   UNL     1     -11.427  15.052  68.698  1.00  0.00    -0.329 A  
HETATM   31  C   UNL     1     -11.705  15.334  71.455  1.00  0.00    -0.444 A  
ENDBRANCH  18  25
ENDBRANCH  15  18
ENDBRANCH  11  12
ENDBRANCH   8  11
ENDBRANCH   2   5
TORSDOF 6
ENDMDL
MODEL      114
REMARK 921   NORMALIZED FREE ENERGY PREDICTED BY IDOCK:   -4.05 KCAL/MOL
REMARK 922        TOTAL FREE ENERGY PREDICTED BY IDOCK:   -6.05 KCAL/MOL
REMARK 923 INTER-LIGAND FREE ENERGY PREDICTED BY IDOCK:   -7.08 KCAL/MOL
REMARK 924 INTRA-LIGAND FREE ENERGY PREDICTED BY IDOCK:    1.02 KCAL/MOL
REMARK 927      BINDING AFFINITY PREDICTED BY RF-SCORE:    0.00 PKD
ROOT
HETATM    1  C   UNL     1     -10.809   3.721  73.900  1.00  0.00    -0.302 C  
HETATM    2  C   UNL     1      -9.733   4.248  72.924  1.00  0.00    -0.172 C  
HETATM    3  C   UNL     1      -9.348   3.068  71.998  1.00  0.00    -0.189 C  
HETATM    4  C   UNL     1      -8.495   4.621  73.773  1.00  0.00    -0.104 C  
ENDROOT
BRANCH   2   5
HETATM    5  C   UNL     1     -10.190   5.445  72.063  1.00  0.00    -0.256 A  
HETATM    6  C   UNL     1     -10.848   5.323  70.823  1.00  0.00    -0.117 A  
HETATM    7  C   UNL     1     -11.128   6.448  70.010  1.00  0.00    -0.442 A  
HETATM    8  C   UNL     1     -10.781   7.734  70.431  1.00  0.00    -0.238 A  
HETATM    9  C   UNL     1      -9.885   6.750  72.483  1.00  0.00    -0.177 A  
HETATM   10  C   UNL     1     -10.171   7.859  71.688  1.00  0.00    -0.239 A  
BRANCH   8  11
HETATM   11  C   UNL     1     -10.837   8.994  69.571  1.00  0.00    -0.166 C  
BRANCH  11  12
HETATM   12  N   UNL     1     -10.497  10.305  70.157  1.00  0.00    -0.253 NA 
HETATM   13  C   UNL     1      -9.633  11.131  69.296  1.00  0.00     0.091 C  
HETATM   14  C   UNL     1     -10.284  11.945  68.129  1.00  0.00    -0.199 C  
HETATM   15  N   UNL     1     -11.700  12.388  68.221  1.00  0.00    -0.332 NA 
HETATM   16  C   UNL     1     -12.469  11.540  69.137  1.00  0.00     0.206 C  
HETATM   17  C   UNL     1     -11.730  11.085  70.412  1.00  0.00    -0.343 C  
BRANCH  15  18
HETATM   18  C   UNL     1     -11.861  13.866  68.361  1.00  0.00    -0.374 C  
BRANCH  18  19
HETATM   19  C   UNL     1     -12.028  14.257  69.844  1.00  0.00    -0.397 A  
HETATM   20  C   UNL     1     -10.980  14.873  70.549  1.00  0.00    -0.135 A  
HETATM   21  C   UNL     1     -13.246  14.040  70.516  1.00  0.00     0.022 A  
HETATM   22  C   UNL     1     -11.158  15.286  71.874  1.00  0.00    -0.213 A  
HETATM   23  C   UNL     1     -13.418  14.447  71.841  1.00  0.00    -0.479 A  
HETATM   24  C   UNL     1     -12.377  15.077  72.517  1.00  0.00    -0.445 A  
ENDBRANCH  18  19
BRANCH  18  25
HETATM   25  C   UNL     1     -10.741  14.730  67.740  1.00  0.00    -0.268 A  
HETATM   26  C   UNL     1      -8.655  16.309  66.688  1.00  0.00    -0.267 A  
HETATM   27  C   UNL     1      -9.960  16.496  66.241  1.00  0.00    -0.346 A  
HETATM   28 CL   UNL     1      -7.394  17.323  66.104  1.00  0.00    -0.339 Cl 
HETATM   29  C   UNL     1      -9.405  14.524  68.134  1.00  0.00    -0.197 A  
HETATM   30  C   UNL     1     -10.991  15.699  66.751  1.00  0.00    -0.230 A  
HETATM   31  C   UNL     1      -8.373  15.311  67.619  1.00  0.00    -0.176 A  
ENDBRANCH  18  25
ENDBRANCH  15  18
ENDBRANCH  11  12
ENDBRANCH   8  11
ENDBRANCH   2   5
TORSDOF 6
ENDMDL
MODEL      115
REMARK 921   NORMALIZED FREE ENERGY PREDICTED BY IDOCK:   -4.05 KCAL/MOL
REMARK 922        TOTAL FREE ENERGY PREDICTED BY IDOCK:   -6.05 KCAL/MOL
REMARK 923 INTER-LIGAND FREE ENERGY PREDICTED BY IDOCK:   -5.97 KCAL/MOL
REMARK 924 INTRA-LIGAND FREE ENERGY PREDICTED BY IDOCK:   -0.08 KCAL/MOL
REMARK 927      BINDING AFFINITY PREDICTED BY RF-SCORE:    0.00 PKD
ROOT
HETATM    1  C   UNL     1     -12.029  12.273  66.095  1.00  0.00    -0.323 C  
HETATM    2  C   UNL     1     -11.280  12.547  64.772  1.00  0.00    -0.344 C  
HETATM    3  C   UNL     1     -11.050  14.078  64.694  1.00  0.00    -0.387 C  
HETATM    4  C   UNL     1     -12.228  12.141  63.620  1.00  0.00    -0.663 C  
ENDROOT
BRANCH   2   5
HETATM    5  C   UNL     1      -9.924  11.821  64.650  1.00  0.00    -0.275 A  
HETATM    6  C   UNL     1      -9.383  11.350  63.437  1.00  0.00    -0.227 A  
HETATM    7  C   UNL     1      -8.200  10.573  63.394  1.00  0.00    -0.098 A  
HETATM    8  C   UNL     1      -7.507  10.269  64.569  1.00  0.00    -0.088 A  
HETATM    9  C   UNL     1      -9.190  11.536  65.813  1.00  0.00    -0.210 A  
HETATM   10  C   UNL     1      -8.019  10.780  65.771  1.00  0.00    -0.122 A  
BRANCH   8  11
HETATM   11  C   UNL     1      -6.350   9.280  64.686  1.00  0.00    -0.076 C  
BRANCH  11  12
HETATM   12  N   UNL     1      -6.573   7.846  64.421  1.00  0.00    -0.056 NA 
HETATM   13  C   UNL     1      -5.762   6.956  65.269  1.00  0.00    -0.031 C  
HETATM   14  C   UNL     1      -6.244   6.650  66.725  1.00  0.00    -0.040 C  
HETATM   15  N   UNL     1      -7.690   6.706  67.064  1.00  0.00    -0.102 NA 
HETATM   16  C   UNL     1      -8.425   7.574  66.140  1.00  0.00    -0.144 C  
HETATM   17  C   UNL     1      -7.993   7.499  64.661  1.00  0.00    -0.133 C  
BRANCH  15  18
HETATM   18  C   UNL     1      -8.289   5.372  67.372  1.00  0.00    -0.103 C  
BRANCH  18  19
HETATM   19  C   UNL     1      -9.300   5.486  68.533  1.00  0.00    -0.143 A  
HETATM   20  C   UNL     1      -9.094   4.792  69.737  1.00  0.00    -0.159 A  
HETATM   21  C   UNL     1     -10.431   6.317  68.428  1.00  0.00    -0.273 A  
HETATM   22  C   UNL     1      -9.978   4.949  70.810  1.00  0.00    -0.292 A  
HETATM   23  C   UNL     1     -11.314   6.467  69.498  1.00  0.00    -0.460 A  
HETATM   24  C   UNL     1     -11.083   5.790  70.692  1.00  0.00    -0.272 A  
ENDBRANCH  18  19
BRANCH  18  25
HETATM   25  C   UNL     1      -8.967   4.646  66.189  1.00  0.00    -0.121 A  
HETATM   26  C   UNL     1     -10.131   3.338  63.979  1.00  0.00    -0.188 A  
HETATM   27  C   UNL     1     -10.933   4.053  64.864  1.00  0.00     0.049 A  
HETATM   28 CL   UNL     1     -10.828   2.605  62.588  1.00  0.00    -0.173 Cl 
HETATM   29  C   UNL     1      -8.185   3.871  65.310  1.00  0.00    -0.101 A  
HETATM   30  C   UNL     1     -10.355   4.686  65.971  1.00  0.00    -0.318 A  
HETATM   31  C   UNL     1      -8.760   3.230  64.211  1.00  0.00    -0.093 A  
ENDBRANCH  18  25
ENDBRANCH  15  18
ENDBRANCH  11  12
ENDBRANCH   8  11
ENDBRANCH   2   5
TORSDOF 6
ENDMDL
MODEL      116
REMARK 921   NORMALIZED FREE ENERGY PREDICTED BY IDOCK:   -4.03 KCAL/MOL
REMARK 922        TOTAL FREE ENERGY PREDICTED BY IDOCK:   -6.02 KCAL/MOL
REMARK 923 INTER-LIGAND FREE ENERGY PREDICTED BY IDOCK:   -7.42 KCAL/MOL
REMARK 924 INTRA-LIGAND FREE ENERGY PREDICTED BY IDOCK:    1.39 KCAL/MOL
REMARK 927      BINDING AFFINITY PREDICTED BY RF-SCORE:    0.00 PKD
ROOT
HETATM    1  C   UNL     1      -7.732  19.467  65.763  1.00  0.00    -0.207 C  
HETATM    2  C   UNL     1      -8.777  18.829  66.706  1.00  0.00    -0.303 C  
HETATM    3  C   UNL     1      -9.785  19.945  67.080  1.00  0.00    -0.523 C  
HETATM    4  C   UNL     1      -8.029  18.403  67.990  1.00  0.00    -0.289 C  
ENDROOT
BRANCH   2   5
HETATM    5  C   UNL     1      -9.540  17.637  66.092  1.00  0.00    -0.206 A  
HETATM    6  C   UNL     1      -9.019  16.331  65.990  1.00  0.00    -0.325 A  
HETATM    7  C   UNL     1      -9.704  15.303  65.298  1.00  0.00    -0.152 A  
HETATM    8  C   UNL     1     -10.949  15.547  64.712  1.00  0.00    -0.416 A  
HETATM    9  C   UNL     1     -10.808  17.849  65.528  1.00  0.00     0.112 A  
HETATM   10  C   UNL     1     -11.488  16.834  64.857  1.00  0.00     0.345 A  
BRANCH   8  11
HETATM   11  C   UNL     1     -11.689  14.598  63.773  1.00  0.00     0.390 C  
BRANCH  11  12
HETATM   12  N   UNL     1     -12.573  13.553  64.323  1.00  0.00    -0.656 NA 
HETATM   13  C   UNL     1     -12.188  12.187  63.931  1.00  0.00    -0.489 C  
HETATM   14  C   UNL     1     -11.038  11.471  64.713  1.00  0.00    -0.233 C  
HETATM   15  N   UNL     1     -10.754  11.829  66.127  1.00  0.00    -0.267 NA 
HETATM   16  C   UNL     1     -11.216  13.185  66.439  1.00  0.00    -0.300 C  
HETATM   17  C   UNL     1     -12.558  13.601  65.804  1.00  0.00    -0.461 C  
BRANCH  15  18
HETATM   18  C   UNL     1     -11.093  10.750  67.102  1.00  0.00    -0.227 C  
BRANCH  18  19
HETATM   19  C   UNL     1      -9.883   9.819  67.325  1.00  0.00    -0.228 A  
HETATM   20  C   UNL     1      -8.870  10.161  68.237  1.00  0.00    -0.124 A  
HETATM   21  C   UNL     1      -9.782   8.589  66.649  1.00  0.00    -0.318 A  
HETATM   22  C   UNL     1      -7.808   9.285  68.486  1.00  0.00    -0.090 A  
HETATM   23  C   UNL     1      -8.718   7.719  66.895  1.00  0.00    -0.136 A  
HETATM   24  C   UNL     1      -7.736   8.063  67.819  1.00  0.00    -0.110 A  
ENDBRANCH  18  19
BRANCH  18  25
HETATM   25  C   UNL     1     -11.621  11.220  68.475  1.00  0.00    -0.384 A  
HETATM   26  C   UNL     1     -12.648  12.013  70.979  1.00  0.00    -0.273 A  
HETATM   27  C   UNL     1     -12.161  12.971  70.094  1.00  0.00    -0.377 A  
HETATM   28 CL   UNL     1     -13.345  12.501  72.474  1.00  0.00    -0.374 Cl 
HETATM   29  C   UNL     1     -12.069  10.268  69.411  1.00  0.00     0.023 A  
HETATM   30  C   UNL     1     -11.634  12.573  68.859  1.00  0.00    -0.364 A  
HETATM   31  C   UNL     1     -12.585  10.661  70.647  1.00  0.00    -0.454 A  
ENDBRANCH  18  25
ENDBRANCH  15  18
ENDBRANCH  11  12
ENDBRANCH   8  11
ENDBRANCH   2   5
TORSDOF 6
ENDMDL
MODEL      117
REMARK 921   NORMALIZED FREE ENERGY PREDICTED BY IDOCK:   -3.95 KCAL/MOL
REMARK 922        TOTAL FREE ENERGY PREDICTED BY IDOCK:   -5.91 KCAL/MOL
REMARK 923 INTER-LIGAND FREE ENERGY PREDICTED BY IDOCK:   -8.25 KCAL/MOL
REMARK 924 INTRA-LIGAND FREE ENERGY PREDICTED BY IDOCK:    2.34 KCAL/MOL
REMARK 927      BINDING AFFINITY PREDICTED BY RF-SCORE:    0.00 PKD
ROOT
HETATM    1  C   UNL     1     -10.944   6.354  70.950  1.00  0.00    -0.335 C  
HETATM    2  C   UNL     1     -11.720   7.284  71.909  1.00  0.00    -0.323 C  
HETATM    3  C   UNL     1     -10.916   7.339  73.232  1.00  0.00    -0.355 C  
HETATM    4  C   UNL     1     -13.080   6.606  72.196  1.00  0.00     0.007 C  
ENDROOT
BRANCH   2   5
HETATM    5  C   UNL     1     -11.922   8.718  71.374  1.00  0.00    -0.367 A  
HETATM    6  C   UNL     1     -11.297   9.227  70.218  1.00  0.00    -0.238 A  
HETATM    7  C   UNL     1     -11.410  10.589  69.843  1.00  0.00    -0.380 A  
HETATM    8  C   UNL     1     -12.179  11.474  70.604  1.00  0.00    -0.473 A  
HETATM    9  C   UNL     1     -12.719   9.616  72.101  1.00  0.00    -0.427 A  
HETATM   10  C   UNL     1     -12.840  10.954  71.726  1.00  0.00    -0.509 A  
BRANCH   8  11
HETATM   11  C   UNL     1     -12.216  12.990  70.431  1.00  0.00    -0.310 C  
BRANCH  11  12
HETATM   12  N   UNL     1     -11.243  13.657  69.544  1.00  0.00    -0.194 NA 
HETATM   13  C   UNL     1     -10.293  12.729  68.907  1.00  0.00    -0.031 C  
HETATM   14  C   UNL     1     -10.744  11.937  67.636  1.00  0.00    -0.215 C  
HETATM   15  N   UNL     1     -11.788  12.493  66.736  1.00  0.00    -0.522 NA 
HETATM   16  C   UNL     1     -12.655  13.442  67.442  1.00  0.00     0.454 C  
HETATM   17  C   UNL     1     -11.951  14.368  68.454  1.00  0.00    -0.293 C  
BRANCH  15  18
HETATM   18  C   UNL     1     -11.272  12.904  65.396  1.00  0.00    -0.283 C  
BRANCH  18  19
HETATM   19  C   UNL     1     -10.535  14.257  65.490  1.00  0.00    -0.361 A  
HETATM   20  C   UNL     1     -11.093  15.421  64.936  1.00  0.00    -0.435 A  
HETATM   21  C   UNL     1      -9.304  14.364  66.165  1.00  0.00    -0.221 A  
HETATM   22  C   UNL     1     -10.453  16.657  65.080  1.00  0.00    -0.117 A  
HETATM   23  C   UNL     1      -8.665  15.598  66.302  1.00  0.00    -0.325 A  
HETATM   24  C   UNL     1      -9.244  16.745  65.767  1.00  0.00    -0.001 A  
ENDBRANCH  18  19
BRANCH  18  25
HETATM   25  C   UNL     1     -10.357  11.885  64.681  1.00  0.00    -0.326 A  
HETATM   26  C   UNL     1      -8.644  10.011  63.455  1.00  0.00    -0.208 A  
HETATM   27  C   UNL     1      -9.071  11.130  62.745  1.00  0.00    -0.353 A  
HETATM   28 CL   UNL     1      -7.539   8.907  62.736  1.00  0.00    -0.106 Cl 
HETATM   29  C   UNL     1      -9.956  10.718  65.358  1.00  0.00    -0.330 A  
HETATM   30  C   UNL     1      -9.936  12.049  63.349  1.00  0.00    -0.384 A  
HETATM   31  C   UNL     1      -9.102   9.794  64.754  1.00  0.00    -0.290 A  
ENDBRANCH  18  25
ENDBRANCH  15  18
ENDBRANCH  11  12
ENDBRANCH   8  11
ENDBRANCH   2   5
TORSDOF 6
ENDMDL
MODEL      118
REMARK 921   NORMALIZED FREE ENERGY PREDICTED BY IDOCK:   -3.94 KCAL/MOL
REMARK 922        TOTAL FREE ENERGY PREDICTED BY IDOCK:   -5.90 KCAL/MOL
REMARK 923 INTER-LIGAND FREE ENERGY PREDICTED BY IDOCK:   -6.02 KCAL/MOL
REMARK 924 INTRA-LIGAND FREE ENERGY PREDICTED BY IDOCK:    0.12 KCAL/MOL
REMARK 927      BINDING AFFINITY PREDICTED BY RF-SCORE:    0.00 PKD
ROOT
HETATM    1  C   UNL     1      -9.495   4.584  74.353  1.00  0.00    -0.137 C  
HETATM    2  C   UNL     1     -10.408   5.131  73.233  1.00  0.00    -0.241 C  
HETATM    3  C   UNL     1     -10.627   6.637  73.527  1.00  0.00    -0.334 C  
HETATM    4  C   UNL     1     -11.769   4.409  73.364  1.00  0.00    -0.128 C  
ENDROOT
BRANCH   2   5
HETATM    5  C   UNL     1      -9.832   4.967  71.811  1.00  0.00    -0.240 A  
HETATM    6  C   UNL     1      -8.506   4.582  71.533  1.00  0.00    -0.116 A  
HETATM    7  C   UNL     1      -7.988   4.574  70.214  1.00  0.00    -0.063 A  
HETATM    8  C   UNL     1      -8.797   4.926  69.131  1.00  0.00    -0.118 A  
HETATM    9  C   UNL     1     -10.637   5.279  70.704  1.00  0.00    -0.263 A  
HETATM   10  C   UNL     1     -10.131   5.261  69.404  1.00  0.00    -0.311 A  
BRANCH   8  11
HETATM   11  C   UNL     1      -8.314   5.157  67.701  1.00  0.00    -0.105 C  
BRANCH  11  12
HETATM   12  N   UNL     1      -7.297   6.189  67.423  1.00  0.00    -0.076 NA 
HETATM   13  C   UNL     1      -7.211   6.564  66.001  1.00  0.00    -0.071 C  
HETATM   14  C   UNL     1      -8.246   7.585  65.423  1.00  0.00    -0.135 C  
HETATM   15  N   UNL     1      -8.878   8.597  66.310  1.00  0.00    -0.147 NA 
HETATM   16  C   UNL     1      -8.874   8.161  67.710  1.00  0.00    -0.130 C  
HETATM   17  C   UNL     1      -7.603   7.425  68.180  1.00  0.00    -0.114 C  
BRANCH  15  18
HETATM   18  C   UNL     1      -8.445   9.999  66.030  1.00  0.00    -0.131 C  
BRANCH  18  19
HETATM   19  C   UNL     1      -7.496  10.041  64.814  1.00  0.00    -0.143 A  
HETATM   20  C   UNL     1      -6.139  10.372  64.971  1.00  0.00    -0.117 A  
HETATM   21  C   UNL     1      -7.956   9.713  63.525  1.00  0.00    -0.140 A  
HETATM   22  C   UNL     1      -5.267  10.345  63.877  1.00  0.00    -0.149 A  
HETATM   23  C   UNL     1      -7.085   9.693  62.434  1.00  0.00    -0.109 A  
HETATM   24  C   UNL     1      -5.739  10.001  62.611  1.00  0.00    -0.106 A  
ENDBRANCH  18  19
BRANCH  18  25
HETATM   25  C   UNL     1      -9.578  11.026  65.815  1.00  0.00    -0.260 A  
HETATM   26  C   UNL     1     -11.692  12.864  65.491  1.00  0.00    -0.383 A  
HETATM   27  C   UNL     1     -11.003  12.396  64.376  1.00  0.00    -0.377 A  
HETATM   28 CL   UNL     1     -13.031  13.925  65.290  1.00  0.00    -0.433 Cl 
HETATM   29  C   UNL     1     -10.255  11.557  66.929  1.00  0.00    -0.249 A  
HETATM   30  C   UNL     1      -9.942  11.498  64.540  1.00  0.00    -0.306 A  
HETATM   31  C   UNL     1     -11.307  12.461  66.769  1.00  0.00    -0.391 A  
ENDBRANCH  18  25
ENDBRANCH  15  18
ENDBRANCH  11  12
ENDBRANCH   8  11
ENDBRANCH   2   5
TORSDOF 6
ENDMDL
MODEL      119
REMARK 921   NORMALIZED FREE ENERGY PREDICTED BY IDOCK:   -3.88 KCAL/MOL
REMARK 922        TOTAL FREE ENERGY PREDICTED BY IDOCK:   -5.82 KCAL/MOL
REMARK 923 INTER-LIGAND FREE ENERGY PREDICTED BY IDOCK:   -6.07 KCAL/MOL
REMARK 924 INTRA-LIGAND FREE ENERGY PREDICTED BY IDOCK:    0.25 KCAL/MOL
REMARK 927      BINDING AFFINITY PREDICTED BY RF-SCORE:    0.00 PKD
ROOT
HETATM    1  C   UNL     1     -12.112  15.284  72.649  1.00  0.00    -0.522 C  
HETATM    2  C   UNL     1     -12.952  14.391  71.709  1.00  0.00    -0.419 C  
HETATM    3  C   UNL     1     -14.117  15.265  71.181  1.00  0.00    -0.438 C  
HETATM    4  C   UNL     1     -13.549  13.257  72.573  1.00  0.00    -0.637 C  
ENDROOT
BRANCH   2   5
HETATM    5  C   UNL     1     -12.164  13.815  70.513  1.00  0.00    -0.440 A  
HETATM    6  C   UNL     1     -12.146  12.450  70.160  1.00  0.00    -0.366 A  
HETATM    7  C   UNL     1     -11.303  11.952  69.137  1.00  0.00    -0.338 A  
HETATM    8  C   UNL     1     -10.472  12.815  68.417  1.00  0.00    -0.253 A  
HETATM    9  C   UNL     1     -11.350  14.668  69.751  1.00  0.00    -0.315 A  
HETATM   10  C   UNL     1     -10.528  14.179  68.736  1.00  0.00    -0.249 A  
BRANCH   8  11
HETATM   11  C   UNL     1      -9.378  12.385  67.443  1.00  0.00    -0.181 C  
BRANCH  11  12
HETATM   12  N   UNL     1      -9.424  11.048  66.821  1.00  0.00    -0.179 NA 
HETATM   13  C   UNL     1      -8.285  10.771  65.930  1.00  0.00    -0.155 C  
HETATM   14  C   UNL     1      -6.928  10.311  66.557  1.00  0.00    -0.107 C  
HETATM   15  N   UNL     1      -6.907   9.591  67.857  1.00  0.00    -0.074 NA 
HETATM   16  C   UNL     1      -8.101   9.888  68.654  1.00  0.00    -0.099 C  
HETATM   17  C   UNL     1      -9.422   9.999  67.867  1.00  0.00    -0.144 C  
BRANCH  15  18
HETATM   18  C   UNL     1      -6.497   8.159  67.746  1.00  0.00    -0.053 C  
BRANCH  18  19
HETATM   19  C   UNL     1      -6.141   7.587  69.135  1.00  0.00    -0.034 A  
HETATM   20  C   UNL     1      -5.913   8.440  70.228  1.00  0.00    -0.028 A  
HETATM   21  C   UNL     1      -6.074   6.198  69.349  1.00  0.00    -0.029 A  
HETATM   22  C   UNL     1      -5.655   7.916  71.500  1.00  0.00    -0.034 A  
HETATM   23  C   UNL     1      -5.811   5.678  70.617  1.00  0.00    -0.024 A  
HETATM   24  C   UNL     1      -5.610   6.537  71.694  1.00  0.00    -0.032 A  
ENDBRANCH  18  19
BRANCH  18  25
HETATM   25  C   UNL     1      -7.512   7.216  67.063  1.00  0.00    -0.097 A  
HETATM   26  C   UNL     1      -9.363   5.441  65.890  1.00  0.00    -0.143 A  
HETATM   27  C   UNL     1      -8.417   6.083  65.095  1.00  0.00    -0.112 A  
HETATM   28 CL   UNL     1     -10.442   4.300  65.189  1.00  0.00    -0.247 Cl 
HETATM   29  C   UNL     1      -8.514   6.597  67.836  1.00  0.00    -0.119 A  
HETATM   30  C   UNL     1      -7.511   6.977  65.677  1.00  0.00    -0.085 A  
HETATM   31  C   UNL     1      -9.425   5.712  67.256  1.00  0.00    -0.115 A  
ENDBRANCH  18  25
ENDBRANCH  15  18
ENDBRANCH  11  12
ENDBRANCH   8  11
ENDBRANCH   2   5
TORSDOF 6
ENDMDL
MODEL      120
REMARK 921   NORMALIZED FREE ENERGY PREDICTED BY IDOCK:   -3.85 KCAL/MOL
REMARK 922        TOTAL FREE ENERGY PREDICTED BY IDOCK:   -5.78 KCAL/MOL
REMARK 923 INTER-LIGAND FREE ENERGY PREDICTED BY IDOCK:   -6.60 KCAL/MOL
REMARK 924 INTRA-LIGAND FREE ENERGY PREDICTED BY IDOCK:    0.82 KCAL/MOL
REMARK 927      BINDING AFFINITY PREDICTED BY RF-SCORE:    0.00 PKD
ROOT
HETATM    1  C   UNL     1     -11.104   5.776  71.504  1.00  0.00    -0.281 C  
HETATM    2  C   UNL     1     -10.027   6.215  70.487  1.00  0.00    -0.223 C  
HETATM    3  C   UNL     1      -9.988   5.133  69.378  1.00  0.00    -0.292 C  
HETATM    4  C   UNL     1      -8.670   6.198  71.227  1.00  0.00    -0.132 C  
ENDROOT
BRANCH   2   5
HETATM    5  C   UNL     1     -10.287   7.594  69.845  1.00  0.00    -0.225 A  
HETATM    6  C   UNL     1     -10.895   8.676  70.513  1.00  0.00    -0.257 A  
HETATM    7  C   UNL     1     -11.232   9.877  69.842  1.00  0.00    -0.298 A  
HETATM    8  C   UNL     1     -10.942  10.038  68.484  1.00  0.00    -0.255 A  
HETATM    9  C   UNL     1      -9.970   7.793  68.492  1.00  0.00    -0.193 A  
HETATM   10  C   UNL     1     -10.292   8.980  67.833  1.00  0.00    -0.290 A  
BRANCH   8  11
HETATM   11  C   UNL     1     -11.432  11.184  67.603  1.00  0.00    -0.250 C  
BRANCH  11  12
HETATM   12  N   UNL     1     -10.470  12.161  67.058  1.00  0.00    -0.218 NA 
HETATM   13  C   UNL     1     -11.088  13.438  66.658  1.00  0.00    -0.295 C  
HETATM   14  C   UNL     1     -11.387  14.510  67.757  1.00  0.00    -0.317 C  
HETATM   15  N   UNL     1     -10.573  14.560  68.999  1.00  0.00    -0.245 NA 
HETATM   16  C   UNL     1      -9.959  13.261  69.291  1.00  0.00     0.518 C  
HETATM   17  C   UNL     1      -9.435  12.477  68.070  1.00  0.00    -0.209 C  
BRANCH  15  18
HETATM   18  C   UNL     1      -9.700  15.767  69.100  1.00  0.00    -0.250 C  
BRANCH  18  19
HETATM   19  C   UNL     1      -8.217  15.382  68.916  1.00  0.00    -0.192 A  
HETATM   20  C   UNL     1      -7.618  15.411  67.645  1.00  0.00    -0.188 A  
HETATM   21  C   UNL     1      -7.419  15.030  70.021  1.00  0.00     0.096 A  
HETATM   22  C   UNL     1      -6.257  15.125  67.492  1.00  0.00    -0.079 A  
HETATM   23  C   UNL     1      -6.062  14.739  69.864  1.00  0.00    -0.141 A  
HETATM   24  C   UNL     1      -5.480  14.795  68.601  1.00  0.00    -0.094 A  
ENDBRANCH  18  19
BRANCH  18  25
HETATM   25  C   UNL     1     -10.037  16.929  68.139  1.00  0.00    -0.299 A  
HETATM   26  C   UNL     1     -10.597  19.012  66.323  1.00  0.00    -0.412 A  
HETATM   27  C   UNL     1     -10.534  19.279  67.688  1.00  0.00    -0.557 A  
HETATM   28 CL   UNL     1     -10.861  20.294  65.207  1.00  0.00    -0.107 Cl 
HETATM   29  C   UNL     1     -10.161  16.675  66.760  1.00  0.00    -0.293 A  
HETATM   30  C   UNL     1     -10.274  18.240  68.589  1.00  0.00    -0.377 A  
HETATM   31  C   UNL     1     -10.430  17.707  65.859  1.00  0.00    -0.247 A  
ENDBRANCH  18  25
ENDBRANCH  15  18
ENDBRANCH  11  12
ENDBRANCH   8  11
ENDBRANCH   2   5
TORSDOF 6
ENDMDL
MODEL      121
REMARK 921   NORMALIZED FREE ENERGY PREDICTED BY IDOCK:   -3.82 KCAL/MOL
REMARK 922        TOTAL FREE ENERGY PREDICTED BY IDOCK:   -5.74 KCAL/MOL
REMARK 923 INTER-LIGAND FREE ENERGY PREDICTED BY IDOCK:   -5.39 KCAL/MOL
REMARK 924 INTRA-LIGAND FREE ENERGY PREDICTED BY IDOCK:   -0.35 KCAL/MOL
REMARK 927      BINDING AFFINITY PREDICTED BY RF-SCORE:    0.00 PKD
ROOT
HETATM    1  C   UNL     1     -10.392  18.183  69.039  1.00  0.00    -0.135 C  
HETATM    2  C   UNL     1      -9.293  17.903  67.990  1.00  0.00    -0.274 C  
HETATM    3  C   UNL     1      -8.151  18.917  68.254  1.00  0.00    -0.353 C  
HETATM    4  C   UNL     1      -9.901  18.208  66.602  1.00  0.00    -0.350 C  
ENDROOT
BRANCH   2   5
HETATM    5  C   UNL     1      -8.723  16.469  68.038  1.00  0.00    -0.189 A  
HETATM    6  C   UNL     1      -7.964  15.954  69.108  1.00  0.00    -0.233 A  
HETATM    7  C   UNL     1      -7.351  14.678  69.046  1.00  0.00    -0.134 A  
HETATM    8  C   UNL     1      -7.507  13.869  67.917  1.00  0.00    -0.155 A  
HETATM    9  C   UNL     1      -8.897  15.624  66.931  1.00  0.00    -0.279 A  
HETATM   10  C   UNL     1      -8.304  14.363  66.874  1.00  0.00    -0.109 A  
BRANCH   8  11
HETATM   11  C   UNL     1      -6.741  12.578  67.639  1.00  0.00    -0.136 C  
BRANCH  11  12
HETATM   12  N   UNL     1      -7.263  11.288  68.129  1.00  0.00    -0.078 NA 
HETATM   13  C   UNL     1      -8.729  11.171  68.037  1.00  0.00    -0.141 C  
HETATM   14  C   UNL     1      -9.372  10.785  66.665  1.00  0.00    -0.166 C  
HETATM   15  N   UNL     1      -8.608   9.981  65.676  1.00  0.00    -0.149 NA 
HETATM   16  C   UNL     1      -7.162  10.120  65.875  1.00  0.00    -0.121 C  
HETATM   17  C   UNL     1      -6.688  10.173  67.341  1.00  0.00    -0.073 C  
BRANCH  15  18
HETATM   18  C   UNL     1      -9.142   8.600  65.481  1.00  0.00    -0.131 C  
BRANCH  18  19
HETATM   19  C   UNL     1      -8.206   7.780  64.567  1.00  0.00    -0.060 A  
HETATM   20  C   UNL     1      -7.506   6.668  65.066  1.00  0.00    -0.089 A  
HETATM   21  C   UNL     1      -8.061   8.103  63.205  1.00  0.00    -0.127 A  
HETATM   22  C   UNL     1      -6.710   5.889  64.219  1.00  0.00    -0.045 A  
HETATM   23  C   UNL     1      -7.262   7.326  62.364  1.00  0.00    -0.081 A  
HETATM   24  C   UNL     1      -6.593   6.215  62.869  1.00  0.00    -0.040 A  
ENDBRANCH  18  19
BRANCH  18  25
HETATM   25  C   UNL     1      -9.416   7.792  66.769  1.00  0.00    -0.251 A  
HETATM   26  C   UNL     1     -10.001   6.350  69.120  1.00  0.00    -0.149 A  
HETATM   27  C   UNL     1      -8.727   6.878  68.929  1.00  0.00    -0.130 A  
HETATM   28 CL   UNL     1     -10.383   5.538  70.587  1.00  0.00    -0.312 Cl 
HETATM   29  C   UNL     1     -10.680   7.201  66.962  1.00  0.00    -0.420 A  
HETATM   30  C   UNL     1      -8.434   7.578  67.752  1.00  0.00    -0.118 A  
HETATM   31  C   UNL     1     -10.972   6.494  68.130  1.00  0.00    -0.365 A  
ENDBRANCH  18  25
ENDBRANCH  15  18
ENDBRANCH  11  12
ENDBRANCH   8  11
ENDBRANCH   2   5
TORSDOF 6
ENDMDL
MODEL      122
REMARK 921   NORMALIZED FREE ENERGY PREDICTED BY IDOCK:   -3.77 KCAL/MOL
REMARK 922        TOTAL FREE ENERGY PREDICTED BY IDOCK:   -5.68 KCAL/MOL
REMARK 923 INTER-LIGAND FREE ENERGY PREDICTED BY IDOCK:   -6.27 KCAL/MOL
REMARK 924 INTRA-LIGAND FREE ENERGY PREDICTED BY IDOCK:    0.59 KCAL/MOL
REMARK 927      BINDING AFFINITY PREDICTED BY RF-SCORE:    0.00 PKD
ROOT
HETATM    1  C   UNL     1     -10.253   4.329  65.545  1.00  0.00    -0.224 C  
HETATM    2  C   UNL     1      -8.888   4.265  66.267  1.00  0.00    -0.116 C  
HETATM    3  C   UNL     1      -8.031   3.214  65.518  1.00  0.00    -0.086 C  
HETATM    4  C   UNL     1      -9.155   3.743  67.698  1.00  0.00    -0.188 C  
ENDROOT
BRANCH   2   5
HETATM    5  C   UNL     1      -8.129   5.609  66.305  1.00  0.00    -0.107 A  
HETATM    6  C   UNL     1      -7.977   6.400  67.461  1.00  0.00    -0.116 A  
HETATM    7  C   UNL     1      -7.388   7.688  67.416  1.00  0.00    -0.092 A  
HETATM    8  C   UNL     1      -6.906   8.207  66.211  1.00  0.00    -0.058 A  
HETATM    9  C   UNL     1      -7.604   6.135  65.114  1.00  0.00    -0.090 A  
HETATM   10  C   UNL     1      -7.014   7.398  65.071  1.00  0.00    -0.051 A  
BRANCH   8  11
HETATM   11  C   UNL     1      -6.444   9.645  65.988  1.00  0.00    -0.078 C  
BRANCH  11  12
HETATM   12  N   UNL     1      -7.378  10.644  65.432  1.00  0.00    -0.076 NA 
HETATM   13  C   UNL     1      -8.540  10.050  64.750  1.00  0.00    -0.177 C  
HETATM   14  C   UNL     1      -9.751   9.557  65.609  1.00  0.00    -0.290 C  
HETATM   15  N   UNL     1     -10.038  10.177  66.929  1.00  0.00    -0.213 NA 
HETATM   16  C   UNL     1      -8.836  10.785  67.508  1.00  0.00    -0.128 C  
HETATM   17  C   UNL     1      -7.903  11.507  66.515  1.00  0.00    -0.071 C  
BRANCH  15  18
HETATM   18  C   UNL     1     -11.293  10.986  66.955  1.00  0.00    -0.085 C  
BRANCH  18  19
HETATM   19  C   UNL     1     -11.736  11.254  68.409  1.00  0.00    -0.365 A  
HETATM   20  C   UNL     1     -11.907  10.195  69.317  1.00  0.00     0.007 A  
HETATM   21  C   UNL     1     -11.941  12.568  68.872  1.00  0.00    -0.282 A  
HETATM   22  C   UNL     1     -12.244  10.447  70.651  1.00  0.00    -0.441 A  
HETATM   23  C   UNL     1     -12.283  12.815  70.202  1.00  0.00    -0.320 A  
HETATM   24  C   UNL     1     -12.426  11.756  71.094  1.00  0.00    -0.390 A  
ENDBRANCH  18  19
BRANCH  18  25
HETATM   25  C   UNL     1     -11.250  12.327  66.191  1.00  0.00    -0.372 A  
HETATM   26  C   UNL     1     -11.175  14.821  64.875  1.00  0.00    -0.406 A  
HETATM   27  C   UNL     1     -11.855  13.751  64.298  1.00  0.00    -0.451 A  
HETATM   28 CL   UNL     1     -11.193  16.362  64.113  1.00  0.00     0.023 Cl 
HETATM   29  C   UNL     1     -10.524  13.409  66.726  1.00  0.00    -0.275 A  
HETATM   30  C   UNL     1     -11.875  12.510  64.944  1.00  0.00    -0.438 A  
HETATM   31  C   UNL     1     -10.493  14.645  66.079  1.00  0.00    -0.313 A  
ENDBRANCH  18  25
ENDBRANCH  15  18
ENDBRANCH  11  12
ENDBRANCH   8  11
ENDBRANCH   2   5
TORSDOF 6
ENDMDL
MODEL      123
REMARK 921   NORMALIZED FREE ENERGY PREDICTED BY IDOCK:   -3.76 KCAL/MOL
REMARK 922        TOTAL FREE ENERGY PREDICTED BY IDOCK:   -5.65 KCAL/MOL
REMARK 923 INTER-LIGAND FREE ENERGY PREDICTED BY IDOCK:   -6.36 KCAL/MOL
REMARK 924 INTRA-LIGAND FREE ENERGY PREDICTED BY IDOCK:    0.71 KCAL/MOL
REMARK 927      BINDING AFFINITY PREDICTED BY RF-SCORE:    0.00 PKD
ROOT
HETATM    1  C   UNL     1     -10.616  19.937  65.770  1.00  0.00    -0.490 C  
HETATM    2  C   UNL     1      -9.855  19.251  66.927  1.00  0.00    -0.424 C  
HETATM    3  C   UNL     1     -10.283  19.966  68.233  1.00  0.00    -0.562 C  
HETATM    4  C   UNL     1      -8.349  19.517  66.700  1.00  0.00    -0.340 C  
ENDROOT
BRANCH   2   5
HETATM    5  C   UNL     1     -10.133  17.739  67.058  1.00  0.00    -0.337 A  
HETATM    6  C   UNL     1      -9.982  16.812  66.008  1.00  0.00    -0.334 A  
HETATM    7  C   UNL     1     -10.376  15.458  66.141  1.00  0.00    -0.325 A  
HETATM    8  C   UNL     1     -10.909  14.987  67.344  1.00  0.00    -0.305 A  
HETATM    9  C   UNL     1     -10.635  17.235  68.269  1.00  0.00    -0.383 A  
HETATM   10  C   UNL     1     -11.013  15.899  68.404  1.00  0.00    -0.331 A  
BRANCH   8  11
HETATM   11  C   UNL     1     -11.558  13.621  67.553  1.00  0.00    -0.350 C  
BRANCH  11  12
HETATM   12  N   UNL     1     -11.019  12.693  68.566  1.00  0.00    -0.249 NA 
HETATM   13  C   UNL     1     -11.572  11.331  68.472  1.00  0.00    -0.315 C  
HETATM   14  C   UNL     1     -10.980  10.345  67.413  1.00  0.00    -0.270 C  
HETATM   15  N   UNL     1      -9.575  10.492  66.952  1.00  0.00    -0.172 NA 
HETATM   16  C   UNL     1      -9.094  11.866  67.128  1.00  0.00    -0.178 C  
HETATM   17  C   UNL     1      -9.549  12.576  68.419  1.00  0.00    -0.176 C  
BRANCH  15  18
HETATM   18  C   UNL     1      -8.674   9.389  67.402  1.00  0.00    -0.125 C  
BRANCH  18  19
HETATM   19  C   UNL     1      -7.517   9.947  68.257  1.00  0.00    -0.080 A  
HETATM   20  C   UNL     1      -6.267  10.231  67.681  1.00  0.00    -0.057 A  
HETATM   21  C   UNL     1      -7.697  10.222  69.626  1.00  0.00    -0.166 A  
HETATM   22  C   UNL     1      -5.242  10.799  68.445  1.00  0.00    -0.036 A  
HETATM   23  C   UNL     1      -6.671  10.783  70.387  1.00  0.00     0.055 A  
HETATM   24  C   UNL     1      -5.446  11.079  69.795  1.00  0.00    -0.051 A  
ENDBRANCH  18  19
BRANCH  18  25
HETATM   25  C   UNL     1      -9.352   8.233  68.171  1.00  0.00    -0.140 A  
HETATM   26  C   UNL     1     -10.564   6.164  69.655  1.00  0.00    -0.284 A  
HETATM   27  C   UNL     1      -9.925   5.874  68.452  1.00  0.00    -0.184 A  
HETATM   28 CL   UNL     1     -11.237   4.894  70.599  1.00  0.00     0.815 Cl 
HETATM   29  C   UNL     1     -10.052   8.508  69.362  1.00  0.00    -0.205 A  
HETATM   30  C   UNL     1      -9.340   6.905  67.709  1.00  0.00    -0.120 A  
HETATM   31  C   UNL     1     -10.645   7.483  70.100  1.00  0.00    -0.241 A  
ENDBRANCH  18  25
ENDBRANCH  15  18
ENDBRANCH  11  12
ENDBRANCH   8  11
ENDBRANCH   2   5
TORSDOF 6
ENDMDL
MODEL      124
REMARK 921   NORMALIZED FREE ENERGY PREDICTED BY IDOCK:   -3.75 KCAL/MOL
REMARK 922        TOTAL FREE ENERGY PREDICTED BY IDOCK:   -5.64 KCAL/MOL
REMARK 923 INTER-LIGAND FREE ENERGY PREDICTED BY IDOCK:   -7.73 KCAL/MOL
REMARK 924 INTRA-LIGAND FREE ENERGY PREDICTED BY IDOCK:    2.09 KCAL/MOL
REMARK 927      BINDING AFFINITY PREDICTED BY RF-SCORE:    0.00 PKD
ROOT
HETATM    1  C   UNL     1     -11.409  16.050  69.810  1.00  0.00    -0.331 C  
HETATM    2  C   UNL     1     -10.503  16.454  68.625  1.00  0.00    -0.293 C  
HETATM    3  C   UNL     1      -9.040  16.379  69.131  1.00  0.00    -0.202 C  
HETATM    4  C   UNL     1     -10.825  17.928  68.289  1.00  0.00    -0.127 C  
ENDROOT
BRANCH   2   5
HETATM    5  C   UNL     1     -10.657  15.559  67.376  1.00  0.00    -0.292 A  
HETATM    6  C   UNL     1     -11.854  14.912  67.009  1.00  0.00    -0.216 A  
HETATM    7  C   UNL     1     -11.910  13.996  65.930  1.00  0.00    -0.395 A  
HETATM    8  C   UNL     1     -10.770  13.725  65.168  1.00  0.00    -0.365 A  
HETATM    9  C   UNL     1      -9.535  15.300  66.574  1.00  0.00    -0.308 A  
HETATM   10  C   UNL     1      -9.592  14.407  65.504  1.00  0.00    -0.097 A  
BRANCH   8  11
HETATM   11  C   UNL     1     -10.645  12.618  64.124  1.00  0.00    -0.407 C  
BRANCH  11  12
HETATM   12  N   UNL     1     -10.752  11.203  64.529  1.00  0.00    -0.326 NA 
HETATM   13  C   UNL     1      -9.452  10.518  64.631  1.00  0.00    -0.263 C  
HETATM   14  C   UNL     1      -8.595  10.710  65.925  1.00  0.00    -0.172 C  
HETATM   15  N   UNL     1      -9.251  11.022  67.222  1.00  0.00    -0.148 NA 
HETATM   16  C   UNL     1     -10.558  11.656  67.022  1.00  0.00    -0.237 C  
HETATM   17  C   UNL     1     -11.402  11.101  65.857  1.00  0.00     0.179 C  
BRANCH  15  18
HETATM   18  C   UNL     1      -9.174   9.914  68.219  1.00  0.00    -0.129 C  
BRANCH  18  19
HETATM   19  C   UNL     1     -10.223  10.111  69.334  1.00  0.00    -0.246 A  
HETATM   20  C   UNL     1     -11.155  11.162  69.267  1.00  0.00    -0.318 A  
HETATM   21  C   UNL     1     -10.297   9.223  70.423  1.00  0.00    -0.291 A  
HETATM   22  C   UNL     1     -12.146  11.298  70.245  1.00  0.00    -0.459 A  
HETATM   23  C   UNL     1     -11.284   9.366  71.400  1.00  0.00    -0.452 A  
HETATM   24  C   UNL     1     -12.213  10.398  71.307  1.00  0.00    -0.491 A  
ENDBRANCH  18  19
BRANCH  18  25
HETATM   25  C   UNL     1      -9.311   8.483  67.653  1.00  0.00    -0.157 A  
HETATM   26  C   UNL     1      -9.476   5.878  66.585  1.00  0.00    -0.151 A  
HETATM   27  C   UNL     1     -10.607   6.690  66.613  1.00  0.00    -0.224 A  
HETATM   28 CL   UNL     1      -9.556   4.319  65.864  1.00  0.00    -0.174 Cl 
HETATM   29  C   UNL     1      -8.196   7.622  67.663  1.00  0.00    -0.121 A  
HETATM   30  C   UNL     1     -10.527   7.976  67.160  1.00  0.00    -0.408 A  
HETATM   31  C   UNL     1      -8.276   6.336  67.127  1.00  0.00    -0.109 A  
ENDBRANCH  18  25
ENDBRANCH  15  18
ENDBRANCH  11  12
ENDBRANCH   8  11
ENDBRANCH   2   5
TORSDOF 6
ENDMDL
MODEL      125
REMARK 921   NORMALIZED FREE ENERGY PREDICTED BY IDOCK:   -3.74 KCAL/MOL
REMARK 922        TOTAL FREE ENERGY PREDICTED BY IDOCK:   -5.63 KCAL/MOL
REMARK 923 INTER-LIGAND FREE ENERGY PREDICTED BY IDOCK:   -4.90 KCAL/MOL
REMARK 924 INTRA-LIGAND FREE ENERGY PREDICTED BY IDOCK:   -0.73 KCAL/MOL
REMARK 927      BINDING AFFINITY PREDICTED BY RF-SCORE:    0.00 PKD
ROOT
HETATM    1  C   UNL     1     -12.312  13.082  63.553  1.00  0.00    -0.500 C  
HETATM    2  C   UNL     1     -11.633  13.436  64.896  1.00  0.00    -0.354 C  
HETATM    3  C   UNL     1     -12.767  13.648  65.931  1.00  0.00    -0.428 C  
HETATM    4  C   UNL     1     -10.904  14.784  64.694  1.00  0.00    -0.312 C  
ENDROOT
BRANCH   2   5
HETATM    5  C   UNL     1     -10.661  12.357  65.417  1.00  0.00    -0.317 A  
HETATM    6  C   UNL     1     -10.216  12.270  66.751  1.00  0.00    -0.229 A  
HETATM    7  C   UNL     1      -9.222  11.343  67.150  1.00  0.00    -0.170 A  
HETATM    8  C   UNL     1      -8.664  10.455  66.226  1.00  0.00    -0.163 A  
HETATM    9  C   UNL     1     -10.115  11.430  64.514  1.00  0.00    -0.337 A  
HETATM   10  C   UNL     1      -9.144  10.510  64.909  1.00  0.00    -0.235 A  
BRANCH   8  11
HETATM   11  C   UNL     1      -7.453   9.560  66.475  1.00  0.00    -0.093 C  
BRANCH  11  12
HETATM   12  N   UNL     1      -7.213   8.385  65.615  1.00  0.00    -0.074 NA 
HETATM   13  C   UNL     1      -6.026   7.604  66.002  1.00  0.00    -0.038 C  
HETATM   14  C   UNL     1      -6.144   6.581  67.179  1.00  0.00    -0.028 C  
HETATM   15  N   UNL     1      -7.452   5.950  67.497  1.00  0.00    -0.077 NA 
HETATM   16  C   UNL     1      -8.572   6.773  67.032  1.00  0.00    -0.114 C  
HETATM   17  C   UNL     1      -8.375   7.467  65.670  1.00  0.00    -0.140 C  
BRANCH  15  18
HETATM   18  C   UNL     1      -7.506   4.488  67.194  1.00  0.00    -0.081 C  
BRANCH  18  19
HETATM   19  C   UNL     1      -8.049   3.702  68.406  1.00  0.00    -0.076 A  
HETATM   20  C   UNL     1      -8.605   4.372  69.509  1.00  0.00    -0.104 A  
HETATM   21  C   UNL     1      -8.037   2.294  68.419  1.00  0.00    -0.068 A  
HETATM   22  C   UNL     1      -9.156   3.654  70.576  1.00  0.00    -0.186 A  
HETATM   23  C   UNL     1      -8.583   1.581  69.488  1.00  0.00    -0.090 A  
HETATM   24  C   UNL     1      -9.150   2.261  70.562  1.00  0.00    -0.172 A  
ENDBRANCH  18  19
BRANCH  18  25
HETATM   25  C   UNL     1      -8.309   4.087  65.937  1.00  0.00    -0.109 A  
HETATM   26  C   UNL     1      -9.826   3.299  63.695  1.00  0.00    -0.149 A  
HETATM   27  C   UNL     1      -8.468   3.568  63.554  1.00  0.00    -0.090 A  
HETATM   28 CL   UNL     1     -10.737   2.743  62.345  1.00  0.00    -0.144 Cl 
HETATM   29  C   UNL     1      -9.695   3.862  66.042  1.00  0.00    -0.172 A  
HETATM   30  C   UNL     1      -7.721   3.977  64.665  1.00  0.00    -0.081 A  
HETATM   31  C   UNL     1     -10.445   3.464  64.933  1.00  0.00     0.236 A  
ENDBRANCH  18  25
ENDBRANCH  15  18
ENDBRANCH  11  12
ENDBRANCH   8  11
ENDBRANCH   2   5
TORSDOF 6
ENDMDL
MODEL      126
REMARK 921   NORMALIZED FREE ENERGY PREDICTED BY IDOCK:   -3.61 KCAL/MOL
REMARK 922        TOTAL FREE ENERGY PREDICTED BY IDOCK:   -5.46 KCAL/MOL
REMARK 923 INTER-LIGAND FREE ENERGY PREDICTED BY IDOCK:   -4.60 KCAL/MOL
REMARK 924 INTRA-LIGAND FREE ENERGY PREDICTED BY IDOCK:   -0.86 KCAL/MOL
REMARK 927      BINDING AFFINITY PREDICTED BY RF-SCORE:    0.00 PKD
ROOT
HETATM    1  C   UNL     1     -10.197   6.519  74.453  1.00  0.00    -0.334 C  
HETATM    2  C   UNL     1     -10.002   6.951  72.982  1.00  0.00    -0.212 C  
HETATM    3  C   UNL     1      -8.962   8.098  72.984  1.00  0.00    -0.335 C  
HETATM    4  C   UNL     1     -11.354   7.523  72.494  1.00  0.00    -0.384 C  
ENDROOT
BRANCH   2   5
HETATM    5  C   UNL     1      -9.515   5.821  72.050  1.00  0.00    -0.166 A  
HETATM    6  C   UNL     1     -10.172   4.584  71.893  1.00  0.00    -0.241 A  
HETATM    7  C   UNL     1      -9.614   3.531  71.129  1.00  0.00    -0.240 A  
HETATM    8  C   UNL     1      -8.390   3.698  70.474  1.00  0.00    -0.082 A  
HETATM    9  C   UNL     1      -8.307   5.980  71.352  1.00  0.00    -0.127 A  
HETATM   10  C   UNL     1      -7.762   4.946  70.590  1.00  0.00    -0.066 A  
BRANCH   8  11
HETATM   11  C   UNL     1      -7.588   2.590  69.798  1.00  0.00    -0.043 C  
BRANCH  11  12
HETATM   12  N   UNL     1      -7.937   2.151  68.432  1.00  0.00    -0.056 NA 
HETATM   13  C   UNL     1      -9.089   2.868  67.859  1.00  0.00    -0.180 C  
HETATM   14  C   UNL     1      -8.864   4.282  67.229  1.00  0.00    -0.113 C  
HETATM   15  N   UNL     1      -7.541   4.649  66.661  1.00  0.00    -0.086 NA 
HETATM   16  C   UNL     1      -6.463   3.852  67.253  1.00  0.00    -0.038 C  
HETATM   17  C   UNL     1      -6.791   2.369  67.518  1.00  0.00    -0.040 C  
BRANCH  15  18
HETATM   18  C   UNL     1      -7.544   4.797  65.174  1.00  0.00    -0.077 C  
BRANCH  18  19
HETATM   19  C   UNL     1      -8.545   3.814  64.532  1.00  0.00    -0.105 A  
HETATM   20  C   UNL     1      -9.871   4.202  64.272  1.00  0.00    -0.145 A  
HETATM   21  C   UNL     1      -8.146   2.517  64.157  1.00  0.00    -0.082 A  
HETATM   22  C   UNL     1     -10.756   3.330  63.630  1.00  0.00    -0.247 A  
HETATM   23  C   UNL     1      -9.034   1.647  63.522  1.00  0.00    -0.088 A  
HETATM   24  C   UNL     1     -10.336   2.057  63.251  1.00  0.00    -0.141 A  
ENDBRANCH  18  19
BRANCH  18  25
HETATM   25  C   UNL     1      -7.825   6.218  64.637  1.00  0.00    -0.111 A  
HETATM   26  C   UNL     1      -8.410   8.817  63.712  1.00  0.00    -0.136 A  
HETATM   27  C   UNL     1      -7.919   7.860  62.828  1.00  0.00    -0.146 A  
HETATM   28 CL   UNL     1      -8.840  10.379  63.135  1.00  0.00    -0.195 Cl 
HETATM   29  C   UNL     1      -8.270   7.219  65.521  1.00  0.00    -0.139 A  
HETATM   30  C   UNL     1      -7.612   6.576  63.293  1.00  0.00    -0.081 A  
HETATM   31  C   UNL     1      -8.567   8.504  65.061  1.00  0.00    -0.162 A  
ENDBRANCH  18  25
ENDBRANCH  15  18
ENDBRANCH  11  12
ENDBRANCH   8  11
ENDBRANCH   2   5
TORSDOF 6
ENDMDL
MODEL      127
REMARK 921   NORMALIZED FREE ENERGY PREDICTED BY IDOCK:   -3.59 KCAL/MOL
REMARK 922        TOTAL FREE ENERGY PREDICTED BY IDOCK:   -5.42 KCAL/MOL
REMARK 923 INTER-LIGAND FREE ENERGY PREDICTED BY IDOCK:   -6.71 KCAL/MOL
REMARK 924 INTRA-LIGAND FREE ENERGY PREDICTED BY IDOCK:    1.28 KCAL/MOL
REMARK 927      BINDING AFFINITY PREDICTED BY RF-SCORE:    0.00 PKD
ROOT
HETATM    1  C   UNL     1     -11.565  15.122  66.909  1.00  0.00    -0.160 C  
HETATM    2  C   UNL     1     -11.688  14.235  65.650  1.00  0.00    -0.358 C  
HETATM    3  C   UNL     1     -11.221  15.093  64.448  1.00  0.00    -0.181 C  
HETATM    4  C   UNL     1     -13.189  13.916  65.464  1.00  0.00    -0.039 C  
ENDROOT
BRANCH   2   5
HETATM    5  C   UNL     1     -10.853  12.938  65.707  1.00  0.00    -0.292 A  
HETATM    6  C   UNL     1      -9.608  12.825  66.356  1.00  0.00    -0.254 A  
HETATM    7  C   UNL     1      -8.819  11.652  66.266  1.00  0.00    -0.164 A  
HETATM    8  C   UNL     1      -9.272  10.545  65.544  1.00  0.00    -0.223 A  
HETATM    9  C   UNL     1     -11.304  11.800  65.019  1.00  0.00    -0.288 A  
HETATM   10  C   UNL     1     -10.533  10.641  64.939  1.00  0.00    -0.282 A  
BRANCH   8  11
HETATM   11  C   UNL     1      -8.441   9.311  65.199  1.00  0.00    -0.159 C  
BRANCH  11  12
HETATM   12  N   UNL     1      -7.817   8.515  66.274  1.00  0.00    -0.097 NA 
HETATM   13  C   UNL     1      -7.360   9.324  67.417  1.00  0.00    -0.087 C  
HETATM   14  C   UNL     1      -8.401   9.764  68.497  1.00  0.00    -0.110 C  
HETATM   15  N   UNL     1      -9.619   8.949  68.743  1.00  0.00    -0.155 NA 
HETATM   16  C   UNL     1      -9.970   8.142  67.571  1.00  0.00    -0.192 C  
HETATM   17  C   UNL     1      -8.785   7.525  66.801  1.00  0.00    -0.133 C  
BRANCH  15  18
HETATM   18  C   UNL     1      -9.630   8.265  70.071  1.00  0.00    -0.168 C  
BRANCH  18  19
HETATM   19  C   UNL     1     -11.028   8.358  70.719  1.00  0.00    -0.276 A  
HETATM   20  C   UNL     1     -11.615   9.605  70.989  1.00  0.00    -0.436 A  
HETATM   21  C   UNL     1     -11.764   7.196  71.019  1.00  0.00    -0.358 A  
HETATM   22  C   UNL     1     -12.909   9.685  71.515  1.00  0.00    -0.485 A  
HETATM   23  C   UNL     1     -13.052   7.279  71.550  1.00  0.00    -0.434 A  
HETATM   24  C   UNL     1     -13.628   8.523  71.789  1.00  0.00    -0.419 A  
ENDBRANCH  18  19
BRANCH  18  25
HETATM   25  C   UNL     1      -9.174   6.789  70.076  1.00  0.00    -0.158 A  
HETATM   26  C   UNL     1      -8.258   4.122  70.062  1.00  0.00    -0.057 A  
HETATM   27  C   UNL     1      -9.551   4.414  69.637  1.00  0.00    -0.275 A  
HETATM   28 CL   UNL     1      -7.671   2.508  69.982  1.00  0.00    -0.043 Cl 
HETATM   29  C   UNL     1      -7.890   6.461  70.553  1.00  0.00    -0.107 A  
HETATM   30  C   UNL     1     -10.009   5.736  69.662  1.00  0.00    -0.249 A  
HETATM   31  C   UNL     1      -7.434   5.141  70.539  1.00  0.00    -0.070 A  
ENDBRANCH  18  25
ENDBRANCH  15  18
ENDBRANCH  11  12
ENDBRANCH   8  11
ENDBRANCH   2   5
TORSDOF 6
ENDMDL
MODEL      128
REMARK 921   NORMALIZED FREE ENERGY PREDICTED BY IDOCK:   -3.55 KCAL/MOL
REMARK 922        TOTAL FREE ENERGY PREDICTED BY IDOCK:   -5.37 KCAL/MOL
REMARK 923 INTER-LIGAND FREE ENERGY PREDICTED BY IDOCK:   -5.13 KCAL/MOL
REMARK 924 INTRA-LIGAND FREE ENERGY PREDICTED BY IDOCK:   -0.24 KCAL/MOL
REMARK 927      BINDING AFFINITY PREDICTED BY RF-SCORE:    0.00 PKD
ROOT
HETATM    1  C   UNL     1      -7.664  21.030  67.261  1.00  0.00    -0.175 C  
HETATM    2  C   UNL     1      -8.582  19.791  67.361  1.00  0.00    -0.374 C  
HETATM    3  C   UNL     1      -9.396  19.727  66.044  1.00  0.00    -0.367 C  
HETATM    4  C   UNL     1      -9.566  20.049  68.526  1.00  0.00    -0.301 C  
ENDROOT
BRANCH   2   5
HETATM    5  C   UNL     1      -7.828  18.459  67.561  1.00  0.00    -0.236 A  
HETATM    6  C   UNL     1      -7.601  17.517  66.539  1.00  0.00    -0.311 A  
HETATM    7  C   UNL     1      -7.021  16.251  66.802  1.00  0.00    -0.165 A  
HETATM    8  C   UNL     1      -6.627  15.905  68.097  1.00  0.00    -0.133 A  
HETATM    9  C   UNL     1      -7.389  18.105  68.847  1.00  0.00    -0.253 A  
HETATM   10  C   UNL     1      -6.809  16.864  69.104  1.00  0.00    -0.238 A  
BRANCH   8  11
HETATM   11  C   UNL     1      -6.187  14.515  68.548  1.00  0.00    -0.089 C  
BRANCH  11  12
HETATM   12  N   UNL     1      -7.176  13.571  69.103  1.00  0.00    -0.038 NA 
HETATM   13  C   UNL     1      -8.485  13.624  68.430  1.00  0.00    -0.147 C  
HETATM   14  C   UNL     1      -8.675  12.857  67.081  1.00  0.00    -0.205 C  
HETATM   15  N   UNL     1      -7.853  11.656  66.777  1.00  0.00    -0.154 NA 
HETATM   16  C   UNL     1      -6.594  11.664  67.528  1.00  0.00    -0.093 C  
HETATM   17  C   UNL     1      -6.680  12.180  68.978  1.00  0.00    -0.103 C  
BRANCH  15  18
HETATM   18  C   UNL     1      -8.632  10.382  66.762  1.00  0.00    -0.124 C  
BRANCH  18  19
HETATM   19  C   UNL     1      -8.161   9.471  65.609  1.00  0.00    -0.112 A  
HETATM   20  C   UNL     1      -6.980   8.718  65.722  1.00  0.00    -0.076 A  
HETATM   21  C   UNL     1      -8.922   9.343  64.432  1.00  0.00    -0.215 A  
HETATM   22  C   UNL     1      -6.591   7.844  64.702  1.00  0.00    -0.052 A  
HETATM   23  C   UNL     1      -8.528   8.474  63.413  1.00  0.00    -0.042 A  
HETATM   24  C   UNL     1      -7.367   7.718  63.551  1.00  0.00    -0.097 A  
ENDBRANCH  18  19
BRANCH  18  25
HETATM   25  C   UNL     1      -8.624   9.568  68.076  1.00  0.00    -0.120 A  
HETATM   26  C   UNL     1      -8.627   8.161  70.519  1.00  0.00    -0.130 A  
HETATM   27  C   UNL     1      -7.750   7.788  69.504  1.00  0.00    -0.105 A  
HETATM   28 CL   UNL     1      -8.577   7.354  72.037  1.00  0.00    -0.116 Cl 
HETATM   29  C   UNL     1      -9.538   9.890  69.097  1.00  0.00    -0.204 A  
HETATM   30  C   UNL     1      -7.763   8.476  68.286  1.00  0.00    -0.102 A  
HETATM   31  C   UNL     1      -9.535   9.199  70.310  1.00  0.00    -0.253 A  
ENDBRANCH  18  25
ENDBRANCH  15  18
ENDBRANCH  11  12
ENDBRANCH   8  11
ENDBRANCH   2   5
TORSDOF 6
ENDMDL
MODEL      129
REMARK 921   NORMALIZED FREE ENERGY PREDICTED BY IDOCK:   -3.53 KCAL/MOL
REMARK 922        TOTAL FREE ENERGY PREDICTED BY IDOCK:   -5.35 KCAL/MOL
REMARK 923 INTER-LIGAND FREE ENERGY PREDICTED BY IDOCK:   -5.94 KCAL/MOL
REMARK 924 INTRA-LIGAND FREE ENERGY PREDICTED BY IDOCK:    0.60 KCAL/MOL
REMARK 927      BINDING AFFINITY PREDICTED BY RF-SCORE:    0.00 PKD
ROOT
HETATM    1  C   UNL     1      -7.980  10.148  64.411  1.00  0.00    -0.153 C  
HETATM    2  C   UNL     1      -8.496  10.233  65.865  1.00  0.00    -0.154 C  
HETATM    3  C   UNL     1      -9.918   9.617  65.875  1.00  0.00    -0.351 C  
HETATM    4  C   UNL     1      -8.615  11.733  66.218  1.00  0.00    -0.062 C  
ENDROOT
BRANCH   2   5
HETATM    5  C   UNL     1      -7.613   9.494  66.893  1.00  0.00    -0.095 A  
HETATM    6  C   UNL     1      -7.295   8.123  66.825  1.00  0.00    -0.083 A  
HETATM    7  C   UNL     1      -6.592   7.464  67.863  1.00  0.00    -0.054 A  
HETATM    8  C   UNL     1      -6.161   8.170  68.990  1.00  0.00    -0.040 A  
HETATM    9  C   UNL     1      -7.137  10.190  68.016  1.00  0.00    -0.084 A  
HETATM   10  C   UNL     1      -6.435   9.544  69.033  1.00  0.00    -0.046 A  
BRANCH   8  11
HETATM   11  C   UNL     1      -5.584   7.548  70.259  1.00  0.00    -0.023 C  
BRANCH  11  12
HETATM   12  N   UNL     1      -6.431   6.694  71.114  1.00  0.00    -0.048 NA 
HETATM   13  C   UNL     1      -6.496   7.143  72.516  1.00  0.00    -0.052 C  
HETATM   14  C   UNL     1      -7.474   8.303  72.894  1.00  0.00    -0.104 C  
HETATM   15  N   UNL     1      -8.703   8.540  72.094  1.00  0.00    -0.269 NA 
HETATM   16  C   UNL     1      -8.566   8.018  70.732  1.00  0.00    -0.129 C  
HETATM   17  C   UNL     1      -7.820   6.674  70.600  1.00  0.00    -0.106 C  
BRANCH  15  18
HETATM   18  C   UNL     1      -9.968   8.223  72.823  1.00  0.00    -0.263 C  
BRANCH  18  19
HETATM   19  C   UNL     1     -11.169   8.928  72.159  1.00  0.00    -0.362 A  
HETATM   20  C   UNL     1     -10.973   9.909  71.172  1.00  0.00    -0.298 A  
HETATM   21  C   UNL     1     -12.490   8.578  72.497  1.00  0.00    -0.358 A  
HETATM   22  C   UNL     1     -12.065  10.498  70.525  1.00  0.00    -0.437 A  
HETATM   23  C   UNL     1     -13.578   9.172  71.854  1.00  0.00    -0.493 A  
HETATM   24  C   UNL     1     -13.365  10.126  70.863  1.00  0.00    -0.272 A  
ENDBRANCH  18  19
BRANCH  18  25
HETATM   25  C   UNL     1     -10.297   6.723  72.987  1.00  0.00    -0.252 A  
HETATM   26  C   UNL     1     -10.831   3.977  73.347  1.00  0.00    -0.236 A  
HETATM   27  C   UNL     1     -10.957   4.549  72.084  1.00  0.00     0.113 A  
HETATM   28 CL   UNL     1     -11.081   2.289  73.554  1.00  0.00    -0.289 Cl 
HETATM   29  C   UNL     1     -10.230   6.132  74.263  1.00  0.00    -0.326 A  
HETATM   30  C   UNL     1     -10.709   5.916  71.911  1.00  0.00    -0.290 A  
HETATM   31  C   UNL     1     -10.487   4.771  74.440  1.00  0.00    -0.331 A  
ENDBRANCH  18  25
ENDBRANCH  15  18
ENDBRANCH  11  12
ENDBRANCH   8  11
ENDBRANCH   2   5
TORSDOF 6
ENDMDL
MODEL      130
REMARK 921   NORMALIZED FREE ENERGY PREDICTED BY IDOCK:   -3.50 KCAL/MOL
REMARK 922        TOTAL FREE ENERGY PREDICTED BY IDOCK:   -5.31 KCAL/MOL
REMARK 923 INTER-LIGAND FREE ENERGY PREDICTED BY IDOCK:   -5.39 KCAL/MOL
REMARK 924 INTRA-LIGAND FREE ENERGY PREDICTED BY IDOCK:    0.08 KCAL/MOL
REMARK 927      BINDING AFFINITY PREDICTED BY RF-SCORE:    0.00 PKD
ROOT
HETATM    1  C   UNL     1      -8.265   7.743  63.232  1.00  0.00     0.007 C  
HETATM    2  C   UNL     1      -7.255   7.757  64.403  1.00  0.00    -0.078 C  
HETATM    3  C   UNL     1      -5.923   7.187  63.854  1.00  0.00    -0.040 C  
HETATM    4  C   UNL     1      -7.793   6.785  65.477  1.00  0.00    -0.112 C  
ENDROOT
BRANCH   2   5
HETATM    5  C   UNL     1      -7.002   9.157  65.003  1.00  0.00    -0.081 A  
HETATM    6  C   UNL     1      -5.736   9.771  65.075  1.00  0.00    -0.073 A  
HETATM    7  C   UNL     1      -5.536  10.997  65.755  1.00  0.00    -0.119 A  
HETATM    8  C   UNL     1      -6.608  11.659  66.359  1.00  0.00     0.121 A  
HETATM    9  C   UNL     1      -8.071   9.857  65.585  1.00  0.00    -0.128 A  
HETATM   10  C   UNL     1      -7.876  11.071  66.245  1.00  0.00    -0.141 A  
BRANCH   8  11
HETATM   11  C   UNL     1      -6.496  12.864  67.289  1.00  0.00    -0.025 C  
BRANCH  11  12
HETATM   12  N   UNL     1      -7.522  13.098  68.324  1.00  0.00    -0.118 NA 
HETATM   13  C   UNL     1      -7.064  13.967  69.422  1.00  0.00     0.022 C  
HETATM   14  C   UNL     1      -7.077  15.517  69.216  1.00  0.00    -0.186 C  
HETATM   15  N   UNL     1      -8.039  16.142  68.270  1.00  0.00    -0.149 NA 
HETATM   16  C   UNL     1      -8.476  15.191  67.244  1.00  0.00    -0.198 C  
HETATM   17  C   UNL     1      -8.712  13.745  67.725  1.00  0.00    -0.182 C  
BRANCH  15  18
HETATM   18  C   UNL     1      -9.095  16.960  68.938  1.00  0.00    -0.223 C  
BRANCH  18  19
HETATM   19  C   UNL     1      -9.608  18.063  67.988  1.00  0.00    -0.295 A  
HETATM   20  C   UNL     1      -9.536  19.418  68.351  1.00  0.00    -0.460 A  
HETATM   21  C   UNL     1     -10.126  17.740  66.719  1.00  0.00    -0.349 A  
HETATM   22  C   UNL     1      -9.942  20.418  67.461  1.00  0.00    -0.537 A  
HETATM   23  C   UNL     1     -10.536  18.740  65.835  1.00  0.00    -0.424 A  
HETATM   24  C   UNL     1     -10.436  20.079  66.202  1.00  0.00    -0.526 A  
ENDBRANCH  18  19
BRANCH  18  25
HETATM   25  C   UNL     1     -10.305  16.179  69.496  1.00  0.00    -0.282 A  
HETATM   26  C   UNL     1     -12.569  14.808  70.469  1.00  0.00    -0.359 A  
HETATM   27  C   UNL     1     -11.455  14.977  71.287  1.00  0.00    -0.359 A  
HETATM   28 CL   UNL     1     -13.979  14.040  71.085  1.00  0.00    -0.132 Cl 
HETATM   29  C   UNL     1     -11.422  15.947  68.671  1.00  0.00    -0.391 A  
HETATM   30  C   UNL     1     -10.325  15.641  70.796  1.00  0.00     0.254 A  
HETATM   31  C   UNL     1     -12.546  15.275  69.155  1.00  0.00     0.176 A  
ENDBRANCH  18  25
ENDBRANCH  15  18
ENDBRANCH  11  12
ENDBRANCH   8  11
ENDBRANCH   2   5
TORSDOF 6
ENDMDL
MODEL      131
REMARK 921   NORMALIZED FREE ENERGY PREDICTED BY IDOCK:   -3.49 KCAL/MOL
REMARK 922        TOTAL FREE ENERGY PREDICTED BY IDOCK:   -5.29 KCAL/MOL
REMARK 923 INTER-LIGAND FREE ENERGY PREDICTED BY IDOCK:   -4.99 KCAL/MOL
REMARK 924 INTRA-LIGAND FREE ENERGY PREDICTED BY IDOCK:   -0.30 KCAL/MOL
REMARK 927      BINDING AFFINITY PREDICTED BY RF-SCORE:    0.00 PKD
ROOT
HETATM    1  C   UNL     1     -10.136  13.824  65.413  1.00  0.00    -0.307 C  
HETATM    2  C   UNL     1     -10.077  12.316  65.744  1.00  0.00    -0.274 C  
HETATM    3  C   UNL     1     -10.125  11.556  64.394  1.00  0.00    -0.328 C  
HETATM    4  C   UNL     1     -11.360  11.975  66.537  1.00  0.00    -0.413 C  
ENDROOT
BRANCH   2   5
HETATM    5  C   UNL     1      -8.817  11.888  66.527  1.00  0.00    -0.178 A  
HETATM    6  C   UNL     1      -8.130  10.676  66.319  1.00  0.00    -0.151 A  
HETATM    7  C   UNL     1      -7.059  10.269  67.152  1.00  0.00    -0.089 A  
HETATM    8  C   UNL     1      -6.627  11.083  68.203  1.00  0.00    -0.058 A  
HETATM    9  C   UNL     1      -8.342  12.706  67.564  1.00  0.00    -0.177 A  
HETATM   10  C   UNL     1      -7.281  12.311  68.378  1.00  0.00    -0.102 A  
BRANCH   8  11
HETATM   11  C   UNL     1      -5.636  10.676  69.290  1.00  0.00    -0.037 C  
BRANCH  11  12
HETATM   12  N   UNL     1      -6.073   9.814  70.405  1.00  0.00    -0.065 NA 
HETATM   13  C   UNL     1      -7.536   9.661  70.494  1.00  0.00    -0.132 C  
HETATM   14  C   UNL     1      -8.247   8.628  69.561  1.00  0.00    -0.115 C  
HETATM   15  N   UNL     1      -7.513   7.434  69.064  1.00  0.00    -0.097 NA 
HETATM   16  C   UNL     1      -6.065   7.660  69.057  1.00  0.00    -0.035 C  
HETATM   17  C   UNL     1      -5.503   8.455  70.253  1.00  0.00    -0.022 C  
BRANCH  15  18
HETATM   18  C   UNL     1      -8.001   6.144  69.638  1.00  0.00    -0.107 C  
BRANCH  18  19
HETATM   19  C   UNL     1      -9.243   6.379  70.524  1.00  0.00    -0.162 A  
HETATM   20  C   UNL     1     -10.497   6.648  69.949  1.00  0.00    -0.247 A  
HETATM   21  C   UNL     1      -9.158   6.292  71.926  1.00  0.00    -0.143 A  
HETATM   22  C   UNL     1     -11.633   6.795  70.753  1.00  0.00    -0.418 A  
HETATM   23  C   UNL     1     -10.292   6.445  72.725  1.00  0.00    -0.222 A  
HETATM   24  C   UNL     1     -11.531   6.688  72.138  1.00  0.00    -0.323 A  
ENDBRANCH  18  19
BRANCH  18  25
HETATM   25  C   UNL     1      -8.319   5.028  68.619  1.00  0.00    -0.087 A  
HETATM   26  C   UNL     1      -8.939   3.052  66.705  1.00  0.00    -0.159 A  
HETATM   27  C   UNL     1      -8.957   2.735  68.061  1.00  0.00    -0.198 A  
HETATM   28 CL   UNL     1      -9.392   1.870  65.541  1.00  0.00    -0.011 Cl 
HETATM   29  C   UNL     1      -8.254   5.307  67.240  1.00  0.00    -0.104 A  
HETATM   30  C   UNL     1      -8.631   3.713  69.008  1.00  0.00    -0.120 A  
HETATM   31  C   UNL     1      -8.569   4.331  66.293  1.00  0.00    -0.113 A  
ENDBRANCH  18  25
ENDBRANCH  15  18
ENDBRANCH  11  12
ENDBRANCH   8  11
ENDBRANCH   2   5
TORSDOF 6
ENDMDL
MODEL      132
REMARK 921   NORMALIZED FREE ENERGY PREDICTED BY IDOCK:   -3.46 KCAL/MOL
REMARK 922        TOTAL FREE ENERGY PREDICTED BY IDOCK:   -5.25 KCAL/MOL
REMARK 923 INTER-LIGAND FREE ENERGY PREDICTED BY IDOCK:   -6.50 KCAL/MOL
REMARK 924 INTRA-LIGAND FREE ENERGY PREDICTED BY IDOCK:    1.25 KCAL/MOL
REMARK 927      BINDING AFFINITY PREDICTED BY RF-SCORE:    0.00 PKD
ROOT
HETATM    1  C   UNL     1     -12.483  15.147  73.103  1.00  0.00    -0.561 C  
HETATM    2  C   UNL     1     -12.948  14.698  71.700  1.00  0.00    -0.408 C  
HETATM    3  C   UNL     1     -12.064  15.448  70.672  1.00  0.00    -0.412 C  
HETATM    4  C   UNL     1     -14.406  15.182  71.529  1.00  0.00    -0.660 C  
ENDROOT
BRANCH   2   5
HETATM    5  C   UNL     1     -12.840  13.178  71.453  1.00  0.00    -0.401 A  
HETATM    6  C   UNL     1     -13.467  12.200  72.251  1.00  0.00    -0.298 A  
HETATM    7  C   UNL     1     -13.229  10.816  72.064  1.00  0.00    -0.466 A  
HETATM    8  C   UNL     1     -12.376  10.371  71.051  1.00  0.00    -0.490 A  
HETATM    9  C   UNL     1     -12.017  12.707  70.418  1.00  0.00    -0.331 A  
HETATM   10  C   UNL     1     -11.791  11.344  70.227  1.00  0.00    -0.438 A  
BRANCH   8  11
HETATM   11  C   UNL     1     -11.877   8.939  70.877  1.00  0.00    -0.240 C  
BRANCH  11  12
HETATM   12  N   UNL     1     -10.534   8.560  71.357  1.00  0.00    -0.219 NA 
HETATM   13  C   UNL     1     -10.355   7.107  71.522  1.00  0.00    -0.202 C  
HETATM   14  C   UNL     1     -10.030   6.237  70.263  1.00  0.00    -0.173 C  
HETATM   15  N   UNL     1      -9.329   6.836  69.097  1.00  0.00    -0.136 NA 
HETATM   16  C   UNL     1      -9.523   8.288  69.042  1.00  0.00    -0.155 C  
HETATM   17  C   UNL     1      -9.501   9.019  70.400  1.00  0.00    -0.210 C  
BRANCH  15  18
HETATM   18  C   UNL     1      -7.940   6.323  68.900  1.00  0.00    -0.109 C  
BRANCH  18  19
HETATM   19  C   UNL     1      -6.978   7.480  68.559  1.00  0.00    -0.079 A  
HETATM   20  C   UNL     1      -6.386   7.573  67.288  1.00  0.00    -0.053 A  
HETATM   21  C   UNL     1      -6.698   8.490  69.499  1.00  0.00    -0.041 A  
HETATM   22  C   UNL     1      -5.566   8.659  66.961  1.00  0.00    -0.038 A  
HETATM   23  C   UNL     1      -5.875   9.568  69.172  1.00  0.00    -0.035 A  
HETATM   24  C   UNL     1      -5.316   9.657  67.900  1.00  0.00    -0.036 A  
ENDBRANCH  18  19
BRANCH  18  25
HETATM   25  C   UNL     1      -7.347   5.509  70.072  1.00  0.00    -0.069 A  
HETATM   26  C   UNL     1      -6.285   3.947  72.165  1.00  0.00    -0.014 A  
HETATM   27  C   UNL     1      -6.951   5.135  72.455  1.00  0.00    -0.079 A  
HETATM   28 CL   UNL     1      -5.704   2.954  73.444  1.00  0.00     0.000 Cl 
HETATM   29  C   UNL     1      -6.621   4.333  69.803  1.00  0.00    -0.033 A  
HETATM   30  C   UNL     1      -7.461   5.918  71.413  1.00  0.00    -0.096 A  
HETATM   31  C   UNL     1      -6.102   3.555  70.840  1.00  0.00    -0.018 A  
ENDBRANCH  18  25
ENDBRANCH  15  18
ENDBRANCH  11  12
ENDBRANCH   8  11
ENDBRANCH   2   5
TORSDOF 6
ENDMDL
MODEL      133
REMARK 921   NORMALIZED FREE ENERGY PREDICTED BY IDOCK:   -3.42 KCAL/MOL
REMARK 922        TOTAL FREE ENERGY PREDICTED BY IDOCK:   -5.20 KCAL/MOL
REMARK 923 INTER-LIGAND FREE ENERGY PREDICTED BY IDOCK:   -6.47 KCAL/MOL
REMARK 924 INTRA-LIGAND FREE ENERGY PREDICTED BY IDOCK:    1.27 KCAL/MOL
REMARK 927      BINDING AFFINITY PREDICTED BY RF-SCORE:    0.00 PKD
ROOT
HETATM    1  C   UNL     1      -5.130  12.160  68.319  1.00  0.00    -0.054 C  
HETATM    2  C   UNL     1      -6.065  10.935  68.435  1.00  0.00    -0.046 C  
HETATM    3  C   UNL     1      -6.686  10.975  69.855  1.00  0.00    -0.125 C  
HETATM    4  C   UNL     1      -5.175   9.674  68.332  1.00  0.00    -0.033 C  
ENDROOT
BRANCH   2   5
HETATM    5  C   UNL     1      -7.195  10.899  67.385  1.00  0.00    -0.094 A  
HETATM    6  C   UNL     1      -7.013  11.180  66.016  1.00  0.00     0.057 A  
HETATM    7  C   UNL     1      -8.104  11.264  65.116  1.00  0.00     0.459 A  
HETATM    8  C   UNL     1      -9.410  11.039  65.560  1.00  0.00    -0.242 A  
HETATM    9  C   UNL     1      -8.511  10.640  67.800  1.00  0.00    -0.116 A  
HETATM   10  C   UNL     1      -9.584  10.711  66.912  1.00  0.00    -0.200 A  
BRANCH   8  11
HETATM   11  C   UNL     1     -10.678  11.299  64.751  1.00  0.00    -0.285 C  
BRANCH  11  12
HETATM   12  N   UNL     1     -11.171  12.679  64.573  1.00  0.00    -0.317 NA 
HETATM   13  C   UNL     1     -12.438  12.948  65.274  1.00  0.00    -0.493 C  
HETATM   14  C   UNL     1     -12.402  13.276  66.803  1.00  0.00    -0.178 C  
HETATM   15  N   UNL     1     -11.196  13.897  67.410  1.00  0.00    -0.301 NA 
HETATM   16  C   UNL     1      -9.994  13.618  66.619  1.00  0.00    -0.283 C  
HETATM   17  C   UNL     1     -10.175  13.647  65.088  1.00  0.00    -0.328 C  
BRANCH  15  18
HETATM   18  C   UNL     1     -11.406  15.305  67.861  1.00  0.00    -0.334 C  
BRANCH  18  19
HETATM   19  C   UNL     1     -11.838  15.342  69.342  1.00  0.00    -0.367 A  
HETATM   20  C   UNL     1     -11.156  16.145  70.272  1.00  0.00    -0.375 A  
HETATM   21  C   UNL     1     -12.949  14.602  69.790  1.00  0.00     0.263 A  
HETATM   22  C   UNL     1     -11.592  16.226  71.599  1.00  0.00    -0.436 A  
HETATM   23  C   UNL     1     -13.378  14.680  71.116  1.00  0.00    -0.433 A  
HETATM   24  C   UNL     1     -12.705  15.499  72.018  1.00  0.00    -0.490 A  
ENDBRANCH  18  19
BRANCH  18  25
HETATM   25  C   UNL     1     -10.210  16.263  67.667  1.00  0.00    -0.272 A  
HETATM   26  C   UNL     1      -8.034  18.001  67.221  1.00  0.00    -0.212 A  
HETATM   27  C   UNL     1      -8.035  17.160  68.331  1.00  0.00    -0.250 A  
HETATM   28 CL   UNL     1      -6.674  19.006  66.906  1.00  0.00    -0.200 Cl 
HETATM   29  C   UNL     1     -10.209  17.163  66.583  1.00  0.00    -0.319 A  
HETATM   30  C   UNL     1      -9.124  16.312  68.560  1.00  0.00    -0.216 A  
HETATM   31  C   UNL     1      -9.129  18.017  66.358  1.00  0.00    -0.251 A  
ENDBRANCH  18  25
ENDBRANCH  15  18
ENDBRANCH  11  12
ENDBRANCH   8  11
ENDBRANCH   2   5
TORSDOF 6
ENDMDL
MODEL      134
REMARK 921   NORMALIZED FREE ENERGY PREDICTED BY IDOCK:   -3.40 KCAL/MOL
REMARK 922        TOTAL FREE ENERGY PREDICTED BY IDOCK:   -5.18 KCAL/MOL
REMARK 923 INTER-LIGAND FREE ENERGY PREDICTED BY IDOCK:   -5.09 KCAL/MOL
REMARK 924 INTRA-LIGAND FREE ENERGY PREDICTED BY IDOCK:   -0.08 KCAL/MOL
REMARK 927      BINDING AFFINITY PREDICTED BY RF-SCORE:    0.00 PKD
ROOT
HETATM    1  C   UNL     1      -6.425   2.084  67.990  1.00  0.00    -0.029 C  
HETATM    2  C   UNL     1      -7.819   2.625  67.599  1.00  0.00    -0.064 C  
HETATM    3  C   UNL     1      -8.563   2.949  68.918  1.00  0.00    -0.114 C  
HETATM    4  C   UNL     1      -8.569   1.475  66.889  1.00  0.00    -0.106 C  
ENDROOT
BRANCH   2   5
HETATM    5  C   UNL     1      -7.781   3.888  66.711  1.00  0.00    -0.088 A  
HETATM    6  C   UNL     1      -6.604   4.588  66.380  1.00  0.00    -0.046 A  
HETATM    7  C   UNL     1      -6.636   5.815  65.673  1.00  0.00    -0.044 A  
HETATM    8  C   UNL     1      -7.852   6.361  65.251  1.00  0.00    -0.108 A  
HETATM    9  C   UNL     1      -8.987   4.435  66.244  1.00  0.00    -0.120 A  
HETATM   10  C   UNL     1      -9.018   5.638  65.539  1.00  0.00    -0.113 A  
BRANCH   8  11
HETATM   11  C   UNL     1      -8.041   7.761  64.671  1.00  0.00    -0.123 C  
BRANCH  11  12
HETATM   12  N   UNL     1      -7.625   8.945  65.447  1.00  0.00    -0.086 NA 
HETATM   13  C   UNL     1      -8.289  10.190  65.024  1.00  0.00    -0.155 C  
HETATM   14  C   UNL     1      -9.732  10.493  65.545  1.00  0.00    -0.242 C  
HETATM   15  N   UNL     1     -10.194   9.936  66.843  1.00  0.00    -0.230 NA 
HETATM   16  C   UNL     1      -9.446   8.729  67.206  1.00  0.00    -0.158 C  
HETATM   17  C   UNL     1      -7.938   8.751  66.882  1.00  0.00    -0.098 C  
BRANCH  15  18
HETATM   18  C   UNL     1     -10.387  10.966  67.907  1.00  0.00    -0.187 C  
BRANCH  18  19
HETATM   19  C   UNL     1     -10.581  10.296  69.284  1.00  0.00    -0.254 A  
HETATM   20  C   UNL     1     -11.863  10.159  69.844  1.00  0.00    -0.206 A  
HETATM   21  C   UNL     1      -9.485   9.771  69.993  1.00  0.00    -0.278 A  
HETATM   22  C   UNL     1     -12.041   9.492  71.061  1.00  0.00    -0.398 A  
HETATM   23  C   UNL     1      -9.666   9.111  71.210  1.00  0.00    -0.351 A  
HETATM   24  C   UNL     1     -10.945   8.964  71.740  1.00  0.00    -0.431 A  
ENDBRANCH  18  19
BRANCH  18  25
HETATM   25  C   UNL     1      -9.278  12.034  68.024  1.00  0.00    -0.192 A  
HETATM   26  C   UNL     1      -7.289  14.028  68.167  1.00  0.00    -0.128 A  
HETATM   27  C   UNL     1      -6.967  12.705  68.457  1.00  0.00    -0.094 A  
HETATM   28 CL   UNL     1      -6.061  15.233  68.178  1.00  0.00    -0.125 Cl 
HETATM   29  C   UNL     1      -9.589  13.387  67.789  1.00  0.00    -0.213 A  
HETATM   30  C   UNL     1      -7.960  11.720  68.404  1.00  0.00    -0.147 A  
HETATM   31  C   UNL     1      -8.602  14.373  67.852  1.00  0.00    -0.165 A  
ENDBRANCH  18  25
ENDBRANCH  15  18
ENDBRANCH  11  12
ENDBRANCH   8  11
ENDBRANCH   2   5
TORSDOF 6
ENDMDL
MODEL      135
REMARK 921   NORMALIZED FREE ENERGY PREDICTED BY IDOCK:   -3.34 KCAL/MOL
REMARK 922        TOTAL FREE ENERGY PREDICTED BY IDOCK:   -5.09 KCAL/MOL
REMARK 923 INTER-LIGAND FREE ENERGY PREDICTED BY IDOCK:   -6.94 KCAL/MOL
REMARK 924 INTRA-LIGAND FREE ENERGY PREDICTED BY IDOCK:    1.85 KCAL/MOL
REMARK 927      BINDING AFFINITY PREDICTED BY RF-SCORE:    0.00 PKD
ROOT
HETATM    1  C   UNL     1     -10.304   5.567  72.289  1.00  0.00    -0.257 C  
HETATM    2  C   UNL     1     -10.811   6.949  71.818  1.00  0.00    -0.253 C  
HETATM    3  C   UNL     1     -10.600   7.932  72.997  1.00  0.00    -0.406 C  
HETATM    4  C   UNL     1     -12.331   6.813  71.567  1.00  0.00    -0.407 C  
ENDROOT
BRANCH   2   5
HETATM    5  C   UNL     1     -10.093   7.493  70.565  1.00  0.00    -0.188 A  
HETATM    6  C   UNL     1      -8.699   7.446  70.368  1.00  0.00    -0.145 A  
HETATM    7  C   UNL     1      -8.076   8.077  69.263  1.00  0.00    -0.118 A  
HETATM    8  C   UNL     1      -8.840   8.751  68.306  1.00  0.00    -0.141 A  
HETATM    9  C   UNL     1     -10.843   8.143  69.572  1.00  0.00    -0.128 A  
HETATM   10  C   UNL     1     -10.232   8.755  68.478  1.00  0.00    -0.220 A  
BRANCH   8  11
HETATM   11  C   UNL     1      -8.286   9.639  67.195  1.00  0.00    -0.121 C  
BRANCH  11  12
HETATM   12  N   UNL     1      -9.157  10.634  66.539  1.00  0.00    -0.159 NA 
HETATM   13  C   UNL     1     -10.469  10.790  67.192  1.00  0.00    -0.237 C  
HETATM   14  C   UNL     1     -10.578  11.695  68.463  1.00  0.00    -0.215 C  
HETATM   15  N   UNL     1      -9.628  12.819  68.670  1.00  0.00    -0.092 NA 
HETATM   16  C   UNL     1      -8.372  12.599  67.945  1.00  0.00    -0.172 C  
HETATM   17  C   UNL     1      -8.507  11.965  66.546  1.00  0.00    -0.097 C  
BRANCH  15  18
HETATM   18  C   UNL     1     -10.256  14.169  68.556  1.00  0.00    -0.247 C  
BRANCH  18  19
HETATM   19  C   UNL     1     -11.229  14.416  69.728  1.00  0.00    -0.251 A  
HETATM   20  C   UNL     1     -12.455  13.733  69.803  1.00  0.00    -0.216 A  
HETATM   21  C   UNL     1     -10.895  15.302  70.770  1.00  0.00    -0.255 A  
HETATM   22  C   UNL     1     -13.303  13.911  70.901  1.00  0.00    -0.131 A  
HETATM   23  C   UNL     1     -11.747  15.482  71.861  1.00  0.00    -0.527 A  
HETATM   24  C   UNL     1     -12.947  14.780  71.931  1.00  0.00    -0.405 A  
ENDBRANCH  18  19
BRANCH  18  25
HETATM   25  C   UNL     1      -9.281  15.363  68.456  1.00  0.00    -0.198 A  
HETATM   26  C   UNL     1      -7.474  17.526  68.358  1.00  0.00    -0.247 A  
HETATM   27  C   UNL     1      -8.697  17.612  67.697  1.00  0.00    -0.232 A  
HETATM   28 CL   UNL     1      -6.404  18.872  68.365  1.00  0.00    -0.236 Cl 
HETATM   29  C   UNL     1      -8.016  15.280  69.069  1.00  0.00    -0.195 A  
HETATM   30  C   UNL     1      -9.584  16.530  67.732  1.00  0.00    -0.232 A  
HETATM   31  C   UNL     1      -7.125  16.353  69.028  1.00  0.00    -0.208 A  
ENDBRANCH  18  25
ENDBRANCH  15  18
ENDBRANCH  11  12
ENDBRANCH   8  11
ENDBRANCH   2   5
TORSDOF 6
ENDMDL
MODEL      136
REMARK 921   NORMALIZED FREE ENERGY PREDICTED BY IDOCK:   -3.27 KCAL/MOL
REMARK 922        TOTAL FREE ENERGY PREDICTED BY IDOCK:   -5.00 KCAL/MOL
REMARK 923 INTER-LIGAND FREE ENERGY PREDICTED BY IDOCK:   -4.97 KCAL/MOL
REMARK 924 INTRA-LIGAND FREE ENERGY PREDICTED BY IDOCK:   -0.03 KCAL/MOL
REMARK 927      BINDING AFFINITY PREDICTED BY RF-SCORE:    0.00 PKD
ROOT
HETATM    1  C   UNL     1     -11.099  15.626  67.116  1.00  0.00    -0.218 C  
HETATM    2  C   UNL     1     -11.120  14.508  66.050  1.00  0.00    -0.329 C  
HETATM    3  C   UNL     1     -10.668  15.150  64.715  1.00  0.00    -0.344 C  
HETATM    4  C   UNL     1     -12.590  14.054  65.897  1.00  0.00    -0.484 C  
ENDROOT
BRANCH   2   5
HETATM    5  C   UNL     1     -10.205  13.307  66.375  1.00  0.00    -0.292 A  
HETATM    6  C   UNL     1      -9.119  13.359  67.272  1.00  0.00    -0.222 A  
HETATM    7  C   UNL     1      -8.230  12.269  67.435  1.00  0.00    -0.178 A  
HETATM    8  C   UNL     1      -8.421  11.082  66.721  1.00  0.00    -0.148 A  
HETATM    9  C   UNL     1     -10.400  12.093  65.698  1.00  0.00    -0.289 A  
HETATM   10  C   UNL     1      -9.531  11.015  65.866  1.00  0.00    -0.244 A  
BRANCH   8  11
HETATM   11  C   UNL     1      -7.431   9.922  66.648  1.00  0.00    -0.099 C  
BRANCH  11  12
HETATM   12  N   UNL     1      -7.002   9.237  67.883  1.00  0.00    -0.076 NA 
HETATM   13  C   UNL     1      -7.911   9.451  69.022  1.00  0.00    -0.079 C  
HETATM   14  C   UNL     1      -9.211   8.588  69.127  1.00  0.00    -0.150 C  
HETATM   15  N   UNL     1      -9.264   7.234  68.518  1.00  0.00    -0.139 NA 
HETATM   16  C   UNL     1      -8.294   7.097  67.427  1.00  0.00    -0.119 C  
HETATM   17  C   UNL     1      -6.928   7.775  67.655  1.00  0.00    -0.081 C  
BRANCH  15  18
HETATM   18  C   UNL     1      -9.329   6.126  69.517  1.00  0.00    -0.137 C  
BRANCH  18  19
HETATM   19  C   UNL     1      -8.937   4.783  68.866  1.00  0.00    -0.142 A  
HETATM   20  C   UNL     1      -7.799   4.079  69.296  1.00  0.00    -0.056 A  
HETATM   21  C   UNL     1      -9.729   4.211  67.853  1.00  0.00    -0.161 A  
HETATM   22  C   UNL     1      -7.483   2.831  68.749  1.00  0.00    -0.048 A  
HETATM   23  C   UNL     1      -9.408   2.968  67.305  1.00  0.00    -0.198 A  
HETATM   24  C   UNL     1      -8.291   2.274  67.759  1.00  0.00    -0.081 A  
ENDBRANCH  18  19
BRANCH  18  25
HETATM   25  C   UNL     1      -8.492   6.322  70.801  1.00  0.00    -0.135 A  
HETATM   26  C   UNL     1      -6.899   6.625  73.108  1.00  0.00    -0.076 A  
HETATM   27  C   UNL     1      -8.287   6.600  73.221  1.00  0.00    -0.126 A  
HETATM   28 CL   UNL     1      -5.925   6.732  74.521  1.00  0.00    -0.071 Cl 
HETATM   29  C   UNL     1      -7.089   6.406  70.708  1.00  0.00    -0.069 A  
HETATM   30  C   UNL     1      -9.076   6.468  72.072  1.00  0.00    -0.140 A  
HETATM   31  C   UNL     1      -6.300   6.548  71.852  1.00  0.00    -0.046 A  
ENDBRANCH  18  25
ENDBRANCH  15  18
ENDBRANCH  11  12
ENDBRANCH   8  11
ENDBRANCH   2   5
TORSDOF 6
ENDMDL
MODEL      137
REMARK 921   NORMALIZED FREE ENERGY PREDICTED BY IDOCK:   -2.92 KCAL/MOL
REMARK 922        TOTAL FREE ENERGY PREDICTED BY IDOCK:   -4.53 KCAL/MOL
REMARK 923 INTER-LIGAND FREE ENERGY PREDICTED BY IDOCK:   -3.88 KCAL/MOL
REMARK 924 INTRA-LIGAND FREE ENERGY PREDICTED BY IDOCK:   -0.64 KCAL/MOL
REMARK 927      BINDING AFFINITY PREDICTED BY RF-SCORE:    0.00 PKD
ROOT
HETATM    1  C   UNL     1      -8.457  19.578  66.791  1.00  0.00    -0.337 C  
HETATM    2  C   UNL     1      -9.504  18.543  67.261  1.00  0.00    -0.296 C  
HETATM    3  C   UNL     1     -10.389  18.209  66.034  1.00  0.00    -0.360 C  
HETATM    4  C   UNL     1     -10.388  19.241  68.320  1.00  0.00    -0.478 C  
ENDROOT
BRANCH   2   5
HETATM    5  C   UNL     1      -8.897  17.240  67.823  1.00  0.00    -0.234 A  
HETATM    6  C   UNL     1      -9.629  16.056  68.042  1.00  0.00    -0.215 A  
HETATM    7  C   UNL     1      -9.057  14.929  68.683  1.00  0.00    -0.185 A  
HETATM    8  C   UNL     1      -7.723  14.949  69.098  1.00  0.00    -0.164 A  
HETATM    9  C   UNL     1      -7.549  17.223  68.213  1.00  0.00    -0.227 A  
HETATM   10  C   UNL     1      -6.982  16.110  68.835  1.00  0.00    -0.161 A  
BRANCH   8  11
HETATM   11  C   UNL     1      -7.051  13.894  69.975  1.00  0.00     0.391 C  
BRANCH  11  12
HETATM   12  N   UNL     1      -5.989  13.036  69.416  1.00  0.00    -0.095 NA 
HETATM   13  C   UNL     1      -5.353  12.159  70.415  1.00  0.00    -0.134 C  
HETATM   14  C   UNL     1      -6.066  10.827  70.816  1.00  0.00    -0.002 C  
HETATM   15  N   UNL     1      -6.976  10.144  69.859  1.00  0.00    -0.115 NA 
HETATM   16  C   UNL     1      -7.522  11.083  68.875  1.00  0.00    -0.123 C  
HETATM   17  C   UNL     1      -6.544  12.159  68.359  1.00  0.00    -0.059 C  
BRANCH  15  18
HETATM   18  C   UNL     1      -6.446   8.846  69.344  1.00  0.00    -0.044 C  
BRANCH  18  19
HETATM   19  C   UNL     1      -7.130   7.660  70.055  1.00  0.00    -0.059 A  
HETATM   20  C   UNL     1      -6.384   6.549  70.484  1.00  0.00    -0.040 A  
HETATM   21  C   UNL     1      -8.512   7.678  70.326  1.00  0.00    -0.134 A  
HETATM   22  C   UNL     1      -6.997   5.506  71.186  1.00  0.00    -0.065 A  
HETATM   23  C   UNL     1      -9.121   6.633  71.022  1.00  0.00    -0.156 A  
HETATM   24  C   UNL     1      -8.363   5.551  71.459  1.00  0.00    -0.123 A  
ENDBRANCH  18  19
BRANCH  18  25
HETATM   25  C   UNL     1      -6.540   8.635  67.817  1.00  0.00    -0.062 A  
HETATM   26  C   UNL     1      -6.795   8.212  65.041  1.00  0.00    -0.062 A  
HETATM   27  C   UNL     1      -5.553   8.068  65.654  1.00  0.00    -0.036 A  
HETATM   28 CL   UNL     1      -6.968   7.880  63.362  1.00  0.00    -0.074 Cl 
HETATM   29  C   UNL     1      -7.772   8.828  67.164  1.00  0.00    -0.096 A  
HETATM   30  C   UNL     1      -5.426   8.296  67.029  1.00  0.00    -0.037 A  
HETATM   31  C   UNL     1      -7.901   8.611  65.791  1.00  0.00    -0.100 A  
ENDBRANCH  18  25
ENDBRANCH  15  18
ENDBRANCH  11  12
ENDBRANCH   8  11
ENDBRANCH   2   5
TORSDOF 6
ENDMDL
MODEL      138
REMARK 921   NORMALIZED FREE ENERGY PREDICTED BY IDOCK:   -2.84 KCAL/MOL
REMARK 922        TOTAL FREE ENERGY PREDICTED BY IDOCK:   -4.41 KCAL/MOL
REMARK 923 INTER-LIGAND FREE ENERGY PREDICTED BY IDOCK:   -5.38 KCAL/MOL
REMARK 924 INTRA-LIGAND FREE ENERGY PREDICTED BY IDOCK:    0.96 KCAL/MOL
REMARK 927      BINDING AFFINITY PREDICTED BY RF-SCORE:    0.00 PKD
ROOT
HETATM    1  C   UNL     1     -10.072   4.631  67.358  1.00  0.00    -0.150 C  
HETATM    2  C   UNL     1      -8.792   5.296  67.912  1.00  0.00    -0.105 C  
HETATM    3  C   UNL     1      -7.856   4.151  68.375  1.00  0.00    -0.073 C  
HETATM    4  C   UNL     1      -9.208   6.114  69.157  1.00  0.00    -0.129 C  
ENDROOT
BRANCH   2   5
HETATM    5  C   UNL     1      -8.047   6.184  66.893  1.00  0.00    -0.109 A  
HETATM    6  C   UNL     1      -6.859   6.886  67.175  1.00  0.00    -0.072 A  
HETATM    7  C   UNL     1      -6.286   7.793  66.249  1.00  0.00    -0.046 A  
HETATM    8  C   UNL     1      -6.877   8.000  64.999  1.00  0.00    -0.055 A  
HETATM    9  C   UNL     1      -8.601   6.379  65.618  1.00  0.00    -0.138 A  
HETATM   10  C   UNL     1      -8.033   7.263  64.702  1.00  0.00    -0.115 A  
BRANCH   8  11
HETATM   11  C   UNL     1      -6.485   9.088  64.003  1.00  0.00    -0.087 C  
BRANCH  11  12
HETATM   12  N   UNL     1      -7.166  10.398  64.033  1.00  0.00    -0.044 NA 
HETATM   13  C   UNL     1      -8.581  10.337  63.628  1.00  0.00    -0.195 C  
HETATM   14  C   UNL     1      -9.649   9.881  64.676  1.00  0.00    -0.252 C  
HETATM   15  N   UNL     1      -9.412  10.088  66.129  1.00  0.00    -0.178 NA 
HETATM   16  C   UNL     1      -7.981  10.186  66.430  1.00  0.00    -0.120 C  
HETATM   17  C   UNL     1      -7.130  10.960  65.403  1.00  0.00     0.174 C  
BRANCH  15  18
HETATM   18  C   UNL     1     -10.312  11.107  66.747  1.00  0.00    -0.241 C  
BRANCH  18  19
HETATM   19  C   UNL     1     -10.781  10.642  68.142  1.00  0.00    -0.267 A  
HETATM   20  C   UNL     1     -11.790  11.337  68.831  1.00  0.00    -0.413 A  
HETATM   21  C   UNL     1     -10.237   9.491  68.742  1.00  0.00    -0.215 A  
HETATM   22  C   UNL     1     -12.259  10.874  70.065  1.00  0.00    -0.422 A  
HETATM   23  C   UNL     1     -10.702   9.036  69.976  1.00  0.00    -0.247 A  
HETATM   24  C   UNL     1     -11.719   9.722  70.634  1.00  0.00    -0.377 A  
ENDBRANCH  18  19
BRANCH  18  25
HETATM   25  C   UNL     1      -9.737  12.536  66.864  1.00  0.00    -0.232 A  
HETATM   26  C   UNL     1      -8.708  15.144  67.166  1.00  0.00    -0.216 A  
HETATM   27  C   UNL     1      -9.357  14.786  65.988  1.00  0.00    -0.249 A  
HETATM   28 CL   UNL     1      -8.148  16.756  67.383  1.00  0.00    -0.183 Cl 
HETATM   29  C   UNL     1      -9.029  12.907  68.023  1.00  0.00    -0.196 A  
HETATM   30  C   UNL     1      -9.850  13.486  65.833  1.00  0.00    -0.255 A  
HETATM   31  C   UNL     1      -8.526  14.200  68.177  1.00  0.00    -0.173 A  
ENDBRANCH  18  25
ENDBRANCH  15  18
ENDBRANCH  11  12
ENDBRANCH   8  11
ENDBRANCH   2   5
TORSDOF 6
ENDMDL
MODEL      139
REMARK 921   NORMALIZED FREE ENERGY PREDICTED BY IDOCK:   -2.76 KCAL/MOL
REMARK 922        TOTAL FREE ENERGY PREDICTED BY IDOCK:   -4.30 KCAL/MOL
REMARK 923 INTER-LIGAND FREE ENERGY PREDICTED BY IDOCK:   -6.92 KCAL/MOL
REMARK 924 INTRA-LIGAND FREE ENERGY PREDICTED BY IDOCK:    2.61 KCAL/MOL
REMARK 927      BINDING AFFINITY PREDICTED BY RF-SCORE:    0.00 PKD
ROOT
HETATM    1  C   UNL     1     -10.961   7.620  72.690  1.00  0.00    -0.405 C  
HETATM    2  C   UNL     1     -12.033   7.838  71.599  1.00  0.00    -0.330 C  
HETATM    3  C   UNL     1     -13.348   7.210  72.127  1.00  0.00    -0.036 C  
HETATM    4  C   UNL     1     -11.582   7.041  70.353  1.00  0.00    -0.341 C  
ENDROOT
BRANCH   2   5
HETATM    5  C   UNL     1     -12.282   9.320  71.243  1.00  0.00    -0.410 A  
HETATM    6  C   UNL     1     -11.585  10.021  70.240  1.00  0.00    -0.354 A  
HETATM    7  C   UNL     1     -11.756  11.413  70.041  1.00  0.00    -0.416 A  
HETATM    8  C   UNL     1     -12.655  12.138  70.828  1.00  0.00    -0.305 A  
HETATM    9  C   UNL     1     -13.208  10.060  71.995  1.00  0.00    -0.545 A  
HETATM   10  C   UNL     1     -13.385  11.429  71.793  1.00  0.00    -0.368 A  
BRANCH   8  11
HETATM   11  C   UNL     1     -12.781  13.659  70.857  1.00  0.00    -0.310 C  
BRANCH  11  12
HETATM   12  N   UNL     1     -11.726  14.500  70.260  1.00  0.00    -0.284 NA 
HETATM   13  C   UNL     1     -10.443  13.799  70.083  1.00  0.00     1.184 C  
HETATM   14  C   UNL     1     -10.253  12.870  68.839  1.00  0.00     0.012 C  
HETATM   15  N   UNL     1     -11.017  13.124  67.589  1.00  0.00    -0.256 NA 
HETATM   16  C   UNL     1     -12.251  13.868  67.856  1.00  0.00    -0.159 C  
HETATM   17  C   UNL     1     -12.149  14.977  68.923  1.00  0.00    -0.188 C  
BRANCH  15  18
HETATM   18  C   UNL     1     -10.170  13.590  66.450  1.00  0.00    -0.291 C  
BRANCH  18  19
HETATM   19  C   UNL     1     -10.627  12.933  65.130  1.00  0.00    -0.321 A  
HETATM   20  C   UNL     1      -9.705  12.278  64.295  1.00  0.00    -0.044 A  
HETATM   21  C   UNL     1     -11.982  12.940  64.749  1.00  0.00    -0.445 A  
HETATM   22  C   UNL     1     -10.133  11.627  63.133  1.00  0.00    -0.409 A  
HETATM   23  C   UNL     1     -12.405  12.295  63.586  1.00  0.00    -0.664 A  
HETATM   24  C   UNL     1     -11.482  11.631  62.783  1.00  0.00     0.608 A  
ENDBRANCH  18  19
BRANCH  18  25
HETATM   25  C   UNL     1     -10.093  15.119  66.245  1.00  0.00    -0.299 A  
HETATM   26  C   UNL     1      -9.937  17.921  65.962  1.00  0.00    -0.210 A  
HETATM   27  C   UNL     1     -10.830  17.192  65.180  1.00  0.00    -0.008 A  
HETATM   28 CL   UNL     1      -9.895  19.636  65.846  1.00  0.00    -0.423 Cl 
HETATM   29  C   UNL     1      -9.161  15.873  66.984  1.00  0.00    -0.236 A  
HETATM   30  C   UNL     1     -10.892  15.800  65.309  1.00  0.00    -0.409 A  
HETATM   31  C   UNL     1      -9.089  17.260  66.850  1.00  0.00    -0.250 A  
ENDBRANCH  18  25
ENDBRANCH  15  18
ENDBRANCH  11  12
ENDBRANCH   8  11
ENDBRANCH   2   5
TORSDOF 6
ENDMDL
MODEL      140
REMARK 921   NORMALIZED FREE ENERGY PREDICTED BY IDOCK:   -2.70 KCAL/MOL
REMARK 922        TOTAL FREE ENERGY PREDICTED BY IDOCK:   -4.22 KCAL/MOL
REMARK 923 INTER-LIGAND FREE ENERGY PREDICTED BY IDOCK:   -4.07 KCAL/MOL
REMARK 924 INTRA-LIGAND FREE ENERGY PREDICTED BY IDOCK:   -0.16 KCAL/MOL
REMARK 927      BINDING AFFINITY PREDICTED BY RF-SCORE:    0.00 PKD
ROOT
HETATM    1  C   UNL     1     -11.118  14.215  63.766  1.00  0.00     0.677 C  
HETATM    2  C   UNL     1     -11.531  14.792  65.139  1.00  0.00    -0.371 C  
HETATM    3  C   UNL     1     -12.933  15.426  64.957  1.00  0.00     1.027 C  
HETATM    4  C   UNL     1     -10.529  15.921  65.476  1.00  0.00    -0.425 C  
ENDROOT
BRANCH   2   5
HETATM    5  C   UNL     1     -11.586  13.747  66.274  1.00  0.00    -0.369 A  
HETATM    6  C   UNL     1     -11.524  14.064  67.645  1.00  0.00    -0.362 A  
HETATM    7  C   UNL     1     -11.445  13.062  68.643  1.00  0.00    -0.344 A  
HETATM    8  C   UNL     1     -11.454  11.709  68.294  1.00  0.00    -0.369 A  
HETATM    9  C   UNL     1     -11.632  12.382  65.949  1.00  0.00    -0.449 A  
HETATM   10  C   UNL     1     -11.565  11.395  66.932  1.00  0.00    -0.088 A  
BRANCH   8  11
HETATM   11  C   UNL     1     -11.168  10.547  69.241  1.00  0.00    -0.262 C  
BRANCH  11  12
HETATM   12  N   UNL     1      -9.775  10.175  69.557  1.00  0.00    -0.227 NA 
HETATM   13  C   UNL     1      -9.655   9.252  70.698  1.00  0.00    -0.273 C  
HETATM   14  C   UNL     1      -9.893   7.724  70.464  1.00  0.00    -0.182 C  
HETATM   15  N   UNL     1      -9.642   7.120  69.129  1.00  0.00    -0.154 NA 
HETATM   16  C   UNL     1      -9.734   8.121  68.062  1.00  0.00    -0.161 C  
HETATM   17  C   UNL     1      -9.149   9.509  68.391  1.00  0.00    -0.127 C  
BRANCH  15  18
HETATM   18  C   UNL     1      -8.471   6.193  69.098  1.00  0.00    -0.119 C  
BRANCH  18  19
HETATM   19  C   UNL     1      -8.505   5.234  70.307  1.00  0.00    -0.111 A  
HETATM   20  C   UNL     1      -7.335   4.943  71.028  1.00  0.00    -0.061 A  
HETATM   21  C   UNL     1      -9.715   4.658  70.739  1.00  0.00    -0.269 A  
HETATM   22  C   UNL     1      -7.382   4.125  72.163  1.00  0.00    -0.065 A  
HETATM   23  C   UNL     1      -9.757   3.839  71.868  1.00  0.00    -0.237 A  
HETATM   24  C   UNL     1      -8.592   3.579  72.585  1.00  0.00    -0.091 A  
ENDBRANCH  18  19
BRANCH  18  25
HETATM   25  C   UNL     1      -8.300   5.362  67.806  1.00  0.00    -0.099 A  
HETATM   26  C   UNL     1      -7.940   3.785  65.497  1.00  0.00    -0.093 A  
HETATM   27  C   UNL     1      -7.954   5.174  65.394  1.00  0.00    -0.110 A  
HETATM   28 CL   UNL     1      -7.644   2.823  64.102  1.00  0.00    -0.070 Cl 
HETATM   29  C   UNL     1      -8.338   3.957  67.875  1.00  0.00    -0.099 A  
HETATM   30  C   UNL     1      -8.151   5.954  66.539  1.00  0.00    -0.102 A  
HETATM   31  C   UNL     1      -8.152   3.175  66.733  1.00  0.00    -0.080 A  
ENDBRANCH  18  25
ENDBRANCH  15  18
ENDBRANCH  11  12
ENDBRANCH   8  11
ENDBRANCH   2   5
TORSDOF 6
ENDMDL
MODEL      141
REMARK 921   NORMALIZED FREE ENERGY PREDICTED BY IDOCK:   -2.41 KCAL/MOL
REMARK 922        TOTAL FREE ENERGY PREDICTED BY IDOCK:   -3.83 KCAL/MOL
REMARK 923 INTER-LIGAND FREE ENERGY PREDICTED BY IDOCK:   -5.33 KCAL/MOL
REMARK 924 INTRA-LIGAND FREE ENERGY PREDICTED BY IDOCK:    1.50 KCAL/MOL
REMARK 927      BINDING AFFINITY PREDICTED BY RF-SCORE:    0.00 PKD
ROOT
HETATM    1  C   UNL     1     -10.969   5.317  67.650  1.00  0.00     0.391 C  
HETATM    2  C   UNL     1     -10.451   6.440  68.577  1.00  0.00    -0.265 C  
HETATM    3  C   UNL     1      -9.612   5.757  69.686  1.00  0.00    -0.193 C  
HETATM    4  C   UNL     1     -11.690   7.090  69.237  1.00  0.00     0.243 C  
ENDROOT
BRANCH   2   5
HETATM    5  C   UNL     1      -9.588   7.502  67.864  1.00  0.00    -0.161 A  
HETATM    6  C   UNL     1      -8.390   8.030  68.386  1.00  0.00    -0.127 A  
HETATM    7  C   UNL     1      -7.704   9.097  67.757  1.00  0.00    -0.093 A  
HETATM    8  C   UNL     1      -8.187   9.649  66.567  1.00  0.00    -0.119 A  
HETATM    9  C   UNL     1     -10.033   8.046  66.649  1.00  0.00    -0.326 A  
HETATM   10  C   UNL     1      -9.352   9.090  66.023  1.00  0.00    -0.305 A  
BRANCH   8  11
HETATM   11  C   UNL     1      -7.666  10.923  65.905  1.00  0.00    -0.073 C  
BRANCH  11  12
HETATM   12  N   UNL     1      -8.528  12.117  65.820  1.00  0.00     0.451 NA 
HETATM   13  C   UNL     1      -9.902  11.823  65.377  1.00  0.00    -0.233 C  
HETATM   14  C   UNL     1     -10.936  11.287  66.421  1.00  0.00    -0.227 C  
HETATM   15  N   UNL     1     -10.791  11.622  67.862  1.00  0.00    -0.199 NA 
HETATM   16  C   UNL     1      -9.402  11.948  68.200  1.00  0.00    -0.191 C  
HETATM   17  C   UNL     1      -8.630  12.768  67.147  1.00  0.00    -0.197 C  
BRANCH  15  18
HETATM   18  C   UNL     1     -11.853  12.537  68.377  1.00  0.00    -0.304 C  
BRANCH  18  19
HETATM   19  C   UNL     1     -12.381  12.042  69.740  1.00  0.00    -0.112 A  
HETATM   20  C   UNL     1     -13.011  12.927  70.633  1.00  0.00     0.077 A  
HETATM   21  C   UNL     1     -12.280  10.687  70.107  1.00  0.00    -0.398 A  
HETATM   22  C   UNL     1     -13.547  12.462  71.838  1.00  0.00    -0.230 A  
HETATM   23  C   UNL     1     -12.811  10.227  71.313  1.00  0.00    -0.522 A  
HETATM   24  C   UNL     1     -13.452  11.113  72.175  1.00  0.00    -0.193 A  
ENDBRANCH  18  19
BRANCH  18  25
HETATM   25  C   UNL     1     -11.460  14.026  68.505  1.00  0.00    -0.336 A  
HETATM   26  C   UNL     1     -10.712  16.741  68.651  1.00  0.00    -0.352 A  
HETATM   27  C   UNL     1     -10.595  15.927  69.775  1.00  0.00    -0.322 A  
HETATM   28 CL   UNL     1     -10.184  18.376  68.717  1.00  0.00    -0.385 Cl 
HETATM   29  C   UNL     1     -11.620  14.883  67.399  1.00  0.00    -0.347 A  
HETATM   30  C   UNL     1     -10.985  14.584  69.705  1.00  0.00    -0.225 A  
HETATM   31  C   UNL     1     -11.242  16.225  67.469  1.00  0.00    -0.054 A  
ENDBRANCH  18  25
ENDBRANCH  15  18
ENDBRANCH  11  12
ENDBRANCH   8  11
ENDBRANCH   2   5
TORSDOF 6
ENDMDL
MODEL      142
REMARK 921   NORMALIZED FREE ENERGY PREDICTED BY IDOCK:   -2.09 KCAL/MOL
REMARK 922        TOTAL FREE ENERGY PREDICTED BY IDOCK:   -3.40 KCAL/MOL
REMARK 923 INTER-LIGAND FREE ENERGY PREDICTED BY IDOCK:   -4.40 KCAL/MOL
REMARK 924 INTRA-LIGAND FREE ENERGY PREDICTED BY IDOCK:    0.99 KCAL/MOL
REMARK 927      BINDING AFFINITY PREDICTED BY RF-SCORE:    0.00 PKD
ROOT
HETATM    1  C   UNL     1     -10.349   4.033  64.151  1.00  0.00    -0.188 C  
HETATM    2  C   UNL     1      -9.585   4.263  65.474  1.00  0.00    -0.188 C  
HETATM    3  C   UNL     1      -9.124   2.871  65.975  1.00  0.00    -0.133 C  
HETATM    4  C   UNL     1     -10.601   4.832  66.491  1.00  0.00    -0.158 C  
ENDROOT
BRANCH   2   5
HETATM    5  C   UNL     1      -8.358   5.190  65.344  1.00  0.00    -0.132 A  
HETATM    6  C   UNL     1      -7.530   5.564  66.421  1.00  0.00    -0.087 A  
HETATM    7  C   UNL     1      -6.496   6.521  66.275  1.00  0.00    -0.043 A  
HETATM    8  C   UNL     1      -6.245   7.112  65.034  1.00  0.00    -0.037 A  
HETATM    9  C   UNL     1      -8.062   5.768  64.099  1.00  0.00    -0.120 A  
HETATM   10  C   UNL     1      -7.038   6.703  63.952  1.00  0.00    -0.055 A  
BRANCH   8  11
HETATM   11  C   UNL     1      -5.312   8.295  64.787  1.00  0.00    -0.036 C  
BRANCH  11  12
HETATM   12  N   UNL     1      -5.828   9.675  64.876  1.00  0.00    -0.070 NA 
HETATM   13  C   UNL     1      -7.296   9.762  64.799  1.00  0.00    -0.130 C  
HETATM   14  C   UNL     1      -8.139   9.481  66.086  1.00  0.00    -0.111 C  
HETATM   15  N   UNL     1      -7.559   9.724  67.432  1.00  0.00    -0.091 NA 
HETATM   16  C   UNL     1      -6.094   9.667  67.403  1.00  0.00    -0.059 C  
HETATM   17  C   UNL     1      -5.423  10.289  66.161  1.00  0.00    -0.059 C  
BRANCH  15  18
HETATM   18  C   UNL     1      -8.184  10.868  68.161  1.00  0.00    -0.121 C  
BRANCH  18  19
HETATM   19  C   UNL     1      -7.108  11.881  68.606  1.00  0.00    -0.102 A  
HETATM   20  C   UNL     1      -6.720  12.935  67.762  1.00  0.00    -0.141 A  
HETATM   21  C   UNL     1      -6.519  11.797  69.882  1.00  0.00    -0.063 A  
HETATM   22  C   UNL     1      -5.793  13.890  68.195  1.00  0.00    -0.124 A  
HETATM   23  C   UNL     1      -5.590  12.747  70.308  1.00  0.00    -0.151 A  
HETATM   24  C   UNL     1      -5.233  13.799  69.468  1.00  0.00    -0.083 A  
ENDBRANCH  18  19
BRANCH  18  25
HETATM   25  C   UNL     1      -9.300  11.623  67.406  1.00  0.00    -0.168 A  
HETATM   26  C   UNL     1     -11.383  12.924  66.020  1.00  0.00    -0.317 A  
HETATM   27  C   UNL     1     -10.063  13.320  65.821  1.00  0.00    -0.293 A  
HETATM   28 CL   UNL     1     -12.647  13.663  65.118  1.00  0.00    -0.475 Cl 
HETATM   29  C   UNL     1     -10.646  11.278  67.630  1.00  0.00    -0.252 A  
HETATM   30  C   UNL     1      -9.032  12.686  66.524  1.00  0.00    -0.115 A  
HETATM   31  C   UNL     1     -11.677  11.917  66.938  1.00  0.00    -0.291 A  
ENDBRANCH  18  25
ENDBRANCH  15  18
ENDBRANCH  11  12
ENDBRANCH   8  11
ENDBRANCH   2   5
TORSDOF 6
ENDMDL
MODEL      143
REMARK 921   NORMALIZED FREE ENERGY PREDICTED BY IDOCK:   -2.08 KCAL/MOL
REMARK 922        TOTAL FREE ENERGY PREDICTED BY IDOCK:   -3.38 KCAL/MOL
REMARK 923 INTER-LIGAND FREE ENERGY PREDICTED BY IDOCK:   -4.54 KCAL/MOL
REMARK 924 INTRA-LIGAND FREE ENERGY PREDICTED BY IDOCK:    1.16 KCAL/MOL
REMARK 927      BINDING AFFINITY PREDICTED BY RF-SCORE:    0.00 PKD
ROOT
HETATM    1  C   UNL     1      -5.645   3.253  67.301  1.00  0.00    -0.021 C  
HETATM    2  C   UNL     1      -7.058   3.840  67.078  1.00  0.00    -0.063 C  
HETATM    3  C   UNL     1      -7.515   4.437  68.432  1.00  0.00    -0.064 C  
HETATM    4  C   UNL     1      -7.991   2.657  66.730  1.00  0.00    -0.076 C  
ENDROOT
BRANCH   2   5
HETATM    5  C   UNL     1      -7.124   4.932  65.989  1.00  0.00    -0.071 A  
HETATM    6  C   UNL     1      -6.010   5.662  65.530  1.00  0.00    -0.025 A  
HETATM    7  C   UNL     1      -6.143   6.744  64.626  1.00  0.00    -0.036 A  
HETATM    8  C   UNL     1      -7.399   7.108  64.134  1.00  0.00    -0.083 A  
HETATM    9  C   UNL     1      -8.371   5.290  65.452  1.00  0.00    -0.136 A  
HETATM   10  C   UNL     1      -8.501   6.349  64.553  1.00  0.00     0.107 A  
BRANCH   8  11
HETATM   11  C   UNL     1      -7.705   8.368  63.328  1.00  0.00    -0.140 C  
BRANCH  11  12
HETATM   12  N   UNL     1      -7.546   9.698  63.947  1.00  0.00    -0.121 NA 
HETATM   13  C   UNL     1      -8.676  10.607  63.690  1.00  0.00    -0.145 C  
HETATM   14  C   UNL     1      -9.966  10.476  64.564  1.00  0.00    -0.345 C  
HETATM   15  N   UNL     1      -9.886   9.939  65.947  1.00  0.00    -0.257 NA 
HETATM   16  C   UNL     1      -8.706   9.087  66.123  1.00  0.00    -0.147 C  
HETATM   17  C   UNL     1      -7.421   9.565  65.417  1.00  0.00    -0.099 C  
BRANCH  15  18
HETATM   18  C   UNL     1     -10.159  10.956  67.006  1.00  0.00    -0.205 C  
BRANCH  18  19
HETATM   19  C   UNL     1      -9.022  10.972  68.050  1.00  0.00    -0.145 A  
HETATM   20  C   UNL     1      -8.944   9.982  69.045  1.00  0.00    -0.163 A  
HETATM   21  C   UNL     1      -8.015  11.955  68.008  1.00  0.00    -0.147 A  
HETATM   22  C   UNL     1      -7.876   9.963  69.948  1.00  0.00    -0.182 A  
HETATM   23  C   UNL     1      -6.954  11.936  68.914  1.00  0.00    -0.110 A  
HETATM   24  C   UNL     1      -6.880  10.935  69.879  1.00  0.00    -0.126 A  
ENDBRANCH  18  19
BRANCH  18  25
HETATM   25  C   UNL     1     -10.403  12.399  66.511  1.00  0.00    -0.248 A  
HETATM   26  C   UNL     1     -10.934  15.010  65.588  1.00  0.00    -0.354 A  
HETATM   27  C   UNL     1      -9.675  14.448  65.395  1.00  0.00    -0.156 A  
HETATM   28 CL   UNL     1     -11.284  16.571  64.957  1.00  0.00    -0.192 Cl 
HETATM   29  C   UNL     1     -11.650  13.010  66.742  1.00  0.00    -0.420 A  
HETATM   30  C   UNL     1      -9.408  13.159  65.871  1.00  0.00     0.062 A  
HETATM   31  C   UNL     1     -11.916  14.300  66.278  1.00  0.00    -0.428 A  
ENDBRANCH  18  25
ENDBRANCH  15  18
ENDBRANCH  11  12
ENDBRANCH   8  11
ENDBRANCH   2   5
TORSDOF 6
ENDMDL
MODEL      144
REMARK 921   NORMALIZED FREE ENERGY PREDICTED BY IDOCK:   -1.96 KCAL/MOL
REMARK 922        TOTAL FREE ENERGY PREDICTED BY IDOCK:   -3.22 KCAL/MOL
REMARK 923 INTER-LIGAND FREE ENERGY PREDICTED BY IDOCK:   -5.67 KCAL/MOL
REMARK 924 INTRA-LIGAND FREE ENERGY PREDICTED BY IDOCK:    2.45 KCAL/MOL
REMARK 927      BINDING AFFINITY PREDICTED BY RF-SCORE:    0.00 PKD
ROOT
HETATM    1  C   UNL     1      -5.826   3.366  70.674  1.00  0.00    -0.017 C  
HETATM    2  C   UNL     1      -6.009   4.865  71.000  1.00  0.00    -0.017 C  
HETATM    3  C   UNL     1      -5.451   5.660  69.793  1.00  0.00    -0.004 C  
HETATM    4  C   UNL     1      -5.125   5.172  72.232  1.00  0.00    -0.005 C  
ENDROOT
BRANCH   2   5
HETATM    5  C   UNL     1      -7.472   5.284  71.255  1.00  0.00    -0.091 A  
HETATM    6  C   UNL     1      -7.855   6.368  72.070  1.00  0.00    -0.100 A  
HETATM    7  C   UNL     1      -9.213   6.630  72.379  1.00  0.00    -0.140 A  
HETATM    8  C   UNL     1     -10.229   5.827  71.855  1.00  0.00    -0.246 A  
HETATM    9  C   UNL     1      -8.512   4.514  70.710  1.00  0.00    -0.107 A  
HETATM   10  C   UNL     1      -9.849   4.778  71.005  1.00  0.00    -0.267 A  
BRANCH   8  11
HETATM   11  C   UNL     1     -11.697   5.872  72.269  1.00  0.00    -0.252 C  
BRANCH  11  12
HETATM   12  N   UNL     1     -12.616   6.837  71.634  1.00  0.00    -0.358 NA 
HETATM   13  C   UNL     1     -12.569   8.180  72.237  1.00  0.00    -0.273 C  
HETATM   14  C   UNL     1     -11.425   9.160  71.815  1.00  0.00    -0.381 C  
HETATM   15  N   UNL     1     -10.790   9.042  70.476  1.00  0.00    -0.238 NA 
HETATM   16  C   UNL     1     -10.929   7.686  69.935  1.00  0.00    -0.200 C  
HETATM   17  C   UNL     1     -12.280   6.992  70.200  1.00  0.00     0.097 C  
BRANCH  15  18
HETATM   18  C   UNL     1     -11.101  10.179  69.559  1.00  0.00    -0.250 C  
BRANCH  18  19
HETATM   19  C   UNL     1     -11.865  11.289  70.311  1.00  0.00    -0.446 A  
HETATM   20  C   UNL     1     -11.567  12.645  70.091  1.00  0.00    -0.141 A  
HETATM   21  C   UNL     1     -12.905  10.973  71.206  1.00  0.00    -0.528 A  
HETATM   22  C   UNL     1     -12.306  13.650  70.724  1.00  0.00    -0.446 A  
HETATM   23  C   UNL     1     -13.637  11.978  71.841  1.00  0.00    -0.145 A  
HETATM   24  C   UNL     1     -13.343  13.316  71.593  1.00  0.00    -0.406 A  
ENDBRANCH  18  19
BRANCH  18  25
HETATM   25  C   UNL     1      -9.894  10.810  68.830  1.00  0.00    -0.209 A  
HETATM   26  C   UNL     1      -7.650  11.974  67.581  1.00  0.00    -0.136 A  
HETATM   27  C   UNL     1      -8.922  12.173  67.050  1.00  0.00    -0.201 A  
HETATM   28 CL   UNL     1      -6.290  12.747  66.866  1.00  0.00     0.293 Cl 
HETATM   29  C   UNL     1      -8.592  10.579  69.315  1.00  0.00    -0.136 A  
HETATM   30  C   UNL     1     -10.031  11.579  67.661  1.00  0.00    -0.199 A  
HETATM   31  C   UNL     1      -7.482  11.162  68.702  1.00  0.00    -0.119 A  
ENDBRANCH  18  25
ENDBRANCH  15  18
ENDBRANCH  11  12
ENDBRANCH   8  11
ENDBRANCH   2   5
TORSDOF 6
ENDMDL
MODEL      145
REMARK 921   NORMALIZED FREE ENERGY PREDICTED BY IDOCK:   -1.76 KCAL/MOL
REMARK 922        TOTAL FREE ENERGY PREDICTED BY IDOCK:   -2.95 KCAL/MOL
REMARK 923 INTER-LIGAND FREE ENERGY PREDICTED BY IDOCK:   -4.01 KCAL/MOL
REMARK 924 INTRA-LIGAND FREE ENERGY PREDICTED BY IDOCK:    1.05 KCAL/MOL
REMARK 927      BINDING AFFINITY PREDICTED BY RF-SCORE:    0.00 PKD
ROOT
HETATM    1  C   UNL     1      -5.182  10.867  63.085  1.00  0.00    -0.145 C  
HETATM    2  C   UNL     1      -6.138   9.856  63.757  1.00  0.00    -0.123 C  
HETATM    3  C   UNL     1      -5.276   8.648  64.201  1.00  0.00    -0.052 C  
HETATM    4  C   UNL     1      -7.125   9.373  62.669  1.00  0.00    -0.100 C  
ENDROOT
BRANCH   2   5
HETATM    5  C   UNL     1      -6.896  10.419  64.978  1.00  0.00    -0.065 A  
HETATM    6  C   UNL     1      -6.315  11.246  65.959  1.00  0.00     0.077 A  
HETATM    7  C   UNL     1      -7.016  11.628  67.129  1.00  0.00    -0.144 A  
HETATM    8  C   UNL     1      -8.334  11.211  67.336  1.00  0.00    -0.135 A  
HETATM    9  C   UNL     1      -8.233  10.044  65.189  1.00  0.00    -0.146 A  
HETATM   10  C   UNL     1      -8.927  10.429  66.336  1.00  0.00    -0.166 A  
BRANCH   8  11
HETATM   11  C   UNL     1      -9.122  11.376  68.633  1.00  0.00    -0.135 C  
BRANCH  11  12
HETATM   12  N   UNL     1      -8.747  10.598  69.830  1.00  0.00     0.150 NA 
HETATM   13  C   UNL     1      -9.806   9.687  70.297  1.00  0.00    -0.266 C  
HETATM   14  C   UNL     1      -9.982   8.304  69.589  1.00  0.00    -0.193 C  
HETATM   15  N   UNL     1      -8.824   7.646  68.928  1.00  0.00    -0.135 NA 
HETATM   16  C   UNL     1      -7.801   8.623  68.543  1.00  0.00    -0.108 C  
HETATM   17  C   UNL     1      -7.554   9.768  69.545  1.00  0.00    -0.114 C  
BRANCH  15  18
HETATM   18  C   UNL     1      -8.360   6.406  69.619  1.00  0.00    -0.126 C  
BRANCH  18  19
HETATM   19  C   UNL     1      -9.224   6.124  70.866  1.00  0.00    -0.163 A  
HETATM   20  C   UNL     1      -8.679   6.224  72.157  1.00  0.00    -0.133 A  
HETATM   21  C   UNL     1     -10.587   5.796  70.743  1.00  0.00    -0.337 A  
HETATM   22  C   UNL     1      -9.481   6.031  73.287  1.00  0.00    -0.142 A  
HETATM   23  C   UNL     1     -11.384   5.599  71.872  1.00  0.00    -0.208 A  
HETATM   24  C   UNL     1     -10.833   5.725  73.144  1.00  0.00    -0.310 A  
ENDBRANCH  18  19
BRANCH  18  25
HETATM   25  C   UNL     1      -8.303   5.129  68.751  1.00  0.00    -0.088 A  
HETATM   26  C   UNL     1      -8.122   2.828  67.131  1.00  0.00    -0.075 A  
HETATM   27  C   UNL     1      -9.367   3.389  67.403  1.00  0.00    -0.243 A  
HETATM   28 CL   UNL     1      -8.001   1.471  66.081  1.00  0.00    -0.071 Cl 
HETATM   29  C   UNL     1      -7.063   4.510  68.506  1.00  0.00    -0.053 A  
HETATM   30  C   UNL     1      -9.456   4.521  68.222  1.00  0.00    -0.205 A  
HETATM   31  C   UNL     1      -6.971   3.376  67.698  1.00  0.00    -0.050 A  
ENDBRANCH  18  25
ENDBRANCH  15  18
ENDBRANCH  11  12
ENDBRANCH   8  11
ENDBRANCH   2   5
TORSDOF 6
ENDMDL
MODEL      146
REMARK 921   NORMALIZED FREE ENERGY PREDICTED BY IDOCK:   -1.61 KCAL/MOL
REMARK 922        TOTAL FREE ENERGY PREDICTED BY IDOCK:   -2.76 KCAL/MOL
REMARK 923 INTER-LIGAND FREE ENERGY PREDICTED BY IDOCK:   -2.84 KCAL/MOL
REMARK 924 INTRA-LIGAND FREE ENERGY PREDICTED BY IDOCK:    0.09 KCAL/MOL
REMARK 927      BINDING AFFINITY PREDICTED BY RF-SCORE:    0.00 PKD
ROOT
HETATM    1  C   UNL     1     -10.086   8.580  72.919  1.00  0.00    -0.053 C  
HETATM    2  C   UNL     1      -9.914   7.046  72.991  1.00  0.00    -0.227 C  
HETATM    3  C   UNL     1     -11.335   6.431  72.942  1.00  0.00    -0.169 C  
HETATM    4  C   UNL     1      -9.294   6.723  74.370  1.00  0.00    -0.259 C  
ENDROOT
BRANCH   2   5
HETATM    5  C   UNL     1      -9.060   6.451  71.851  1.00  0.00    -0.145 A  
HETATM    6  C   UNL     1      -9.592   5.901  70.668  1.00  0.00    -0.208 A  
HETATM    7  C   UNL     1      -8.775   5.248  69.712  1.00  0.00    -0.116 A  
HETATM    8  C   UNL     1      -7.394   5.152  69.904  1.00  0.00    -0.060 A  
HETATM    9  C   UNL     1      -7.667   6.376  72.004  1.00  0.00    -0.096 A  
HETATM   10  C   UNL     1      -6.861   5.743  71.058  1.00  0.00    -0.061 A  
BRANCH   8  11
HETATM   11  C   UNL     1      -6.440   4.305  69.066  1.00  0.00    -0.040 C  
BRANCH  11  12
HETATM   12  N   UNL     1      -5.870   4.848  67.818  1.00  0.00    -0.021 NA 
HETATM   13  C   UNL     1      -5.150   3.847  67.013  1.00  0.00    -0.008 C  
HETATM   14  C   UNL     1      -5.969   2.885  66.091  1.00  0.00    -0.023 C  
HETATM   15  N   UNL     1      -7.288   3.306  65.550  1.00  0.00    -0.074 NA 
HETATM   16  C   UNL     1      -7.907   4.339  66.387  1.00  0.00    -0.094 C  
HETATM   17  C   UNL     1      -6.948   5.399  66.963  1.00  0.00    -0.065 C  
BRANCH  15  18
HETATM   18  C   UNL     1      -7.289   3.532  64.073  1.00  0.00    -0.059 C  
BRANCH  18  19
HETATM   19  C   UNL     1      -8.654   3.145  63.465  1.00  0.00    -0.089 A  
HETATM   20  C   UNL     1      -8.891   1.841  62.999  1.00  0.00    -0.083 A  
HETATM   21  C   UNL     1      -9.706   4.078  63.399  1.00  0.00    -0.143 A  
HETATM   22  C   UNL     1     -10.149   1.476  62.510  1.00  0.00    -0.094 A  
HETATM   23  C   UNL     1     -10.960   3.712  62.904  1.00  0.00    -0.061 A  
HETATM   24  C   UNL     1     -11.184   2.409  62.468  1.00  0.00    -0.158 A  
ENDBRANCH  18  19
BRANCH  18  25
HETATM   25  C   UNL     1      -6.921   4.958  63.607  1.00  0.00    -0.047 A  
HETATM   26  C   UNL     1      -6.181   7.561  62.814  1.00  0.00    -0.059 A  
HETATM   27  C   UNL     1      -7.526   7.206  62.860  1.00  0.00    -0.097 A  
HETATM   28 CL   UNL     1      -5.730   9.170  62.406  1.00  0.00    -0.086 Cl 
HETATM   29  C   UNL     1      -5.566   5.326  63.499  1.00  0.00    -0.014 A  
HETATM   30  C   UNL     1      -7.890   5.908  63.236  1.00  0.00    -0.103 A  
HETATM   31  C   UNL     1      -5.200   6.617  63.114  1.00  0.00    -0.030 A  
ENDBRANCH  18  25
ENDBRANCH  15  18
ENDBRANCH  11  12
ENDBRANCH   8  11
ENDBRANCH   2   5
TORSDOF 6
ENDMDL
MODEL      147
REMARK 921   NORMALIZED FREE ENERGY PREDICTED BY IDOCK:   -1.35 KCAL/MOL
REMARK 922        TOTAL FREE ENERGY PREDICTED BY IDOCK:   -2.40 KCAL/MOL
REMARK 923 INTER-LIGAND FREE ENERGY PREDICTED BY IDOCK:   -4.35 KCAL/MOL
REMARK 924 INTRA-LIGAND FREE ENERGY PREDICTED BY IDOCK:    1.94 KCAL/MOL
REMARK 927      BINDING AFFINITY PREDICTED BY RF-SCORE:    0.00 PKD
ROOT
HETATM    1  C   UNL     1     -12.752  13.107  65.471  1.00  0.00    -0.367 C  
HETATM    2  C   UNL     1     -11.303  12.798  65.034  1.00  0.00    -0.344 C  
HETATM    3  C   UNL     1     -10.846  13.969  64.128  1.00  0.00     0.064 C  
HETATM    4  C   UNL     1     -11.353  11.512  64.176  1.00  0.00    -0.349 C  
ENDROOT
BRANCH   2   5
HETATM    5  C   UNL     1     -10.309  12.639  66.204  1.00  0.00    -0.273 A  
HETATM    6  C   UNL     1     -10.612  12.941  67.547  1.00  0.00    -0.234 A  
HETATM    7  C   UNL     1      -9.626  12.905  68.564  1.00  0.00    -0.113 A  
HETATM    8  C   UNL     1      -8.311  12.538  68.267  1.00  0.00    -0.167 A  
HETATM    9  C   UNL     1      -8.991  12.237  65.936  1.00  0.00     0.135 A  
HETATM   10  C   UNL     1      -8.022  12.191  66.939  1.00  0.00    -0.089 A  
BRANCH   8  11
HETATM   11  C   UNL     1      -7.121  12.659  69.215  1.00  0.00     0.097 C  
BRANCH  11  12
HETATM   12  N   UNL     1      -6.217  13.822  69.123  1.00  0.00    -0.094 NA 
HETATM   13  C   UNL     1      -5.903  14.217  67.739  1.00  0.00    -0.078 C  
HETATM   14  C   UNL     1      -6.931  15.093  66.951  1.00  0.00     0.520 C  
HETATM   15  N   UNL     1      -7.856  16.002  67.676  1.00  0.00    -0.136 NA 
HETATM   16  C   UNL     1      -8.071  15.558  69.057  1.00  0.00    -0.220 C  
HETATM   17  C   UNL     1      -6.831  14.998  69.783  1.00  0.00    -0.181 C  
BRANCH  15  18
HETATM   18  C   UNL     1      -7.569  17.452  67.461  1.00  0.00    -0.187 C  
BRANCH  18  19
HETATM   19  C   UNL     1      -8.843  18.196  67.007  1.00  0.00    -0.265 A  
HETATM   20  C   UNL     1     -10.097  17.874  67.552  1.00  0.00    -0.343 A  
HETATM   21  C   UNL     1      -8.774  19.240  66.065  1.00  0.00    -0.141 A  
HETATM   22  C   UNL     1     -11.239  18.595  67.187  1.00  0.00     0.276 A  
HETATM   23  C   UNL     1      -9.916  19.953  65.698  1.00  0.00    -0.252 A  
HETATM   24  C   UNL     1     -11.147  19.637  66.266  1.00  0.00    -0.108 A  
ENDBRANCH  18  19
BRANCH  18  25
HETATM   25  C   UNL     1      -6.951  18.205  68.660  1.00  0.00    -0.262 A  
HETATM   26  C   UNL     1      -5.824  19.501  70.896  1.00  0.00    -0.164 A  
HETATM   27  C   UNL     1      -6.740  20.174  70.092  1.00  0.00    -0.136 A  
HETATM   28 CL   UNL     1      -5.193  20.262  72.303  1.00  0.00    -0.055 Cl 
HETATM   29  C   UNL     1      -5.982  17.566  69.456  1.00  0.00    -0.246 A  
HETATM   30  C   UNL     1      -7.284  19.535  68.972  1.00  0.00    -0.397 A  
HETATM   31  C   UNL     1      -5.429  18.204  70.568  1.00  0.00    -0.238 A  
ENDBRANCH  18  25
ENDBRANCH  15  18
ENDBRANCH  11  12
ENDBRANCH   8  11
ENDBRANCH   2   5
TORSDOF 6
ENDMDL
MODEL      148
REMARK 921   NORMALIZED FREE ENERGY PREDICTED BY IDOCK:   -1.31 KCAL/MOL
REMARK 922        TOTAL FREE ENERGY PREDICTED BY IDOCK:   -2.35 KCAL/MOL
REMARK 923 INTER-LIGAND FREE ENERGY PREDICTED BY IDOCK:   -2.89 KCAL/MOL
REMARK 924 INTRA-LIGAND FREE ENERGY PREDICTED BY IDOCK:    0.54 KCAL/MOL
REMARK 927      BINDING AFFINITY PREDICTED BY RF-SCORE:    0.00 PKD
ROOT
HETATM    1  C   UNL     1      -9.880  17.349  66.874  1.00  0.00    -0.289 C  
HETATM    2  C   UNL     1      -9.133  17.649  68.193  1.00  0.00    -0.276 C  
HETATM    3  C   UNL     1     -10.210  18.005  69.248  1.00  0.00    -0.043 C  
HETATM    4  C   UNL     1      -8.263  18.904  67.946  1.00  0.00    -0.305 C  
ENDROOT
BRANCH   2   5
HETATM    5  C   UNL     1      -8.274  16.478  68.715  1.00  0.00    -0.248 A  
HETATM    6  C   UNL     1      -6.881  16.545  68.914  1.00  0.00    -0.186 A  
HETATM    7  C   UNL     1      -6.119  15.404  69.267  1.00  0.00    -0.113 A  
HETATM    8  C   UNL     1      -6.739  14.166  69.459  1.00  0.00    -0.112 A  
HETATM    9  C   UNL     1      -8.880  15.234  68.950  1.00  0.00    -0.209 A  
HETATM   10  C   UNL     1      -8.132  14.113  69.309  1.00  0.00     0.229 A  
BRANCH   8  11
HETATM   11  C   UNL     1      -6.019  12.832  69.636  1.00  0.00    -0.121 C  
BRANCH  11  12
HETATM   12  N   UNL     1      -6.619  11.773  70.471  1.00  0.00     0.091 NA 
HETATM   13  C   UNL     1      -7.742  11.075  69.822  1.00  0.00     0.294 C  
HETATM   14  C   UNL     1      -7.435   9.938  68.793  1.00  0.00    -0.079 C  
HETATM   15  N   UNL     1      -6.174   9.157  68.892  1.00  0.00    -0.044 NA 
HETATM   16  C   UNL     1      -5.130   9.909  69.594  1.00  0.00    -0.034 C  
HETATM   17  C   UNL     1      -5.602  10.747  70.800  1.00  0.00    -0.110 C  
BRANCH  15  18
HETATM   18  C   UNL     1      -6.378   7.732  69.293  1.00  0.00    -0.035 C  
BRANCH  18  19
HETATM   19  C   UNL     1      -7.413   7.632  70.433  1.00  0.00    -0.079 A  
HETATM   20  C   UNL     1      -8.727   7.204  70.177  1.00  0.00    -0.141 A  
HETATM   21  C   UNL     1      -7.056   7.929  71.762  1.00  0.00    -0.070 A  
HETATM   22  C   UNL     1      -9.643   7.050  71.223  1.00  0.00    -0.164 A  
HETATM   23  C   UNL     1      -7.975   7.781  72.803  1.00  0.00    -0.153 A  
HETATM   24  C   UNL     1      -9.265   7.334  72.534  1.00  0.00    -0.168 A  
ENDBRANCH  18  19
BRANCH  18  25
HETATM   25  C   UNL     1      -6.785   6.762  68.162  1.00  0.00    -0.068 A  
HETATM   26  C   UNL     1      -7.525   5.061  66.038  1.00  0.00    -0.082 A  
HETATM   27  C   UNL     1      -8.057   4.857  67.308  1.00  0.00    -0.106 A  
HETATM   28 CL   UNL     1      -8.033   4.074  64.725  1.00  0.00    -0.089 Cl 
HETATM   29  C   UNL     1      -6.220   6.913  66.881  1.00  0.00    -0.041 A  
HETATM   30  C   UNL     1      -7.674   5.692  68.365  1.00  0.00    -0.092 A  
HETATM   31  C   UNL     1      -6.592   6.076  65.827  1.00  0.00    -0.047 A  
ENDBRANCH  18  25
ENDBRANCH  15  18
ENDBRANCH  11  12
ENDBRANCH   8  11
ENDBRANCH   2   5
TORSDOF 6
ENDMDL
MODEL      149
REMARK 921   NORMALIZED FREE ENERGY PREDICTED BY IDOCK:   -1.12 KCAL/MOL
REMARK 922        TOTAL FREE ENERGY PREDICTED BY IDOCK:   -2.08 KCAL/MOL
REMARK 923 INTER-LIGAND FREE ENERGY PREDICTED BY IDOCK:   -2.78 KCAL/MOL
REMARK 924 INTRA-LIGAND FREE ENERGY PREDICTED BY IDOCK:    0.70 KCAL/MOL
REMARK 927      BINDING AFFINITY PREDICTED BY RF-SCORE:    0.00 PKD
ROOT
HETATM    1  C   UNL     1     -11.208  10.543  65.200  1.00  0.00     0.812 C  
HETATM    2  C   UNL     1     -11.303  11.498  63.988  1.00  0.00    -0.380 C  
HETATM    3  C   UNL     1     -12.588  11.114  63.212  1.00  0.00     1.120 C  
HETATM    4  C   UNL     1     -10.084  11.206  63.083  1.00  0.00    -0.373 C  
ENDROOT
BRANCH   2   5
HETATM    5  C   UNL     1     -11.362  12.994  64.365  1.00  0.00    -0.397 A  
HETATM    6  C   UNL     1     -12.531  13.778  64.312  1.00  0.00    -0.308 A  
HETATM    7  C   UNL     1     -12.507  15.176  64.539  1.00  0.00    -0.099 A  
HETATM    8  C   UNL     1     -11.310  15.825  64.855  1.00  0.00    -0.284 A  
HETATM    9  C   UNL     1     -10.178  13.660  64.721  1.00  0.00    -0.363 A  
HETATM   10  C   UNL     1     -10.156  15.035  64.956  1.00  0.00    -0.289 A  
BRANCH   8  11
HETATM   11  C   UNL     1     -11.111  17.337  64.918  1.00  0.00     0.414 C  
BRANCH  11  12
HETATM   12  N   UNL     1     -10.779  17.986  66.202  1.00  0.00    -0.234 NA 
HETATM   13  C   UNL     1     -11.285  17.258  67.379  1.00  0.00     0.253 C  
HETATM   14  C   UNL     1     -10.475  16.032  67.916  1.00  0.00    -0.292 C  
HETATM   15  N   UNL     1      -9.007  15.948  67.699  1.00  0.00    -0.189 NA 
HETATM   16  C   UNL     1      -8.590  16.740  66.538  1.00  0.00    -0.277 C  
HETATM   17  C   UNL     1      -9.310  18.092  66.355  1.00  0.00    -0.265 C  
BRANCH  15  18
HETATM   18  C   UNL     1      -8.204  16.092  68.950  1.00  0.00    -0.229 C  
BRANCH  18  19
HETATM   19  C   UNL     1      -7.252  14.890  69.126  1.00  0.00    -0.153 A  
HETATM   20  C   UNL     1      -6.991  14.016  68.057  1.00  0.00    -0.147 A  
HETATM   21  C   UNL     1      -6.594  14.662  70.349  1.00  0.00    -0.055 A  
HETATM   22  C   UNL     1      -6.077  12.967  68.201  1.00  0.00    -0.094 A  
HETATM   23  C   UNL     1      -5.687  13.610  70.491  1.00  0.00    -0.167 A  
HETATM   24  C   UNL     1      -5.422  12.768  69.415  1.00  0.00    -0.079 A  
ENDBRANCH  18  19
BRANCH  18  25
HETATM   25  C   UNL     1      -7.389  17.398  69.084  1.00  0.00    -0.144 A  
HETATM   26  C   UNL     1      -5.976  19.828  69.303  1.00  0.00    -0.276 A  
HETATM   27  C   UNL     1      -5.321  18.681  68.862  1.00  0.00    -0.197 A  
HETATM   28 CL   UNL     1      -5.136  21.328  69.364  1.00  0.00    -0.297 Cl 
HETATM   29  C   UNL     1      -8.014  18.558  69.580  1.00  0.00     0.430 A  
HETATM   30  C   UNL     1      -6.020  17.472  68.772  1.00  0.00    -0.175 A  
HETATM   31  C   UNL     1      -7.317  19.763  69.681  1.00  0.00    -0.045 A  
ENDBRANCH  18  25
ENDBRANCH  15  18
ENDBRANCH  11  12
ENDBRANCH   8  11
ENDBRANCH   2   5
TORSDOF 6
ENDMDL
MODEL      150
REMARK 921   NORMALIZED FREE ENERGY PREDICTED BY IDOCK:   -0.70 KCAL/MOL
REMARK 922        TOTAL FREE ENERGY PREDICTED BY IDOCK:   -1.52 KCAL/MOL
REMARK 923 INTER-LIGAND FREE ENERGY PREDICTED BY IDOCK:   -4.05 KCAL/MOL
REMARK 924 INTRA-LIGAND FREE ENERGY PREDICTED BY IDOCK:    2.53 KCAL/MOL
REMARK 927      BINDING AFFINITY PREDICTED BY RF-SCORE:    0.00 PKD
ROOT
HETATM    1  C   UNL     1     -13.518  13.967  64.738  1.00  0.00     1.155 C  
HETATM    2  C   UNL     1     -12.362  12.951  64.589  1.00  0.00    -0.501 C  
HETATM    3  C   UNL     1     -11.635  13.288  63.264  1.00  0.00    -0.043 C  
HETATM    4  C   UNL     1     -13.004  11.552  64.448  1.00  0.00     0.979 C  
ENDROOT
BRANCH   2   5
HETATM    5  C   UNL     1     -11.345  12.975  65.750  1.00  0.00    -0.331 A  
HETATM    6  C   UNL     1     -11.605  13.529  67.020  1.00  0.00    -0.394 A  
HETATM    7  C   UNL     1     -10.596  13.646  68.007  1.00  0.00    -0.256 A  
HETATM    8  C   UNL     1      -9.301  13.184  67.759  1.00  0.00    -0.206 A  
HETATM    9  C   UNL     1     -10.048  12.483  65.537  1.00  0.00    -0.282 A  
HETATM   10  C   UNL     1      -9.057  12.588  66.513  1.00  0.00    -0.177 A  
BRANCH   8  11
HETATM   11  C   UNL     1      -8.085  13.434  68.646  1.00  0.00    -0.040 C  
BRANCH  11  12
HETATM   12  N   UNL     1      -7.043  14.389  68.222  1.00  0.00    -0.100 NA 
HETATM   13  C   UNL     1      -7.376  15.113  66.983  1.00  0.00     0.020 C  
HETATM   14  C   UNL     1      -8.326  16.353  67.063  1.00  0.00    -0.199 C  
HETATM   15  N   UNL     1      -8.408  17.157  68.310  1.00  0.00    -0.224 NA 
HETATM   16  C   UNL     1      -8.012  16.371  69.482  1.00  0.00     0.140 C  
HETATM   17  C   UNL     1      -6.826  15.408  69.275  1.00  0.00    -0.157 C  
BRANCH  15  18
HETATM   18  C   UNL     1      -7.832  18.530  68.181  1.00  0.00    -0.290 C  
BRANCH  18  19
HETATM   19  C   UNL     1      -6.849  18.817  69.336  1.00  0.00    -0.217 A  
HETATM   20  C   UNL     1      -6.830  20.071  69.970  1.00  0.00    -0.125 A  
HETATM   21  C   UNL     1      -5.975  17.819  69.807  1.00  0.00    -0.234 A  
HETATM   22  C   UNL     1      -5.984  20.306  71.059  1.00  0.00    -0.297 A  
HETATM   23  C   UNL     1      -5.128  18.059  70.890  1.00  0.00    -0.263 A  
HETATM   24  C   UNL     1      -5.139  19.300  71.522  1.00  0.00    -0.338 A  
ENDBRANCH  18  19
BRANCH  18  25
HETATM   25  C   UNL     1      -7.133  18.847  66.840  1.00  0.00    -0.215 A  
HETATM   26  C   UNL     1      -5.935  19.465  64.364  1.00  0.00    -0.260 A  
HETATM   27  C   UNL     1      -5.603  18.283  65.020  1.00  0.00    -0.138 A  
HETATM   28 CL   UNL     1      -5.265  19.808  62.817  1.00  0.00    -0.268 Cl 
HETATM   29  C   UNL     1      -7.410  20.061  66.184  1.00  0.00    -0.319 A  
HETATM   30  C   UNL     1      -6.185  17.987  66.258  1.00  0.00    -0.245 A  
HETATM   31  C   UNL     1      -6.823  20.364  64.953  1.00  0.00    -0.226 A  
ENDBRANCH  18  25
ENDBRANCH  15  18
ENDBRANCH  11  12
ENDBRANCH   8  11
ENDBRANCH   2   5
TORSDOF 6
ENDMDL
MODEL      151
REMARK 921   NORMALIZED FREE ENERGY PREDICTED BY IDOCK:   -0.28 KCAL/MOL
REMARK 922        TOTAL FREE ENERGY PREDICTED BY IDOCK:   -0.95 KCAL/MOL
REMARK 923 INTER-LIGAND FREE ENERGY PREDICTED BY IDOCK:   -5.06 KCAL/MOL
REMARK 924 INTRA-LIGAND FREE ENERGY PREDICTED BY IDOCK:    4.11 KCAL/MOL
REMARK 927      BINDING AFFINITY PREDICTED BY RF-SCORE:    0.00 PKD
ROOT
HETATM    1  C   UNL     1     -12.593  15.014  68.568  1.00  0.00     0.511 C  
HETATM    2  C   UNL     1     -12.677  14.784  70.094  1.00  0.00    -0.264 C  
HETATM    3  C   UNL     1     -14.083  15.256  70.544  1.00  0.00     0.451 C  
HETATM    4  C   UNL     1     -11.623  15.706  70.751  1.00  0.00    -0.412 C  
ENDROOT
BRANCH   2   5
HETATM    5  C   UNL     1     -12.469  13.317  70.526  1.00  0.00    -0.332 A  
HETATM    6  C   UNL     1     -11.819  12.345  69.739  1.00  0.00    -0.387 A  
HETATM    7  C   UNL     1     -11.771  10.982  70.121  1.00  0.00    -0.442 A  
HETATM    8  C   UNL     1     -12.351  10.558  71.320  1.00  0.00    -0.502 A  
HETATM    9  C   UNL     1     -13.011  12.875  71.743  1.00  0.00    -0.416 A  
HETATM   10  C   UNL     1     -12.955  11.535  72.125  1.00  0.00    -0.205 A  
BRANCH   8  11
HETATM   11  C   UNL     1     -12.549   9.106  71.745  1.00  0.00    -0.370 C  
BRANCH  11  12
HETATM   12  N   UNL     1     -11.387   8.283  72.132  1.00  0.00    -0.325 NA 
HETATM   13  C   UNL     1     -11.326   6.984  71.439  1.00  0.00    -0.265 C  
HETATM   14  C   UNL     1     -10.744   6.928  69.989  1.00  0.00    -0.243 C  
HETATM   15  N   UNL     1      -9.749   7.935  69.538  1.00  0.00    -0.171 NA 
HETATM   16  C   UNL     1      -9.850   9.174  70.315  1.00  0.00    -0.207 C  
HETATM   17  C   UNL     1     -10.129   9.001  71.822  1.00  0.00    -0.303 C  
BRANCH  15  18
HETATM   18  C   UNL     1      -8.381   7.376  69.320  1.00  0.00    -0.132 C  
BRANCH  18  19
HETATM   19  C   UNL     1      -7.542   7.472  70.611  1.00  0.00    -0.085 A  
HETATM   20  C   UNL     1      -6.138   7.498  70.558  1.00  0.00    -0.031 A  
HETATM   21  C   UNL     1      -8.162   7.575  71.871  1.00  0.00    -0.116 A  
HETATM   22  C   UNL     1      -5.382   7.652  71.725  1.00  0.00    -0.035 A  
HETATM   23  C   UNL     1      -7.405   7.723  73.034  1.00  0.00    -0.119 A  
HETATM   24  C   UNL     1      -6.016   7.770  72.961  1.00  0.00    -0.053 A  
ENDBRANCH  18  19
BRANCH  18  25
HETATM   25  C   UNL     1      -8.320   5.925  68.792  1.00  0.00    -0.105 A  
HETATM   26  C   UNL     1      -8.264   3.301  67.761  1.00  0.00    -0.080 A  
HETATM   27  C   UNL     1      -8.219   3.507  69.137  1.00  0.00    -0.075 A  
HETATM   28 CL   UNL     1      -8.308   1.701  67.133  1.00  0.00    -0.075 Cl 
HETATM   29  C   UNL     1      -8.308   5.692  67.403  1.00  0.00    -0.100 A  
HETATM   30  C   UNL     1      -8.228   4.811  69.645  1.00  0.00    -0.072 A  
HETATM   31  C   UNL     1      -8.289   4.392  66.893  1.00  0.00    -0.101 A  
ENDBRANCH  18  25
ENDBRANCH  15  18
ENDBRANCH  11  12
ENDBRANCH   8  11
ENDBRANCH   2   5
TORSDOF 6
ENDMDL
MODEL      152
REMARK 921   NORMALIZED FREE ENERGY PREDICTED BY IDOCK:    0.01 KCAL/MOL
REMARK 922        TOTAL FREE ENERGY PREDICTED BY IDOCK:   -0.56 KCAL/MOL
REMARK 923 INTER-LIGAND FREE ENERGY PREDICTED BY IDOCK:   -0.81 KCAL/MOL
REMARK 924 INTRA-LIGAND FREE ENERGY PREDICTED BY IDOCK:    0.25 KCAL/MOL
REMARK 927      BINDING AFFINITY PREDICTED BY RF-SCORE:    0.00 PKD
ROOT
HETATM    1  C   UNL     1     -11.288  16.219  74.173  1.00  0.00     1.595 C  
HETATM    2  C   UNL     1     -12.314  16.166  73.018  1.00  0.00    -0.625 C  
HETATM    3  C   UNL     1     -11.815  17.148  71.928  1.00  0.00     1.338 C  
HETATM    4  C   UNL     1     -13.653  16.701  73.577  1.00  0.00     0.709 C  
ENDROOT
BRANCH   2   5
HETATM    5  C   UNL     1     -12.497  14.764  72.398  1.00  0.00    -0.410 A  
HETATM    6  C   UNL     1     -13.535  13.875  72.743  1.00  0.00    -0.547 A  
HETATM    7  C   UNL     1     -13.583  12.551  72.244  1.00  0.00    -0.443 A  
HETATM    8  C   UNL     1     -12.605  12.088  71.359  1.00  0.00    -0.330 A  
HETATM    9  C   UNL     1     -11.548  14.290  71.479  1.00  0.00     0.249 A  
HETATM   10  C   UNL     1     -11.601  12.990  70.979  1.00  0.00     1.017 A  
BRANCH   8  11
HETATM   11  C   UNL     1     -12.425  10.638  70.915  1.00  0.00    -0.397 C  
BRANCH  11  12
HETATM   12  N   UNL     1     -11.157   9.934  71.187  1.00  0.00    -0.340 NA 
HETATM   13  C   UNL     1     -11.340   8.540  71.627  1.00  0.00    -0.295 C  
HETATM   14  C   UNL     1     -11.597   7.434  70.551  1.00  0.00    -0.229 C  
HETATM   15  N   UNL     1     -11.086   7.601  69.165  1.00  0.00     0.036 NA 
HETATM   16  C   UNL     1     -10.888   9.015  68.833  1.00  0.00    -0.045 C  
HETATM   17  C   UNL     1     -10.322   9.898  69.964  1.00  0.00    -0.272 C  
BRANCH  15  18
HETATM   18  C   UNL     1      -9.985   6.655  68.810  1.00  0.00    -0.144 C  
BRANCH  18  19
HETATM   19  C   UNL     1      -9.328   7.063  67.475  1.00  0.00    -0.134 A  
HETATM   20  C   UNL     1      -9.708   8.246  66.817  1.00  0.00    -0.307 A  
HETATM   21  C   UNL     1      -8.307   6.282  66.903  1.00  0.00    -0.109 A  
HETATM   22  C   UNL     1      -9.064   8.646  65.641  1.00  0.00    -0.221 A  
HETATM   23  C   UNL     1      -7.670   6.681  65.726  1.00  0.00    -0.092 A  
HETATM   24  C   UNL     1      -8.043   7.867  65.100  1.00  0.00    -0.144 A  
ENDBRANCH  18  19
BRANCH  18  25
HETATM   25  C   UNL     1      -8.881   6.473  69.875  1.00  0.00    -0.143 A  
HETATM   26  C   UNL     1      -6.926   6.099  71.872  1.00  0.00    -0.077 A  
HETATM   27  C   UNL     1      -6.897   7.242  71.078  1.00  0.00    -0.055 A  
HETATM   28 CL   UNL     1      -5.781   5.905  73.141  1.00  0.00    -0.035 Cl 
HETATM   29  C   UNL     1      -8.854   5.300  70.653  1.00  0.00    -0.148 A  
HETATM   30  C   UNL     1      -7.858   7.417  70.075  1.00  0.00    -0.104 A  
HETATM   31  C   UNL     1      -7.891   5.118  71.648  1.00  0.00    -0.109 A  
ENDBRANCH  18  25
ENDBRANCH  15  18
ENDBRANCH  11  12
ENDBRANCH   8  11
ENDBRANCH   2   5
TORSDOF 6
ENDMDL
MODEL      153
REMARK 921   NORMALIZED FREE ENERGY PREDICTED BY IDOCK:    0.85 KCAL/MOL
REMARK 922        TOTAL FREE ENERGY PREDICTED BY IDOCK:    0.56 KCAL/MOL
REMARK 923 INTER-LIGAND FREE ENERGY PREDICTED BY IDOCK:   -2.18 KCAL/MOL
REMARK 924 INTRA-LIGAND FREE ENERGY PREDICTED BY IDOCK:    2.74 KCAL/MOL
REMARK 927      BINDING AFFINITY PREDICTED BY RF-SCORE:    0.00 PKD
ROOT
HETATM    1  C   UNL     1     -11.186  16.541  73.929  1.00  0.00     1.965 C  
HETATM    2  C   UNL     1     -11.945  15.733  72.853  1.00  0.00    -0.599 C  
HETATM    3  C   UNL     1     -13.366  16.341  72.752  1.00  0.00    -0.079 C  
HETATM    4  C   UNL     1     -12.073  14.285  73.380  1.00  0.00     0.232 C  
ENDROOT
BRANCH   2   5
HETATM    5  C   UNL     1     -11.280  15.753  71.460  1.00  0.00    -0.320 A  
HETATM    6  C   UNL     1     -10.914  16.929  70.775  1.00  0.00     0.537 A  
HETATM    7  C   UNL     1     -10.430  16.901  69.444  1.00  0.00    -0.283 A  
HETATM    8  C   UNL     1     -10.272  15.687  68.770  1.00  0.00    -0.215 A  
HETATM    9  C   UNL     1     -11.078  14.544  70.777  1.00  0.00     0.117 A  
HETATM   10  C   UNL     1     -10.591  14.514  69.470  1.00  0.00    -0.126 A  
BRANCH   8  11
HETATM   11  C   UNL     1      -9.962  15.531  67.283  1.00  0.00    -0.238 C  
BRANCH  11  12
HETATM   12  N   UNL     1      -9.190  14.367  66.807  1.00  0.00    -0.259 NA 
HETATM   13  C   UNL     1      -8.837  13.416  67.875  1.00  0.00    -0.194 C  
HETATM   14  C   UNL     1      -9.906  12.376  68.346  1.00  0.00    -0.198 C  
HETATM   15  N   UNL     1     -10.971  11.919  67.415  1.00  0.00    -0.248 NA 
HETATM   16  C   UNL     1     -11.220  12.905  66.359  1.00  0.00    -0.300 C  
HETATM   17  C   UNL     1      -9.972  13.616  65.797  1.00  0.00    -0.261 C  
BRANCH  15  18
HETATM   18  C   UNL     1     -10.836  10.491  66.999  1.00  0.00    -0.225 C  
BRANCH  18  19
HETATM   19  C   UNL     1      -9.485  10.257  66.291  1.00  0.00    -0.223 A  
HETATM   20  C   UNL     1      -9.342  10.498  64.914  1.00  0.00    -0.278 A  
HETATM   21  C   UNL     1      -8.353   9.833  67.013  1.00  0.00    -0.117 A  
HETATM   22  C   UNL     1      -8.100  10.349  64.288  1.00  0.00    -0.102 A  
HETATM   23  C   UNL     1      -7.116   9.679  66.385  1.00  0.00    -0.093 A  
HETATM   24  C   UNL     1      -6.988   9.945  65.025  1.00  0.00    -0.130 A  
ENDBRANCH  18  19
BRANCH  18  25
HETATM   25  C   UNL     1     -11.000   9.441  68.121  1.00  0.00    -0.102 A  
HETATM   26  C   UNL     1     -11.298   7.459  70.104  1.00  0.00    -0.177 A  
HETATM   27  C   UNL     1     -11.937   8.688  70.249  1.00  0.00     0.271 A  
HETATM   28 CL   UNL     1     -11.540   6.222  71.274  1.00  0.00    -0.360 Cl 
HETATM   29  C   UNL     1     -10.320   8.211  68.025  1.00  0.00    -0.267 A  
HETATM   30  C   UNL     1     -11.772   9.676  69.272  1.00  0.00     0.317 A  
HETATM   31  C   UNL     1     -10.474   7.227  69.003  1.00  0.00    -0.219 A  
ENDBRANCH  18  25
ENDBRANCH  15  18
ENDBRANCH  11  12
ENDBRANCH   8  11
ENDBRANCH   2   5
TORSDOF 6
ENDMDL
MODEL      154
REMARK 921   NORMALIZED FREE ENERGY PREDICTED BY IDOCK:    1.42 KCAL/MOL
REMARK 922        TOTAL FREE ENERGY PREDICTED BY IDOCK:    1.34 KCAL/MOL
REMARK 923 INTER-LIGAND FREE ENERGY PREDICTED BY IDOCK:   -0.36 KCAL/MOL
REMARK 924 INTRA-LIGAND FREE ENERGY PREDICTED BY IDOCK:    1.70 KCAL/MOL
REMARK 927      BINDING AFFINITY PREDICTED BY RF-SCORE:    0.00 PKD
ROOT
HETATM    1  C   UNL     1      -5.401   6.242  67.517  1.00  0.00    -0.005 C  
HETATM    2  C   UNL     1      -6.831   6.620  67.964  1.00  0.00    -0.077 C  
HETATM    3  C   UNL     1      -6.689   7.477  69.248  1.00  0.00    -0.041 C  
HETATM    4  C   UNL     1      -7.552   5.304  68.338  1.00  0.00    -0.080 C  
ENDROOT
BRANCH   2   5
HETATM    5  C   UNL     1      -7.637   7.409  66.910  1.00  0.00    -0.102 A  
HETATM    6  C   UNL     1      -7.137   7.779  65.646  1.00  0.00    -0.060 A  
HETATM    7  C   UNL     1      -7.868   8.616  64.767  1.00  0.00    -0.123 A  
HETATM    8  C   UNL     1      -9.136   9.084  65.121  1.00  0.00    -0.203 A  
HETATM    9  C   UNL     1      -8.928   7.859  67.228  1.00  0.00    -0.137 A  
HETATM   10  C   UNL     1      -9.652   8.674  66.359  1.00  0.00    -0.316 A  
BRANCH   8  11
HETATM   11  C   UNL     1      -9.932  10.146  64.367  1.00  0.00    -0.159 C  
BRANCH  11  12
HETATM   12  N   UNL     1      -9.639  11.577  64.578  1.00  0.00    -0.196 NA 
HETATM   13  C   UNL     1     -10.761  12.328  65.167  1.00  0.00    -0.293 C  
HETATM   14  C   UNL     1     -10.988  12.260  66.713  1.00  0.00    -0.276 C  
HETATM   15  N   UNL     1      -9.848  12.000  67.629  1.00  0.00    -0.186 NA 
HETATM   16  C   UNL     1      -8.761  11.293  66.945  1.00  0.00    -0.157 C  
HETATM   17  C   UNL     1      -8.484  11.732  65.493  1.00  0.00     0.492 C  
BRANCH  15  18
HETATM   18  C   UNL     1      -9.475  13.172  68.476  1.00  0.00    -0.103 C  
BRANCH  18  19
HETATM   19  C   UNL     1      -7.941  13.320  68.553  1.00  0.00    -0.097 A  
HETATM   20  C   UNL     1      -7.273  14.297  67.794  1.00  0.00    -0.188 A  
HETATM   21  C   UNL     1      -7.177  12.508  69.412  1.00  0.00     0.249 A  
HETATM   22  C   UNL     1      -5.891  14.473  67.916  1.00  0.00    -0.137 A  
HETATM   23  C   UNL     1      -5.797  12.681  69.526  1.00  0.00    -0.105 A  
HETATM   24  C   UNL     1      -5.155  13.669  68.785  1.00  0.00    -0.074 A  
ENDBRANCH  18  19
BRANCH  18  25
HETATM   25  C   UNL     1     -10.088  14.528  68.062  1.00  0.00    -0.226 A  
HETATM   26  C   UNL     1     -11.278  16.987  67.362  1.00  0.00     0.194 A  
HETATM   27  C   UNL     1     -10.568  16.263  66.408  1.00  0.00    -0.253 A  
HETATM   28 CL   UNL     1     -12.069  18.448  66.918  1.00  0.00     3.033 Cl 
HETATM   29  C   UNL     1     -10.765  15.306  69.022  1.00  0.00    -0.244 A  
HETATM   30  C   UNL     1      -9.962  15.052  66.763  1.00  0.00    -0.254 A  
HETATM   31  C   UNL     1     -11.360  16.519  68.673  1.00  0.00    -0.237 A  
ENDBRANCH  18  25
ENDBRANCH  15  18
ENDBRANCH  11  12
ENDBRANCH   8  11
ENDBRANCH   2   5
TORSDOF 6
ENDMDL
MODEL      155
REMARK 921   NORMALIZED FREE ENERGY PREDICTED BY IDOCK:    1.94 KCAL/MOL
REMARK 922        TOTAL FREE ENERGY PREDICTED BY IDOCK:    2.04 KCAL/MOL
REMARK 923 INTER-LIGAND FREE ENERGY PREDICTED BY IDOCK:   -0.60 KCAL/MOL
REMARK 924 INTRA-LIGAND FREE ENERGY PREDICTED BY IDOCK:    2.64 KCAL/MOL
REMARK 927      BINDING AFFINITY PREDICTED BY RF-SCORE:    0.00 PKD
ROOT
HETATM    1  C   UNL     1     -10.953   5.564  72.471  1.00  0.00    -0.316 C  
HETATM    2  C   UNL     1     -11.411   6.828  71.709  1.00  0.00    -0.307 C  
HETATM    3  C   UNL     1     -11.631   7.937  72.769  1.00  0.00    -0.387 C  
HETATM    4  C   UNL     1     -12.776   6.499  71.062  1.00  0.00     0.085 C  
ENDROOT
BRANCH   2   5
HETATM    5  C   UNL     1     -10.406   7.328  70.649  1.00  0.00    -0.213 A  
HETATM    6  C   UNL     1      -9.007   7.327  70.822  1.00  0.00    -0.152 A  
HETATM    7  C   UNL     1      -8.135   7.918  69.875  1.00  0.00    -0.118 A  
HETATM    8  C   UNL     1      -8.640   8.503  68.711  1.00  0.00    -0.131 A  
HETATM    9  C   UNL     1     -10.888   7.886  69.455  1.00  0.00    -0.114 A  
HETATM   10  C   UNL     1     -10.028   8.458  68.517  1.00  0.00    -0.203 A  
BRANCH   8  11
HETATM   11  C   UNL     1      -7.839   9.346  67.723  1.00  0.00    -0.095 C  
BRANCH  11  12
HETATM   12  N   UNL     1      -8.519  10.363  66.897  1.00  0.00    -0.123 NA 
HETATM   13  C   UNL     1      -9.853  10.735  67.400  1.00  0.00    -0.177 C  
HETATM   14  C   UNL     1      -9.960  11.770  68.567  1.00  0.00    -0.199 C  
HETATM   15  N   UNL     1      -8.899  12.792  68.764  1.00  0.00     0.086 NA 
HETATM   16  C   UNL     1      -7.622  12.357  68.190  1.00  0.00    -0.129 C  
HETATM   17  C   UNL     1      -7.711  11.604  66.848  1.00  0.00    -0.147 C  
BRANCH  15  18
HETATM   18  C   UNL     1      -9.342  14.187  68.467  1.00  0.00    -0.191 C  
BRANCH  18  19
HETATM   19  C   UNL     1      -8.148  15.051  68.010  1.00  0.00    -0.132 A  
HETATM   20  C   UNL     1      -7.067  15.301  68.874  1.00  0.00    -0.130 A  
HETATM   21  C   UNL     1      -8.093  15.578  66.706  1.00  0.00    -0.247 A  
HETATM   22  C   UNL     1      -5.957  16.029  68.434  1.00  0.00    -0.105 A  
HETATM   23  C   UNL     1      -6.986  16.309  66.272  1.00  0.00     0.579 A  
HETATM   24  C   UNL     1      -5.914  16.527  67.133  1.00  0.00    -0.186 A  
ENDBRANCH  18  19
BRANCH  18  25
HETATM   25  C   UNL     1     -10.484  14.329  67.437  1.00  0.00    -0.264 A  
HETATM   26  C   UNL     1     -12.520  14.538  65.497  1.00  0.00    -0.247 A  
HETATM   27  C   UNL     1     -12.258  15.610  66.346  1.00  0.00     1.157 A  
HETATM   28 CL   UNL     1     -13.708  14.691  64.262  1.00  0.00     2.723 Cl 
HETATM   29  C   UNL     1     -10.806  13.241  66.602  1.00  0.00    -0.289 A  
HETATM   30  C   UNL     1     -11.259  15.497  67.320  1.00  0.00    -0.226 A  
HETATM   31  C   UNL     1     -11.808  13.347  65.636  1.00  0.00    -0.403 A  
ENDBRANCH  18  25
ENDBRANCH  15  18
ENDBRANCH  11  12
ENDBRANCH   8  11
ENDBRANCH   2   5
TORSDOF 6
ENDMDL
MODEL      156
REMARK 921   NORMALIZED FREE ENERGY PREDICTED BY IDOCK:    1.99 KCAL/MOL
REMARK 922        TOTAL FREE ENERGY PREDICTED BY IDOCK:    2.11 KCAL/MOL
REMARK 923 INTER-LIGAND FREE ENERGY PREDICTED BY IDOCK:    0.58 KCAL/MOL
REMARK 924 INTRA-LIGAND FREE ENERGY PREDICTED BY IDOCK:    1.53 KCAL/MOL
REMARK 927      BINDING AFFINITY PREDICTED BY RF-SCORE:    0.00 PKD
ROOT
HETATM    1  C   UNL     1     -10.978   8.201  72.417  1.00  0.00    -0.414 C  
HETATM    2  C   UNL     1     -12.274   8.499  71.629  1.00  0.00    -0.371 C  
HETATM    3  C   UNL     1     -13.417   7.728  72.336  1.00  0.00     0.107 C  
HETATM    4  C   UNL     1     -12.091   7.904  70.214  1.00  0.00     0.350 C  
ENDROOT
BRANCH   2   5
HETATM    5  C   UNL     1     -12.638   9.997  71.554  1.00  0.00    -0.525 A  
HETATM    6  C   UNL     1     -11.919  10.950  70.806  1.00  0.00    -0.449 A  
HETATM    7  C   UNL     1     -12.213  12.334  70.874  1.00  0.00    -0.296 A  
HETATM    8  C   UNL     1     -13.259  12.800  71.676  1.00  0.00    -0.410 A  
HETATM    9  C   UNL     1     -13.708  10.483  72.322  1.00  0.00     0.052 A  
HETATM   10  C   UNL     1     -14.006  11.844  72.381  1.00  0.00     0.467 A  
BRANCH   8  11
HETATM   11  C   UNL     1     -13.546  14.264  71.998  1.00  0.00    -0.430 C  
BRANCH  11  12
HETATM   12  N   UNL     1     -12.437  15.177  72.335  1.00  0.00    -0.332 NA 
HETATM   13  C   UNL     1     -11.167  14.485  72.616  1.00  0.00     1.307 C  
HETATM   14  C   UNL     1     -10.276  14.024  71.417  1.00  0.00     4.561 C  
HETATM   15  N   UNL     1     -10.334  14.743  70.117  1.00  0.00     0.084 NA 
HETATM   16  C   UNL     1     -11.611  15.441  69.947  1.00  0.00    -0.323 C  
HETATM   17  C   UNL     1     -12.185  16.110  71.212  1.00  0.00    -0.212 C  
BRANCH  15  18
HETATM   18  C   UNL     1      -9.090  15.504  69.794  1.00  0.00    -0.060 C  
BRANCH  18  19
HETATM   19  C   UNL     1      -7.992  14.554  69.270  1.00  0.00     0.007 A  
HETATM   20  C   UNL     1      -6.782  14.398  69.967  1.00  0.00    -0.077 A  
HETATM   21  C   UNL     1      -8.191  13.793  68.103  1.00  0.00    -0.160 A  
HETATM   22  C   UNL     1      -5.817  13.487  69.525  1.00  0.00    -0.104 A  
HETATM   23  C   UNL     1      -7.224  12.889  67.661  1.00  0.00    -0.147 A  
HETATM   24  C   UNL     1      -6.040  12.730  68.377  1.00  0.00    -0.069 A  
ENDBRANCH  18  19
BRANCH  18  25
HETATM   25  C   UNL     1      -9.253  16.675  68.799  1.00  0.00    -0.253 A  
HETATM   26  C   UNL     1      -9.560  18.752  66.916  1.00  0.00    -0.309 A  
HETATM   27  C   UNL     1      -8.696  18.915  67.995  1.00  0.00    -0.330 A  
HETATM   28 CL   UNL     1      -9.691  19.985  65.725  1.00  0.00    -0.377 Cl 
HETATM   29  C   UNL     1     -10.162  16.557  67.730  1.00  0.00    -0.278 A  
HETATM   30  C   UNL     1      -8.559  17.890  68.938  1.00  0.00    -0.122 A  
HETATM   31  C   UNL     1     -10.308  17.581  66.793  1.00  0.00    -0.314 A  
ENDBRANCH  18  25
ENDBRANCH  15  18
ENDBRANCH  11  12
ENDBRANCH   8  11
ENDBRANCH   2   5
TORSDOF 6
ENDMDL
MODEL      157
REMARK 921   NORMALIZED FREE ENERGY PREDICTED BY IDOCK:    2.16 KCAL/MOL
REMARK 922        TOTAL FREE ENERGY PREDICTED BY IDOCK:    2.34 KCAL/MOL
REMARK 923 INTER-LIGAND FREE ENERGY PREDICTED BY IDOCK:    2.18 KCAL/MOL
REMARK 924 INTRA-LIGAND FREE ENERGY PREDICTED BY IDOCK:    0.15 KCAL/MOL
REMARK 927      BINDING AFFINITY PREDICTED BY RF-SCORE:    0.00 PKD
ROOT
HETATM    1  C   UNL     1      -9.400  16.592  70.782  1.00  0.00     3.483 C  
HETATM    2  C   UNL     1      -8.358  16.549  69.641  1.00  0.00     0.494 C  
HETATM    3  C   UNL     1      -7.337  17.680  69.921  1.00  0.00     0.949 C  
HETATM    4  C   UNL     1      -9.107  16.886  68.331  1.00  0.00    -0.243 C  
ENDROOT
BRANCH   2   5
HETATM    5  C   UNL     1      -7.610  15.205  69.517  1.00  0.00    -0.207 A  
HETATM    6  C   UNL     1      -6.804  14.651  70.531  1.00  0.00     0.222 A  
HETATM    7  C   UNL     1      -6.033  13.481  70.321  1.00  0.00    -0.146 A  
HETATM    8  C   UNL     1      -6.071  12.816  69.092  1.00  0.00    -0.092 A  
HETATM    9  C   UNL     1      -7.662  14.499  68.305  1.00  0.00    -0.126 A  
HETATM   10  C   UNL     1      -6.912  13.341  68.100  1.00  0.00    -0.114 A  
BRANCH   8  11
HETATM   11  C   UNL     1      -5.143  11.680  68.669  1.00  0.00    -0.046 C  
BRANCH  11  12
HETATM   12  N   UNL     1      -5.604  10.281  68.748  1.00  0.00    -0.038 NA 
HETATM   13  C   UNL     1      -6.885  10.121  69.457  1.00  0.00    -0.079 C  
HETATM   14  C   UNL     1      -8.217  10.400  68.685  1.00  0.00    -0.121 C  
HETATM   15  N   UNL     1      -8.281  10.228  67.211  1.00  0.00    -0.120 NA 
HETATM   16  C   UNL     1      -6.955  10.355  66.598  1.00  0.00    -0.111 C  
HETATM   17  C   UNL     1      -5.788   9.727  67.387  1.00  0.00    -0.050 C  
BRANCH  15  18
HETATM   18  C   UNL     1      -9.129   9.079  66.774  1.00  0.00    -0.145 C  
BRANCH  18  19
HETATM   19  C   UNL     1      -8.984   8.843  65.255  1.00  0.00    -0.213 A  
HETATM   20  C   UNL     1      -9.207   9.886  64.340  1.00  0.00    -0.317 A  
HETATM   21  C   UNL     1      -8.587   7.589  64.753  1.00  0.00     0.165 A  
HETATM   22  C   UNL     1      -9.010   9.685  62.969  1.00  0.00    -0.257 A  
HETATM   23  C   UNL     1      -8.397   7.391  63.385  1.00  0.00     0.176 A  
HETATM   24  C   UNL     1      -8.600   8.441  62.494  1.00  0.00    -0.068 A  
ENDBRANCH  18  19
BRANCH  18  25
HETATM   25  C   UNL     1      -8.890   7.743  67.512  1.00  0.00    -0.124 A  
HETATM   26  C   UNL     1      -8.512   5.332  68.924  1.00  0.00    -0.091 A  
HETATM   27  C   UNL     1      -7.450   5.903  68.228  1.00  0.00    -0.085 A  
HETATM   28 CL   UNL     1      -8.264   3.904  69.849  1.00  0.00    -0.061 Cl 
HETATM   29  C   UNL     1      -9.961   7.117  68.178  1.00  0.00    -0.172 A  
HETATM   30  C   UNL     1      -7.645   7.089  67.512  1.00  0.00    -0.109 A  
HETATM   31  C   UNL     1      -9.772   5.928  68.884  1.00  0.00    -0.168 A  
ENDBRANCH  18  25
ENDBRANCH  15  18
ENDBRANCH  11  12
ENDBRANCH   8  11
ENDBRANCH   2   5
TORSDOF 6
ENDMDL
MODEL      158
REMARK 921   NORMALIZED FREE ENERGY PREDICTED BY IDOCK:    2.17 KCAL/MOL
REMARK 922        TOTAL FREE ENERGY PREDICTED BY IDOCK:    2.35 KCAL/MOL
REMARK 923 INTER-LIGAND FREE ENERGY PREDICTED BY IDOCK:   -3.83 KCAL/MOL
REMARK 924 INTRA-LIGAND FREE ENERGY PREDICTED BY IDOCK:    6.18 KCAL/MOL
REMARK 927      BINDING AFFINITY PREDICTED BY RF-SCORE:    0.00 PKD
ROOT
HETATM    1  C   UNL     1      -7.742  20.702  67.921  1.00  0.00    -0.100 C  
HETATM    2  C   UNL     1      -8.185  19.431  68.680  1.00  0.00    -0.399 C  
HETATM    3  C   UNL     1      -9.692  19.230  68.381  1.00  0.00    -0.474 C  
HETATM    4  C   UNL     1      -8.026  19.727  70.190  1.00  0.00     0.904 C  
ENDROOT
BRANCH   2   5
HETATM    5  C   UNL     1      -7.412  18.155  68.285  1.00  0.00    -0.280 A  
HETATM    6  C   UNL     1      -7.945  17.120  67.491  1.00  0.00    -0.190 A  
HETATM    7  C   UNL     1      -7.243  15.911  67.267  1.00  0.00    -0.251 A  
HETATM    8  C   UNL     1      -5.970  15.716  67.810  1.00  0.00    -0.171 A  
HETATM    9  C   UNL     1      -6.117  17.953  68.788  1.00  0.00    -0.197 A  
HETATM   10  C   UNL     1      -5.420  16.767  68.558  1.00  0.00    -0.125 A  
BRANCH   8  11
HETATM   11  C   UNL     1      -5.201  14.397  67.818  1.00  0.00     0.018 C  
BRANCH  11  12
HETATM   12  N   UNL     1      -5.933  13.116  67.835  1.00  0.00    -0.120 NA 
HETATM   13  C   UNL     1      -6.679  12.878  69.083  1.00  0.00    -0.086 C  
HETATM   14  C   UNL     1      -8.078  13.553  69.268  1.00  0.00     0.538 C  
HETATM   15  N   UNL     1      -8.910  13.893  68.085  1.00  0.00    -0.178 NA 
HETATM   16  C   UNL     1      -8.090  14.061  66.882  1.00  0.00     0.125 C  
HETATM   17  C   UNL     1      -6.915  13.074  66.727  1.00  0.00     0.886 C  
BRANCH  15  18
HETATM   18  C   UNL     1     -10.146  13.063  67.959  1.00  0.00    -0.235 C  
BRANCH  18  19
HETATM   19  C   UNL     1      -9.786  11.566  67.849  1.00  0.00    -0.187 A  
HETATM   20  C   UNL     1     -10.481  10.721  66.967  1.00  0.00    -0.297 A  
HETATM   21  C   UNL     1      -8.729  11.019  68.600  1.00  0.00    -0.161 A  
HETATM   22  C   UNL     1     -10.108   9.381  66.821  1.00  0.00    -0.325 A  
HETATM   23  C   UNL     1      -8.363   9.680  68.457  1.00  0.00    -0.117 A  
HETATM   24  C   UNL     1      -9.047   8.863  67.562  1.00  0.00    -0.146 A  
ENDBRANCH  18  19
BRANCH  18  25
HETATM   25  C   UNL     1     -11.198  13.242  69.076  1.00  0.00    -0.320 A  
HETATM   26  C   UNL     1     -13.146  13.483  71.101  1.00  0.00    -0.212 A  
HETATM   27  C   UNL     1     -12.854  14.573  70.285  1.00  0.00    -0.249 A  
HETATM   28 CL   UNL     1     -14.387  13.605  72.285  1.00  0.00    -0.538 Cl 
HETATM   29  C   UNL     1     -11.473  12.172  69.950  1.00  0.00    -0.210 A  
HETATM   30  C   UNL     1     -11.874  14.457  69.293  1.00  0.00    -0.365 A  
HETATM   31  C   UNL     1     -12.443  12.289  70.947  1.00  0.00    -0.371 A  
ENDBRANCH  18  25
ENDBRANCH  15  18
ENDBRANCH  11  12
ENDBRANCH   8  11
ENDBRANCH   2   5
TORSDOF 6
ENDMDL
MODEL      159
REMARK 921   NORMALIZED FREE ENERGY PREDICTED BY IDOCK:    2.77 KCAL/MOL
REMARK 922        TOTAL FREE ENERGY PREDICTED BY IDOCK:    3.17 KCAL/MOL
REMARK 923 INTER-LIGAND FREE ENERGY PREDICTED BY IDOCK:    0.86 KCAL/MOL
REMARK 924 INTRA-LIGAND FREE ENERGY PREDICTED BY IDOCK:    2.30 KCAL/MOL
REMARK 927      BINDING AFFINITY PREDICTED BY RF-SCORE:    0.00 PKD
ROOT
HETATM    1  C   UNL     1     -10.261  18.973  68.678  1.00  0.00    -0.379 C  
HETATM    2  C   UNL     1      -9.249  18.257  67.755  1.00  0.00    -0.276 C  
HETATM    3  C   UNL     1      -8.001  17.938  68.616  1.00  0.00    -0.285 C  
HETATM    4  C   UNL     1      -8.837  19.270  66.662  1.00  0.00    -0.359 C  
ENDROOT
BRANCH   2   5
HETATM    5  C   UNL     1      -9.781  16.953  67.124  1.00  0.00    -0.253 A  
HETATM    6  C   UNL     1      -9.847  16.714  65.737  1.00  0.00    -0.241 A  
HETATM    7  C   UNL     1     -10.466  15.556  65.204  1.00  0.00    -0.431 A  
HETATM    8  C   UNL     1     -11.013  14.589  66.052  1.00  0.00    -0.324 A  
HETATM    9  C   UNL     1     -10.303  15.950  67.956  1.00  0.00    -0.262 A  
HETATM   10  C   UNL     1     -10.903  14.805  67.433  1.00  0.00    -0.300 A  
BRANCH   8  11
HETATM   11  C   UNL     1     -11.880  13.412  65.611  1.00  0.00    -0.370 C  
BRANCH  11  12
HETATM   12  N   UNL     1     -12.042  12.241  66.495  1.00  0.00    -0.599 NA 
HETATM   13  C   UNL     1     -11.619  10.973  65.876  1.00  0.00     0.720 C  
HETATM   14  C   UNL     1     -10.098  10.610  65.856  1.00  0.00    -0.261 C  
HETATM   15  N   UNL     1      -9.185  11.141  66.901  1.00  0.00    -0.166 NA 
HETATM   16  C   UNL     1      -9.710  12.375  67.494  1.00  0.00    -0.191 C  
HETATM   17  C   UNL     1     -11.234  12.415  67.724  1.00  0.00    -0.275 C  
BRANCH  15  18
HETATM   18  C   UNL     1      -8.669  10.099  67.838  1.00  0.00    -0.122 C  
BRANCH  18  19
HETATM   19  C   UNL     1      -7.744   9.111  67.095  1.00  0.00    -0.098 A  
HETATM   20  C   UNL     1      -6.624   9.571  66.383  1.00  0.00    -0.071 A  
HETATM   21  C   UNL     1      -7.979   7.724  67.144  1.00  0.00    -0.117 A  
HETATM   22  C   UNL     1      -5.751   8.668  65.766  1.00  0.00    -0.046 A  
HETATM   23  C   UNL     1      -7.110   6.826  66.523  1.00  0.00    -0.071 A  
HETATM   24  C   UNL     1      -5.991   7.297  65.841  1.00  0.00    -0.037 A  
ENDBRANCH  18  19
BRANCH  18  25
HETATM   25  C   UNL     1      -7.936  10.620  69.094  1.00  0.00    -0.139 A  
HETATM   26  C   UNL     1      -6.551  11.628  71.333  1.00  0.00     2.868 A  
HETATM   27  C   UNL     1      -6.917  10.286  71.290  1.00  0.00     1.045 A  
HETATM   28 CL   UNL     1      -5.638  12.228  72.662  1.00  0.00     0.964 Cl 
HETATM   29  C   UNL     1      -7.603  11.985  69.187  1.00  0.00     0.149 A  
HETATM   30  C   UNL     1      -7.621   9.792  70.186  1.00  0.00    -0.180 A  
HETATM   31  C   UNL     1      -6.910  12.483  70.292  1.00  0.00     0.967 A  
ENDBRANCH  18  25
ENDBRANCH  15  18
ENDBRANCH  11  12
ENDBRANCH   8  11
ENDBRANCH   2   5
TORSDOF 6
ENDMDL
MODEL      160
REMARK 921   NORMALIZED FREE ENERGY PREDICTED BY IDOCK:    3.46 KCAL/MOL
REMARK 922        TOTAL FREE ENERGY PREDICTED BY IDOCK:    4.10 KCAL/MOL
REMARK 923 INTER-LIGAND FREE ENERGY PREDICTED BY IDOCK:   -3.09 KCAL/MOL
REMARK 924 INTRA-LIGAND FREE ENERGY PREDICTED BY IDOCK:    7.19 KCAL/MOL
REMARK 927      BINDING AFFINITY PREDICTED BY RF-SCORE:    0.00 PKD
ROOT
HETATM    1  C   UNL     1      -7.881  20.666  68.240  1.00  0.00     0.213 C  
HETATM    2  C   UNL     1      -8.285  19.388  69.009  1.00  0.00    -0.266 C  
HETATM    3  C   UNL     1      -9.810  19.202  68.804  1.00  0.00    -0.502 C  
HETATM    4  C   UNL     1      -8.028  19.662  70.509  1.00  0.00     1.454 C  
ENDROOT
BRANCH   2   5
HETATM    5  C   UNL     1      -7.549  18.112  68.549  1.00  0.00    -0.298 A  
HETATM    6  C   UNL     1      -8.162  17.051  67.853  1.00  0.00    -0.200 A  
HETATM    7  C   UNL     1      -7.476  15.845  67.570  1.00  0.00    -0.194 A  
HETATM    8  C   UNL     1      -6.142  15.679  67.952  1.00  0.00    -0.163 A  
HETATM    9  C   UNL     1      -6.198  17.938  68.889  1.00  0.00    -0.214 A  
HETATM   10  C   UNL     1      -5.518  16.755  68.601  1.00  0.00    -0.123 A  
BRANCH   8  11
HETATM   11  C   UNL     1      -5.359  14.370  67.894  1.00  0.00    -0.069 C  
BRANCH  11  12
HETATM   12  N   UNL     1      -6.069  13.092  67.694  1.00  0.00    -0.187 NA 
HETATM   13  C   UNL     1      -6.681  12.558  68.924  1.00  0.00    -0.098 C  
HETATM   14  C   UNL     1      -8.061  13.126  69.390  1.00  0.00     0.875 C  
HETATM   15  N   UNL     1      -9.015  13.691  68.400  1.00  0.00    -0.183 NA 
HETATM   16  C   UNL     1      -8.324  14.150  67.192  1.00  0.00    -0.169 C  
HETATM   17  C   UNL     1      -7.159  13.264  66.706  1.00  0.00     1.021 C  
BRANCH  15  18
HETATM   18  C   UNL     1     -10.246  12.867  68.212  1.00  0.00    -0.245 C  
BRANCH  18  19
HETATM   19  C   UNL     1     -10.899  13.170  66.847  1.00  0.00    -0.278 A  
HETATM   20  C   UNL     1     -10.335  12.685  65.655  1.00  0.00    -0.293 A  
HETATM   21  C   UNL     1     -12.096  13.908  66.765  1.00  0.00    -0.476 A  
HETATM   22  C   UNL     1     -10.965  12.906  64.426  1.00  0.00    -0.400 A  
HETATM   23  C   UNL     1     -12.719  14.132  65.536  1.00  0.00    -0.468 A  
HETATM   24  C   UNL     1     -12.159  13.624  64.368  1.00  0.00    -0.470 A  
ENDBRANCH  18  19
BRANCH  18  25
HETATM   25  C   UNL     1     -10.066  11.339  68.351  1.00  0.00    -0.202 A  
HETATM   26  C   UNL     1      -9.649   8.563  68.622  1.00  0.00    -0.149 A  
HETATM   27  C   UNL     1     -10.560   9.040  67.682  1.00  0.00    -0.298 A  
HETATM   28 CL   UNL     1      -9.336   6.876  68.735  1.00  0.00    -0.131 Cl 
HETATM   29  C   UNL     1      -9.193  10.829  69.330  1.00  0.00    -0.068 A  
HETATM   30  C   UNL     1     -10.779  10.417  67.563  1.00  0.00    -0.339 A  
HETATM   31  C   UNL     1      -8.980   9.455  69.459  1.00  0.00    -0.167 A  
ENDBRANCH  18  25
ENDBRANCH  15  18
ENDBRANCH  11  12
ENDBRANCH   8  11
ENDBRANCH   2   5
TORSDOF 6
ENDMDL
MODEL      161
REMARK 921   NORMALIZED FREE ENERGY PREDICTED BY IDOCK:    3.67 KCAL/MOL
REMARK 922        TOTAL FREE ENERGY PREDICTED BY IDOCK:    4.38 KCAL/MOL
REMARK 923 INTER-LIGAND FREE ENERGY PREDICTED BY IDOCK:   -0.20 KCAL/MOL
REMARK 924 INTRA-LIGAND FREE ENERGY PREDICTED BY IDOCK:    4.57 KCAL/MOL
REMARK 927      BINDING AFFINITY PREDICTED BY RF-SCORE:    0.00 PKD
ROOT
HETATM    1  C   UNL     1      -7.054   5.095  67.923  1.00  0.00    -0.066 C  
HETATM    2  C   UNL     1      -8.148   6.138  68.243  1.00  0.00    -0.111 C  
HETATM    3  C   UNL     1      -9.279   5.388  68.993  1.00  0.00    -0.149 C  
HETATM    4  C   UNL     1      -8.710   6.636  66.892  1.00  0.00    -0.116 C  
ENDROOT
BRANCH   2   5
HETATM    5  C   UNL     1      -7.661   7.321  69.106  1.00  0.00    -0.108 A  
HETATM    6  C   UNL     1      -7.697   7.342  70.515  1.00  0.00    -0.093 A  
HETATM    7  C   UNL     1      -7.363   8.502  71.256  1.00  0.00    -0.095 A  
HETATM    8  C   UNL     1      -6.955   9.669  70.605  1.00  0.00    -0.115 A  
HETATM    9  C   UNL     1      -7.212   8.492  68.476  1.00  0.00    -0.081 A  
HETATM   10  C   UNL     1      -6.872   9.631  69.205  1.00  0.00    -0.050 A  
BRANCH   8  11
HETATM   11  C   UNL     1      -6.769  11.033  71.263  1.00  0.00     2.024 C  
BRANCH  11  12
HETATM   12  N   UNL     1      -6.359  12.196  70.452  1.00  0.00    -0.108 NA 
HETATM   13  C   UNL     1      -5.800  11.832  69.139  1.00  0.00    -0.062 C  
HETATM   14  C   UNL     1      -6.778  11.497  67.966  1.00  0.00    -0.059 C  
HETATM   15  N   UNL     1      -8.142  12.087  67.934  1.00  0.00    -0.140 NA 
HETATM   16  C   UNL     1      -8.596  12.463  69.276  1.00  0.00     0.900 C  
HETATM   17  C   UNL     1      -7.523  13.077  70.200  1.00  0.00     1.890 C  
BRANCH  15  18
HETATM   18  C   UNL     1      -8.342  13.084  66.840  1.00  0.00    -0.022 C  
BRANCH  18  19
HETATM   19  C   UNL     1      -9.364  12.561  65.809  1.00  0.00     0.014 A  
HETATM   20  C   UNL     1     -10.416  13.378  65.360  1.00  0.00    -0.310 A  
HETATM   21  C   UNL     1      -9.245  11.269  65.264  1.00  0.00    -0.191 A  
HETATM   22  C   UNL     1     -11.301  12.923  64.376  1.00  0.00    -0.402 A  
HETATM   23  C   UNL     1     -10.133  10.816  64.287  1.00  0.00    -0.427 A  
HETATM   24  C   UNL     1     -11.156  11.647  63.837  1.00  0.00    -0.477 A  
ENDBRANCH  18  19
BRANCH  18  25
HETATM   25  C   UNL     1      -8.764  14.502  67.286  1.00  0.00    -0.225 A  
HETATM   26  C   UNL     1      -9.620  17.061  68.104  1.00  0.00    -0.266 A  
HETATM   27  C   UNL     1      -8.576  16.937  67.191  1.00  0.00    -0.217 A  
HETATM   28 CL   UNL     1     -10.194  18.621  68.546  1.00  0.00    -0.418 Cl 
HETATM   29  C   UNL     1      -9.779  14.654  68.250  1.00  0.00    -0.215 A  
HETATM   30  C   UNL     1      -8.141  15.666  66.800  1.00  0.00    -0.280 A  
HETATM   31  C   UNL     1     -10.209  15.921  68.649  1.00  0.00    -0.223 A  
ENDBRANCH  18  25
ENDBRANCH  15  18
ENDBRANCH  11  12
ENDBRANCH   8  11
ENDBRANCH   2   5
TORSDOF 6
ENDMDL
MODEL      162
REMARK 921   NORMALIZED FREE ENERGY PREDICTED BY IDOCK:    5.24 KCAL/MOL
REMARK 922        TOTAL FREE ENERGY PREDICTED BY IDOCK:    6.50 KCAL/MOL
REMARK 923 INTER-LIGAND FREE ENERGY PREDICTED BY IDOCK:    5.20 KCAL/MOL
REMARK 924 INTRA-LIGAND FREE ENERGY PREDICTED BY IDOCK:    1.30 KCAL/MOL
REMARK 927      BINDING AFFINITY PREDICTED BY RF-SCORE:    0.00 PKD
ROOT
HETATM    1  C   UNL     1     -12.517   7.861  70.902  1.00  0.00    -0.053 C  
HETATM    2  C   UNL     1     -11.202   8.522  70.430  1.00  0.00    -0.224 C  
HETATM    3  C   UNL     1     -10.744   7.757  69.162  1.00  0.00    -0.139 C  
HETATM    4  C   UNL     1     -10.152   8.289  71.541  1.00  0.00    -0.270 C  
ENDROOT
BRANCH   2   5
HETATM    5  C   UNL     1     -11.331  10.024  70.100  1.00  0.00    -0.357 A  
HETATM    6  C   UNL     1     -12.527  10.644  69.685  1.00  0.00    -0.121 A  
HETATM    7  C   UNL     1     -12.564  11.997  69.267  1.00  0.00     0.484 A  
HETATM    8  C   UNL     1     -11.404  12.777  69.280  1.00  0.00    -0.307 A  
HETATM    9  C   UNL     1     -10.188  10.837  70.142  1.00  0.00     0.383 A  
HETATM   10  C   UNL     1     -10.226  12.173  69.741  1.00  0.00     1.194 A  
BRANCH   8  11
HETATM   11  C   UNL     1     -11.264  14.168  68.668  1.00  0.00    -0.266 C  
BRANCH  11  12
HETATM   12  N   UNL     1     -10.222  15.090  69.158  1.00  0.00    -0.235 NA 
HETATM   13  C   UNL     1      -9.132  15.315  68.193  1.00  0.00    -0.174 C  
HETATM   14  C   UNL     1      -9.345  16.346  67.036  1.00  0.00    -0.228 C  
HETATM   15  N   UNL     1     -10.286  17.484  67.208  1.00  0.00    -0.324 NA 
HETATM   16  C   UNL     1     -11.304  17.190  68.220  1.00  0.00     0.197 C  
HETATM   17  C   UNL     1     -10.814  16.414  69.460  1.00  0.00    -0.338 C  
BRANCH  15  18
HETATM   18  C   UNL     1      -9.614  18.816  67.281  1.00  0.00    -0.303 C  
BRANCH  18  19
HETATM   19  C   UNL     1      -9.012  19.044  68.683  1.00  0.00    -0.402 A  
HETATM   20  C   UNL     1      -7.626  19.197  68.856  1.00  0.00    -0.371 A  
HETATM   21  C   UNL     1      -9.839  19.143  69.818  1.00  0.00     0.325 A  
HETATM   22  C   UNL     1      -7.090  19.470  70.120  1.00  0.00     0.197 A  
HETATM   23  C   UNL     1      -9.301  19.409  71.078  1.00  0.00     2.707 A  
HETATM   24  C   UNL     1      -7.928  19.581  71.228  1.00  0.00     3.008 A  
ENDBRANCH  18  19
BRANCH  18  25
HETATM   25  C   UNL     1      -8.523  19.082  66.220  1.00  0.00    -0.289 A  
HETATM   26  C   UNL     1      -6.471  19.524  64.336  1.00  0.00     0.143 A  
HETATM   27  C   UNL     1      -7.447  20.496  64.541  1.00  0.00     0.807 A  
HETATM   28 CL   UNL     1      -5.176  19.823  63.245  1.00  0.00    -0.250 Cl 
HETATM   29  C   UNL     1      -7.556  18.093  65.955  1.00  0.00    -0.166 A  
HETATM   30  C   UNL     1      -8.475  20.266  65.463  1.00  0.00     0.400 A  
HETATM   31  C   UNL     1      -6.535  18.315  65.028  1.00  0.00     0.175 A  
ENDBRANCH  18  25
ENDBRANCH  15  18
ENDBRANCH  11  12
ENDBRANCH   8  11
ENDBRANCH   2   5
TORSDOF 6
ENDMDL
MODEL      163
REMARK 921   NORMALIZED FREE ENERGY PREDICTED BY IDOCK:    5.37 KCAL/MOL
REMARK 922        TOTAL FREE ENERGY PREDICTED BY IDOCK:    6.67 KCAL/MOL
REMARK 923 INTER-LIGAND FREE ENERGY PREDICTED BY IDOCK:    2.59 KCAL/MOL
REMARK 924 INTRA-LIGAND FREE ENERGY PREDICTED BY IDOCK:    4.08 KCAL/MOL
REMARK 927      BINDING AFFINITY PREDICTED BY RF-SCORE:    0.00 PKD
ROOT
HETATM    1  C   UNL     1     -11.435  10.664  64.966  1.00  0.00     1.165 C  
HETATM    2  C   UNL     1     -11.521  11.573  63.719  1.00  0.00    -0.380 C  
HETATM    3  C   UNL     1     -12.857  11.238  63.009  1.00  0.00     1.126 C  
HETATM    4  C   UNL     1     -10.359  11.169  62.782  1.00  0.00     0.030 C  
ENDROOT
BRANCH   2   5
HETATM    5  C   UNL     1     -11.475  13.084  64.033  1.00  0.00    -0.473 A  
HETATM    6  C   UNL     1     -12.515  13.986  63.735  1.00  0.00    -0.080 A  
HETATM    7  C   UNL     1     -12.371  15.383  63.921  1.00  0.00     0.245 A  
HETATM    8  C   UNL     1     -11.186  15.914  64.439  1.00  0.00    -0.242 A  
HETATM    9  C   UNL     1     -10.309  13.635  64.587  1.00  0.00    -0.407 A  
HETATM   10  C   UNL     1     -10.170  15.009  64.780  1.00  0.00    -0.121 A  
BRANCH   8  11
HETATM   11  C   UNL     1     -10.828  17.396  64.493  1.00  0.00     1.557 C  
BRANCH  11  12
HETATM   12  N   UNL     1     -10.337  17.992  65.751  1.00  0.00    -0.618 NA 
HETATM   13  C   UNL     1     -11.332  17.980  66.837  1.00  0.00     0.901 C  
HETATM   14  C   UNL     1     -11.532  16.669  67.666  1.00  0.00     0.262 C  
HETATM   15  N   UNL     1     -10.419  15.697  67.814  1.00  0.00    -0.267 NA 
HETATM   16  C   UNL     1      -9.454  15.814  66.717  1.00  0.00    -0.240 C  
HETATM   17  C   UNL     1      -9.152  17.249  66.239  1.00  0.00    -0.215 C  
BRANCH  15  18
HETATM   18  C   UNL     1      -9.870  15.616  69.201  1.00  0.00    -0.247 C  
BRANCH  18  19
HETATM   19  C   UNL     1      -8.825  16.727  69.437  1.00  0.00     0.168 A  
HETATM   20  C   UNL     1      -7.473  16.410  69.652  1.00  0.00     0.158 A  
HETATM   21  C   UNL     1      -9.194  18.085  69.406  1.00  0.00     0.368 A  
HETATM   22  C   UNL     1      -6.518  17.422  69.800  1.00  0.00    -0.073 A  
HETATM   23  C   UNL     1      -8.240  19.092  69.561  1.00  0.00     0.250 A  
HETATM   24  C   UNL     1      -6.901  18.761  69.749  1.00  0.00     0.039 A  
ENDBRANCH  18  19
BRANCH  18  25
HETATM   25  C   UNL     1     -10.909  15.656  70.343  1.00  0.00    -0.358 A  
HETATM   26  C   UNL     1     -12.872  15.721  72.366  1.00  0.00    -0.457 A  
HETATM   27  C   UNL     1     -11.721  16.494  72.491  1.00  0.00    -0.350 A  
HETATM   28 CL   UNL     1     -14.106  15.818  73.561  1.00  0.00     0.486 Cl 
HETATM   29  C   UNL     1     -12.056  14.843  70.267  1.00  0.00    -0.379 A  
HETATM   30  C   UNL     1     -10.739  16.445  71.495  1.00  0.00     1.172 A  
HETATM   31  C   UNL     1     -13.032  14.881  71.265  1.00  0.00    -0.431 A  
ENDBRANCH  18  25
ENDBRANCH  15  18
ENDBRANCH  11  12
ENDBRANCH   8  11
ENDBRANCH   2   5
TORSDOF 6
ENDMDL
MODEL      164
REMARK 921   NORMALIZED FREE ENERGY PREDICTED BY IDOCK:    5.68 KCAL/MOL
REMARK 922        TOTAL FREE ENERGY PREDICTED BY IDOCK:    7.10 KCAL/MOL
REMARK 923 INTER-LIGAND FREE ENERGY PREDICTED BY IDOCK:    6.49 KCAL/MOL
REMARK 924 INTRA-LIGAND FREE ENERGY PREDICTED BY IDOCK:    0.61 KCAL/MOL
REMARK 927      BINDING AFFINITY PREDICTED BY RF-SCORE:    0.00 PKD
ROOT
HETATM    1  C   UNL     1     -11.634  14.125  69.390  1.00  0.00    -0.353 C  
HETATM    2  C   UNL     1     -11.688  13.627  70.852  1.00  0.00     0.103 C  
HETATM    3  C   UNL     1     -12.840  14.396  71.547  1.00  0.00    -0.411 C  
HETATM    4  C   UNL     1     -10.357  14.041  71.521  1.00  0.00     4.394 C  
ENDROOT
BRANCH   2   5
HETATM    5  C   UNL     1     -11.927  12.109  70.995  1.00  0.00     0.163 A  
HETATM    6  C   UNL     1     -12.544  11.309  70.013  1.00  0.00    -0.169 A  
HETATM    7  C   UNL     1     -12.860   9.948  70.245  1.00  0.00     0.114 A  
HETATM    8  C   UNL     1     -12.540   9.342  71.463  1.00  0.00    -0.430 A  
HETATM    9  C   UNL     1     -11.581  11.470  72.195  1.00  0.00     3.982 A  
HETATM   10  C   UNL     1     -11.882  10.127  72.421  1.00  0.00     1.408 A  
BRANCH   8  11
HETATM   11  C   UNL     1     -13.006   7.960  71.915  1.00  0.00    -0.298 C  
BRANCH  11  12
HETATM   12  N   UNL     1     -12.421   6.748  71.310  1.00  0.00    -0.351 NA 
HETATM   13  C   UNL     1     -11.459   7.033  70.231  1.00  0.00    -0.287 C  
HETATM   14  C   UNL     1      -9.992   7.419  70.608  1.00  0.00    -0.186 C  
HETATM   15  N   UNL     1      -9.393   6.944  71.882  1.00  0.00    -0.142 NA 
HETATM   16  C   UNL     1     -10.425   6.638  72.878  1.00  0.00    -0.229 C  
HETATM   17  C   UNL     1     -11.701   5.961  72.337  1.00  0.00    -0.253 C  
BRANCH  15  18
HETATM   18  C   UNL     1      -8.302   5.940  71.699  1.00  0.00    -0.127 C  
BRANCH  18  19
HETATM   19  C   UNL     1      -8.845   4.508  71.885  1.00  0.00    -0.137 A  
HETATM   20  C   UNL     1      -8.454   3.726  72.986  1.00  0.00    -0.094 A  
HETATM   21  C   UNL     1      -9.773   3.963  70.977  1.00  0.00    -0.252 A  
HETATM   22  C   UNL     1      -8.999   2.453  73.186  1.00  0.00    -0.077 A  
HETATM   23  C   UNL     1     -10.310   2.690  71.176  1.00  0.00     0.674 A  
HETATM   24  C   UNL     1      -9.930   1.939  72.285  1.00  0.00    -0.214 A  
ENDBRANCH  18  19
BRANCH  18  25
HETATM   25  C   UNL     1      -7.534   6.014  70.361  1.00  0.00    -0.090 A  
HETATM   26  C   UNL     1      -6.146   6.058  67.907  1.00  0.00    -0.021 A  
HETATM   27  C   UNL     1      -5.719   6.862  68.960  1.00  0.00    -0.018 A  
HETATM   28 CL   UNL     1      -5.256   6.026  66.435  1.00  0.00    -0.009 Cl 
HETATM   29  C   UNL     1      -7.978   5.253  69.263  1.00  0.00    -0.088 A  
HETATM   30  C   UNL     1      -6.420   6.852  70.171  1.00  0.00    -0.040 A  
HETATM   31  C   UNL     1      -7.286   5.268  68.050  1.00  0.00    -0.072 A  
ENDBRANCH  18  25
ENDBRANCH  15  18
ENDBRANCH  11  12
ENDBRANCH   8  11
ENDBRANCH   2   5
TORSDOF 6
ENDMDL
MODEL      165
REMARK 921   NORMALIZED FREE ENERGY PREDICTED BY IDOCK:    6.64 KCAL/MOL
REMARK 922        TOTAL FREE ENERGY PREDICTED BY IDOCK:    8.39 KCAL/MOL
REMARK 923 INTER-LIGAND FREE ENERGY PREDICTED BY IDOCK:    7.16 KCAL/MOL
REMARK 924 INTRA-LIGAND FREE ENERGY PREDICTED BY IDOCK:    1.23 KCAL/MOL
REMARK 927      BINDING AFFINITY PREDICTED BY RF-SCORE:    0.00 PKD
ROOT
HETATM    1  C   UNL     1      -6.240  18.210  64.430  1.00  0.00     1.311 C  
HETATM    2  C   UNL     1      -7.451  18.325  65.383  1.00  0.00     0.447 C  
HETATM    3  C   UNL     1      -8.680  17.770  64.619  1.00  0.00     5.919 C  
HETATM    4  C   UNL     1      -7.682  19.832  65.643  1.00  0.00    -0.169 C  
ENDROOT
BRANCH   2   5
HETATM    5  C   UNL     1      -7.287  17.556  66.712  1.00  0.00    -0.251 A  
HETATM    6  C   UNL     1      -8.078  17.777  67.857  1.00  0.00    -0.235 A  
HETATM    7  C   UNL     1      -7.801  17.141  69.092  1.00  0.00    -0.063 A  
HETATM    8  C   UNL     1      -6.739  16.241  69.206  1.00  0.00    -0.203 A  
HETATM    9  C   UNL     1      -6.249  16.620  66.839  1.00  0.00    -0.189 A  
HETATM   10  C   UNL     1      -5.984  15.985  68.052  1.00  0.00    -0.134 A  
BRANCH   8  11
HETATM   11  C   UNL     1      -6.211  15.652  70.512  1.00  0.00     0.139 C  
BRANCH  11  12
HETATM   12  N   UNL     1      -5.183  14.594  70.484  1.00  0.00    -0.110 NA 
HETATM   13  C   UNL     1      -5.403  13.532  71.482  1.00  0.00    -0.200 C  
HETATM   14  C   UNL     1      -6.427  12.394  71.164  1.00  0.00     2.004 C  
HETATM   15  N   UNL     1      -6.710  12.011  69.756  1.00  0.00    -0.001 NA 
HETATM   16  C   UNL     1      -6.417  13.110  68.832  1.00  0.00    -0.097 C  
HETATM   17  C   UNL     1      -5.159  13.941  69.155  1.00  0.00    -0.074 C  
BRANCH  15  18
HETATM   18  C   UNL     1      -6.206  10.654  69.388  1.00  0.00    -0.051 C  
BRANCH  18  19
HETATM   19  C   UNL     1      -6.886   9.569  70.249  1.00  0.00    -0.092 A  
HETATM   20  C   UNL     1      -6.198   8.396  70.606  1.00  0.00    -0.036 A  
HETATM   21  C   UNL     1      -8.197   9.744  70.730  1.00  0.00     0.240 A  
HETATM   22  C   UNL     1      -6.795   7.446  71.441  1.00  0.00    -0.050 A  
HETATM   23  C   UNL     1      -8.792   8.791  71.558  1.00  0.00    -0.295 A  
HETATM   24  C   UNL     1      -8.088   7.646  71.921  1.00  0.00    -0.112 A  
ENDBRANCH  18  19
BRANCH  18  25
HETATM   25  C   UNL     1      -6.338  10.265  67.899  1.00  0.00    -0.060 A  
HETATM   26  C   UNL     1      -6.531   9.629  65.158  1.00  0.00    -0.088 A  
HETATM   27  C   UNL     1      -7.592   9.345  66.013  1.00  0.00    -0.099 A  
HETATM   28 CL   UNL     1      -6.676   9.313  63.474  1.00  0.00    -0.091 Cl 
HETATM   29  C   UNL     1      -5.258  10.490  67.024  1.00  0.00    -0.041 A  
HETATM   30  C   UNL     1      -7.487   9.645  67.376  1.00  0.00    -0.091 A  
HETATM   31  C   UNL     1      -5.356  10.183  65.665  1.00  0.00    -0.063 A  
ENDBRANCH  18  25
ENDBRANCH  15  18
ENDBRANCH  11  12
ENDBRANCH   8  11
ENDBRANCH   2   5
TORSDOF 6
ENDMDL
MODEL      166
REMARK 921   NORMALIZED FREE ENERGY PREDICTED BY IDOCK:    7.41 KCAL/MOL
REMARK 922        TOTAL FREE ENERGY PREDICTED BY IDOCK:    9.43 KCAL/MOL
REMARK 923 INTER-LIGAND FREE ENERGY PREDICTED BY IDOCK:    3.92 KCAL/MOL
REMARK 924 INTRA-LIGAND FREE ENERGY PREDICTED BY IDOCK:    5.50 KCAL/MOL
REMARK 927      BINDING AFFINITY PREDICTED BY RF-SCORE:    0.00 PKD
ROOT
HETATM    1  C   UNL     1      -7.902  21.113  68.688  1.00  0.00     1.591 C  
HETATM    2  C   UNL     1      -8.001  19.776  69.457  1.00  0.00     0.204 C  
HETATM    3  C   UNL     1      -9.509  19.482  69.658  1.00  0.00     0.170 C  
HETATM    4  C   UNL     1      -7.362  20.004  70.847  1.00  0.00     0.935 C  
ENDROOT
BRANCH   2   5
HETATM    5  C   UNL     1      -7.339  18.581  68.737  1.00  0.00    -0.312 A  
HETATM    6  C   UNL     1      -8.038  17.448  68.276  1.00  0.00    -0.249 A  
HETATM    7  C   UNL     1      -7.369  16.320  67.741  1.00  0.00    -0.149 A  
HETATM    8  C   UNL     1      -5.976  16.309  67.626  1.00  0.00    -0.170 A  
HETATM    9  C   UNL     1      -5.945  18.563  68.576  1.00  0.00    -0.198 A  
HETATM   10  C   UNL     1      -5.285  17.458  68.039  1.00  0.00    -0.125 A  
BRANCH   8  11
HETATM   11  C   UNL     1      -5.126  15.094  67.265  1.00  0.00     0.465 C  
BRANCH  11  12
HETATM   12  N   UNL     1      -5.683  13.734  67.404  1.00  0.00    -0.335 NA 
HETATM   13  C   UNL     1      -5.709  13.245  68.793  1.00  0.00    -0.074 C  
HETATM   14  C   UNL     1      -6.872  13.699  69.734  1.00  0.00     0.138 C  
HETATM   15  N   UNL     1      -8.195  14.071  69.168  1.00  0.00     0.129 NA 
HETATM   16  C   UNL     1      -8.079  14.497  67.770  1.00  0.00    -0.158 C  
HETATM   17  C   UNL     1      -7.079  13.702  66.906  1.00  0.00     0.870 C  
BRANCH  15  18
HETATM   18  C   UNL     1      -9.286  13.107  69.501  1.00  0.00     1.510 C  
BRANCH  18  19
HETATM   19  C   UNL     1     -10.629  13.846  69.677  1.00  0.00     0.211 A  
HETATM   20  C   UNL     1     -11.332  14.338  68.565  1.00  0.00    -0.309 A  
HETATM   21  C   UNL     1     -11.201  14.011  70.953  1.00  0.00     0.630 A  
HETATM   22  C   UNL     1     -12.580  14.949  68.723  1.00  0.00     0.318 A  
HETATM   23  C   UNL     1     -12.444  14.627  71.109  1.00  0.00    -0.402 A  
HETATM   24  C   UNL     1     -13.138  15.088  69.993  1.00  0.00     0.094 A  
ENDBRANCH  18  19
BRANCH  18  25
HETATM   25  C   UNL     1      -9.485  11.941  68.507  1.00  0.00    -0.151 A  
HETATM   26  C   UNL     1      -9.761   9.821  66.668  1.00  0.00    -0.201 A  
HETATM   27  C   UNL     1     -10.822  10.696  66.883  1.00  0.00    -0.267 A  
HETATM   28 CL   UNL     1      -9.900   8.575  65.491  1.00  0.00     0.268 Cl 
HETATM   29  C   UNL     1      -8.447  11.010  68.312  1.00  0.00    -0.138 A  
HETATM   30  C   UNL     1     -10.689  11.736  67.809  1.00  0.00    -0.244 A  
HETATM   31  C   UNL     1      -8.580   9.965  67.396  1.00  0.00    -0.125 A  
ENDBRANCH  18  25
ENDBRANCH  15  18
ENDBRANCH  11  12
ENDBRANCH   8  11
ENDBRANCH   2   5
TORSDOF 6
ENDMDL
MODEL      167
REMARK 921   NORMALIZED FREE ENERGY PREDICTED BY IDOCK:    8.45 KCAL/MOL
REMARK 922        TOTAL FREE ENERGY PREDICTED BY IDOCK:   10.83 KCAL/MOL
REMARK 923 INTER-LIGAND FREE ENERGY PREDICTED BY IDOCK:   10.76 KCAL/MOL
REMARK 924 INTRA-LIGAND FREE ENERGY PREDICTED BY IDOCK:    0.07 KCAL/MOL
REMARK 927      BINDING AFFINITY PREDICTED BY RF-SCORE:    0.00 PKD
ROOT
HETATM    1  C   UNL     1     -10.259  17.578  74.254  1.00  0.00     7.335 C  
HETATM    2  C   UNL     1     -11.604  17.658  73.497  1.00  0.00     0.977 C  
HETATM    3  C   UNL     1     -11.419  18.692  72.359  1.00  0.00     4.807 C  
HETATM    4  C   UNL     1     -12.651  18.213  74.491  1.00  0.00     2.816 C  
ENDROOT
BRANCH   2   5
HETATM    5  C   UNL     1     -12.074  16.316  72.896  1.00  0.00    -0.625 A  
HETATM    6  C   UNL     1     -12.815  15.348  73.603  1.00  0.00    -0.685 A  
HETATM    7  C   UNL     1     -13.107  14.077  73.049  1.00  0.00    -0.365 A  
HETATM    8  C   UNL     1     -12.687  13.750  71.757  1.00  0.00    -0.373 A  
HETATM    9  C   UNL     1     -11.695  15.980  71.587  1.00  0.00    -0.583 A  
HETATM   10  C   UNL     1     -11.992  14.733  71.037  1.00  0.00    -0.389 A  
BRANCH   8  11
HETATM   11  C   UNL     1     -12.753  12.361  71.128  1.00  0.00    -0.240 C  
BRANCH  11  12
HETATM   12  N   UNL     1     -11.511  11.610  70.862  1.00  0.00     0.605 NA 
HETATM   13  C   UNL     1     -11.743  10.213  70.456  1.00  0.00    -0.322 C  
HETATM   14  C   UNL     1     -12.115   9.909  68.968  1.00  0.00     0.813 C  
HETATM   15  N   UNL     1     -11.672  10.821  67.881  1.00  0.00    -0.527 NA 
HETATM   16  C   UNL     1     -11.419  12.174  68.386  1.00  0.00    -0.304 C  
HETATM   17  C   UNL     1     -10.747  12.258  69.771  1.00  0.00     0.602 C  
BRANCH  15  18
HETATM   18  C   UNL     1     -10.644  10.225  66.976  1.00  0.00    -0.239 C  
BRANCH  18  19
HETATM   19  C   UNL     1     -10.480  11.082  65.702  1.00  0.00    -0.293 A  
HETATM   20  C   UNL     1      -9.947  10.528  64.526  1.00  0.00    -0.413 A  
HETATM   21  C   UNL     1     -10.896  12.427  65.677  1.00  0.00    -0.312 A  
HETATM   22  C   UNL     1      -9.861  11.289  63.355  1.00  0.00    -0.416 A  
HETATM   23  C   UNL     1     -10.803  13.185  64.509  1.00  0.00    -0.400 A  
HETATM   24  C   UNL     1     -10.294  12.614  63.346  1.00  0.00    -0.029 A  
ENDBRANCH  18  19
BRANCH  18  25
HETATM   25  C   UNL     1      -9.251   9.986  67.599  1.00  0.00    -0.148 A  
HETATM   26  C   UNL     1      -6.747   9.493  68.798  1.00  0.00    -0.052 A  
HETATM   27  C   UNL     1      -7.037  10.757  68.292  1.00  0.00    -0.078 A  
HETATM   28 CL   UNL     1      -5.251   9.210  69.598  1.00  0.00    -0.034 Cl 
HETATM   29  C   UNL     1      -8.911   8.702  68.068  1.00  0.00    -0.141 A  
HETATM   30  C   UNL     1      -8.274  10.994  67.681  1.00  0.00    -0.117 A  
HETATM   31  C   UNL     1      -7.675   8.460  68.669  1.00  0.00    -0.107 A  
ENDBRANCH  18  25
ENDBRANCH  15  18
ENDBRANCH  11  12
ENDBRANCH   8  11
ENDBRANCH   2   5
TORSDOF 6
ENDMDL
MODEL      168
REMARK 921   NORMALIZED FREE ENERGY PREDICTED BY IDOCK:    8.56 KCAL/MOL
REMARK 922        TOTAL FREE ENERGY PREDICTED BY IDOCK:   10.99 KCAL/MOL
REMARK 923 INTER-LIGAND FREE ENERGY PREDICTED BY IDOCK:    9.81 KCAL/MOL
REMARK 924 INTRA-LIGAND FREE ENERGY PREDICTED BY IDOCK:    1.18 KCAL/MOL
REMARK 927      BINDING AFFINITY PREDICTED BY RF-SCORE:    0.00 PKD
ROOT
HETATM    1  C   UNL     1     -10.548  17.082  74.281  1.00  0.00     5.898 C  
HETATM    2  C   UNL     1     -11.789  17.247  73.376  1.00  0.00     0.481 C  
HETATM    3  C   UNL     1     -11.446  18.343  72.336  1.00  0.00     3.907 C  
HETATM    4  C   UNL     1     -12.937  17.769  74.270  1.00  0.00     2.779 C  
ENDROOT
BRANCH   2   5
HETATM    5  C   UNL     1     -12.210  15.958  72.638  1.00  0.00    -0.603 A  
HETATM    6  C   UNL     1     -13.389  15.237  72.913  1.00  0.00    -0.616 A  
HETATM    7  C   UNL     1     -13.665  13.989  72.301  1.00  0.00    -0.646 A  
HETATM    8  C   UNL     1     -12.776  13.441  71.372  1.00  0.00    -0.411 A  
HETATM    9  C   UNL     1     -11.351  15.407  71.674  1.00  0.00    -0.455 A  
HETATM   10  C   UNL     1     -11.627  14.184  71.063  1.00  0.00     0.001 A  
BRANCH   8  11
HETATM   11  C   UNL     1     -12.849  12.027  70.803  1.00  0.00    -0.032 C  
BRANCH  11  12
HETATM   12  N   UNL     1     -11.776  11.056  71.094  1.00  0.00    -0.014 NA 
HETATM   13  C   UNL     1     -12.221   9.653  71.050  1.00  0.00    -0.323 C  
HETATM   14  C   UNL     1     -12.339   8.940  69.663  1.00  0.00     1.638 C  
HETATM   15  N   UNL     1     -11.494   9.374  68.521  1.00  0.00     0.344 NA 
HETATM   16  C   UNL     1     -11.057  10.765  68.674  1.00  0.00    -0.259 C  
HETATM   17  C   UNL     1     -10.680  11.196  70.106  1.00  0.00     0.379 C  
BRANCH  15  18
HETATM   18  C   UNL     1     -10.459   8.373  68.122  1.00  0.00    -0.174 C  
BRANCH  18  19
HETATM   19  C   UNL     1      -9.259   9.071  67.448  1.00  0.00    -0.158 A  
HETATM   20  C   UNL     1      -8.393   8.358  66.602  1.00  0.00    -0.110 A  
HETATM   21  C   UNL     1      -9.025  10.447  67.635  1.00  0.00    -0.139 A  
HETATM   22  C   UNL     1      -7.345   9.009  65.942  1.00  0.00    -0.093 A  
HETATM   23  C   UNL     1      -7.975  11.092  66.979  1.00  0.00    -0.137 A  
HETATM   24  C   UNL     1      -7.140  10.375  66.126  1.00  0.00    -0.130 A  
ENDBRANCH  18  19
BRANCH  18  25
HETATM   25  C   UNL     1      -9.935   7.455  69.249  1.00  0.00    -0.173 A  
HETATM   26  C   UNL     1      -9.064   5.748  71.316  1.00  0.00    -0.140 A  
HETATM   27  C   UNL     1      -8.503   7.015  71.180  1.00  0.00    -0.119 A  
HETATM   28 CL   UNL     1      -8.589   4.735  72.623  1.00  0.00    -0.115 Cl 
HETATM   29  C   UNL     1     -10.447   6.150  69.375  1.00  0.00    -0.316 A  
HETATM   30  C   UNL     1      -8.924   7.853  70.141  1.00  0.00    -0.151 A  
HETATM   31  C   UNL     1     -10.021   5.307  70.404  1.00  0.00    -0.303 A  
ENDBRANCH  18  25
ENDBRANCH  15  18
ENDBRANCH  11  12
ENDBRANCH   8  11
ENDBRANCH   2   5
TORSDOF 6
ENDMDL
MODEL      169
REMARK 921   NORMALIZED FREE ENERGY PREDICTED BY IDOCK:    8.86 KCAL/MOL
REMARK 922        TOTAL FREE ENERGY PREDICTED BY IDOCK:   11.39 KCAL/MOL
REMARK 923 INTER-LIGAND FREE ENERGY PREDICTED BY IDOCK:   10.89 KCAL/MOL
REMARK 924 INTRA-LIGAND FREE ENERGY PREDICTED BY IDOCK:    0.51 KCAL/MOL
REMARK 927      BINDING AFFINITY PREDICTED BY RF-SCORE:    0.00 PKD
ROOT
HETATM    1  C   UNL     1     -10.562  14.940  69.307  1.00  0.00    -0.248 C  
HETATM    2  C   UNL     1     -10.528  13.937  70.483  1.00  0.00     1.753 C  
HETATM    3  C   UNL     1     -11.618  14.387  71.489  1.00  0.00     0.089 C  
HETATM    4  C   UNL     1      -9.149  14.084  71.166  1.00  0.00     6.067 C  
ENDROOT
BRANCH   2   5
HETATM    5  C   UNL     1     -10.786  12.472  70.073  1.00  0.00     1.070 A  
HETATM    6  C   UNL     1     -11.518  12.086  68.932  1.00  0.00    -0.356 A  
HETATM    7  C   UNL     1     -11.839  10.731  68.672  1.00  0.00    -0.208 A  
HETATM    8  C   UNL     1     -11.410   9.719  69.535  1.00  0.00    -0.127 A  
HETATM    9  C   UNL     1     -10.333  11.436  70.905  1.00  0.00     3.669 A  
HETATM   10  C   UNL     1     -10.640  10.101  70.643  1.00  0.00    -0.172 A  
BRANCH   8  11
HETATM   11  C   UNL     1     -11.858   8.261  69.484  1.00  0.00     1.056 C  
BRANCH  11  12
HETATM   12  N   UNL     1     -11.403   7.386  68.386  1.00  0.00     0.374 NA 
HETATM   13  C   UNL     1     -10.638   8.094  67.346  1.00  0.00    -0.255 C  
HETATM   14  C   UNL     1      -9.122   8.390  67.591  1.00  0.00    -0.135 C  
HETATM   15  N   UNL     1      -8.319   7.513  68.483  1.00  0.00    -0.125 NA 
HETATM   16  C   UNL     1      -9.168   6.813  69.451  1.00  0.00    -0.143 C  
HETATM   17  C   UNL     1     -10.527   6.316  68.917  1.00  0.00    -0.232 C  
BRANCH  15  18
HETATM   18  C   UNL     1      -7.290   6.704  67.765  1.00  0.00    -0.096 C  
BRANCH  18  19
HETATM   19  C   UNL     1      -7.813   5.277  67.493  1.00  0.00    -0.096 A  
HETATM   20  C   UNL     1      -7.250   4.168  68.147  1.00  0.00    -0.060 A  
HETATM   21  C   UNL     1      -8.890   5.057  66.614  1.00  0.00    -0.111 A  
HETATM   22  C   UNL     1      -7.771   2.884  67.949  1.00  0.00    -0.056 A  
HETATM   23  C   UNL     1      -9.402   3.774  66.414  1.00  0.00    -0.197 A  
HETATM   24  C   UNL     1      -8.849   2.689  67.087  1.00  0.00    -0.158 A  
ENDBRANCH  18  19
BRANCH  18  25
HETATM   25  C   UNL     1      -6.760   7.301  66.442  1.00  0.00    -0.060 A  
HETATM   26  C   UNL     1      -5.823   8.474  64.055  1.00  0.00    -0.066 A  
HETATM   27  C   UNL     1      -6.365   7.192  64.032  1.00  0.00    -0.044 A  
HETATM   28 CL   UNL     1      -5.321   9.222  62.590  1.00  0.00    -0.083 Cl 
HETATM   29  C   UNL     1      -6.158   8.574  66.447  1.00  0.00    -0.056 A  
HETATM   30  C   UNL     1      -6.813   6.605  65.221  1.00  0.00    -0.054 A  
HETATM   31  C   UNL     1      -5.701   9.158  65.265  1.00  0.00    -0.054 A  
ENDBRANCH  18  25
ENDBRANCH  15  18
ENDBRANCH  11  12
ENDBRANCH   8  11
ENDBRANCH   2   5
TORSDOF 6
ENDMDL
MODEL      170
REMARK 921   NORMALIZED FREE ENERGY PREDICTED BY IDOCK:    9.11 KCAL/MOL
REMARK 922        TOTAL FREE ENERGY PREDICTED BY IDOCK:   11.73 KCAL/MOL
REMARK 923 INTER-LIGAND FREE ENERGY PREDICTED BY IDOCK:    9.83 KCAL/MOL
REMARK 924 INTRA-LIGAND FREE ENERGY PREDICTED BY IDOCK:    1.90 KCAL/MOL
REMARK 927      BINDING AFFINITY PREDICTED BY RF-SCORE:    0.00 PKD
ROOT
HETATM    1  C   UNL     1      -8.149   5.562  72.739  1.00  0.00    -0.109 C  
HETATM    2  C   UNL     1      -7.981   4.058  72.423  1.00  0.00    -0.082 C  
HETATM    3  C   UNL     1      -9.396   3.428  72.472  1.00  0.00    -0.157 C  
HETATM    4  C   UNL     1      -7.137   3.445  73.564  1.00  0.00    -0.050 C  
ENDROOT
BRANCH   2   5
HETATM    5  C   UNL     1      -7.341   3.769  71.048  1.00  0.00    -0.037 A  
HETATM    6  C   UNL     1      -8.071   3.590  69.856  1.00  0.00    -0.060 A  
HETATM    7  C   UNL     1      -7.447   3.195  68.647  1.00  0.00    -0.049 A  
HETATM    8  C   UNL     1      -6.065   2.995  68.593  1.00  0.00    -0.025 A  
HETATM    9  C   UNL     1      -5.950   3.599  70.960  1.00  0.00    -0.014 A  
HETATM   10  C   UNL     1      -5.334   3.220  69.768  1.00  0.00    -0.012 A  
BRANCH   8  11
HETATM   11  C   UNL     1      -5.305   2.375  67.423  1.00  0.00    -0.017 C  
BRANCH  11  12
HETATM   12  N   UNL     1      -5.159   3.121  66.158  1.00  0.00    -0.008 NA 
HETATM   13  C   UNL     1      -5.528   2.339  64.966  1.00  0.00    -0.009 C  
HETATM   14  C   UNL     1      -7.039   2.207  64.585  1.00  0.00    -0.052 C  
HETATM   15  N   UNL     1      -8.007   3.265  64.976  1.00  0.00    -0.082 NA 
HETATM   16  C   UNL     1      -7.534   4.022  66.138  1.00  0.00    -0.088 C  
HETATM   17  C   UNL     1      -6.022   4.325  66.173  1.00  0.00    -0.027 C  
BRANCH  15  18
HETATM   18  C   UNL     1      -8.543   4.048  63.822  1.00  0.00    -0.100 C  
BRANCH  18  19
HETATM   19  C   UNL     1     -10.027   3.704  63.574  1.00  0.00    -0.176 A  
HETATM   20  C   UNL     1     -11.047   4.368  64.277  1.00  0.00     0.299 A  
HETATM   21  C   UNL     1     -10.396   2.745  62.612  1.00  0.00    -0.124 A  
HETATM   22  C   UNL     1     -12.392   4.100  64.003  1.00  0.00     4.386 A  
HETATM   23  C   UNL     1     -11.740   2.476  62.345  1.00  0.00     0.340 A  
HETATM   24  C   UNL     1     -12.738   3.160  63.034  1.00  0.00     6.800 A  
ENDBRANCH  18  19
BRANCH  18  25
HETATM   25  C   UNL     1      -8.395   5.582  63.919  1.00  0.00    -0.086 A  
HETATM   26  C   UNL     1      -8.067   8.381  64.025  1.00  0.00    -0.142 A  
HETATM   27  C   UNL     1      -8.249   7.658  65.201  1.00  0.00    -0.130 A  
HETATM   28 CL   UNL     1      -7.790  10.077  64.094  1.00  0.00    -0.142 Cl 
HETATM   29  C   UNL     1      -8.265   6.343  62.741  1.00  0.00    -0.019 A  
HETATM   30  C   UNL     1      -8.430   6.271  65.144  1.00  0.00    -0.087 A  
HETATM   31  C   UNL     1      -8.095   7.728  62.794  1.00  0.00    -0.112 A  
ENDBRANCH  18  25
ENDBRANCH  15  18
ENDBRANCH  11  12
ENDBRANCH   8  11
ENDBRANCH   2   5
TORSDOF 6
ENDMDL
MODEL      171
REMARK 921   NORMALIZED FREE ENERGY PREDICTED BY IDOCK:    9.49 KCAL/MOL
REMARK 922        TOTAL FREE ENERGY PREDICTED BY IDOCK:   12.24 KCAL/MOL
REMARK 923 INTER-LIGAND FREE ENERGY PREDICTED BY IDOCK:    4.90 KCAL/MOL
REMARK 924 INTRA-LIGAND FREE ENERGY PREDICTED BY IDOCK:    7.33 KCAL/MOL
REMARK 927      BINDING AFFINITY PREDICTED BY RF-SCORE:    0.00 PKD
ROOT
HETATM    1  C   UNL     1     -11.157   5.111  63.893  1.00  0.00     2.428 C  
HETATM    2  C   UNL     1      -9.885   4.947  64.755  1.00  0.00     0.213 C  
HETATM    3  C   UNL     1      -9.308   3.543  64.444  1.00  0.00    -0.141 C  
HETATM    4  C   UNL     1     -10.333   4.970  66.234  1.00  0.00    -0.332 C  
ENDROOT
BRANCH   2   5
HETATM    5  C   UNL     1      -8.801   6.013  64.492  1.00  0.00     0.319 A  
HETATM    6  C   UNL     1      -7.456   5.718  64.193  1.00  0.00    -0.072 A  
HETATM    7  C   UNL     1      -6.471   6.732  64.091  1.00  0.00    -0.038 A  
HETATM    8  C   UNL     1      -6.814   8.076  64.258  1.00  0.00    -0.065 A  
HETATM    9  C   UNL     1      -9.129   7.372  64.618  1.00  0.00     1.000 A  
HETATM   10  C   UNL     1      -8.162   8.371  64.506  1.00  0.00    -0.149 A  
BRANCH   8  11
HETATM   11  C   UNL     1      -5.827   9.235  64.379  1.00  0.00    -0.070 C  
BRANCH  11  12
HETATM   12  N   UNL     1      -6.106  10.350  65.304  1.00  0.00    -0.128 NA 
HETATM   13  C   UNL     1      -7.340  11.088  64.984  1.00  0.00     0.490 C  
HETATM   14  C   UNL     1      -8.714  10.504  65.448  1.00  0.00    -0.183 C  
HETATM   15  N   UNL     1      -8.791   9.628  66.646  1.00  0.00    -0.137 NA 
HETATM   16  C   UNL     1      -7.507   8.974  66.917  1.00  0.00    -0.090 C  
HETATM   17  C   UNL     1      -6.252   9.840  66.687  1.00  0.00    -0.064 C  
BRANCH  15  18
HETATM   18  C   UNL     1      -9.498  10.252  67.805  1.00  0.00    -0.148 C  
BRANCH  18  19
HETATM   19  C   UNL     1      -8.540  10.409  69.005  1.00  0.00    -0.158 A  
HETATM   20  C   UNL     1      -7.961  11.654  69.306  1.00  0.00     0.265 A  
HETATM   21  C   UNL     1      -8.254   9.320  69.849  1.00  0.00    -0.148 A  
HETATM   22  C   UNL     1      -7.146  11.807  70.432  1.00  0.00     1.560 A  
HETATM   23  C   UNL     1      -7.435   9.475  70.969  1.00  0.00     0.036 A  
HETATM   24  C   UNL     1      -6.888  10.720  71.266  1.00  0.00     1.821 A  
ENDBRANCH  18  19
BRANCH  18  25
HETATM   25  C   UNL     1     -10.180  11.611  67.529  1.00  0.00    -0.216 A  
HETATM   26  C   UNL     1     -11.343  14.131  67.030  1.00  0.00    -0.332 A  
HETATM   27  C   UNL     1     -12.027  13.190  67.796  1.00  0.00    -0.352 A  
HETATM   28 CL   UNL     1     -12.016  15.695  66.789  1.00  0.00     0.502 Cl 
HETATM   29  C   UNL     1      -9.535  12.559  66.712  1.00  0.00    -0.231 A  
HETATM   30  C   UNL     1     -11.455  11.933  68.027  1.00  0.00    -0.389 A  
HETATM   31  C   UNL     1     -10.107  13.809  66.472  1.00  0.00    -0.286 A  
ENDBRANCH  18  25
ENDBRANCH  15  18
ENDBRANCH  11  12
ENDBRANCH   8  11
ENDBRANCH   2   5
TORSDOF 6
ENDMDL
MODEL      172
REMARK 921   NORMALIZED FREE ENERGY PREDICTED BY IDOCK:   11.94 KCAL/MOL
REMARK 922        TOTAL FREE ENERGY PREDICTED BY IDOCK:   15.55 KCAL/MOL
REMARK 923 INTER-LIGAND FREE ENERGY PREDICTED BY IDOCK:   12.62 KCAL/MOL
REMARK 924 INTRA-LIGAND FREE ENERGY PREDICTED BY IDOCK:    2.93 KCAL/MOL
REMARK 927      BINDING AFFINITY PREDICTED BY RF-SCORE:    0.00 PKD
ROOT
HETATM    1  C   UNL     1      -9.643   2.133  64.038  1.00  0.00    -0.134 C  
HETATM    2  C   UNL     1     -10.447   2.748  65.206  1.00  0.00     1.207 C  
HETATM    3  C   UNL     1     -10.194   1.854  66.446  1.00  0.00     1.947 C  
HETATM    4  C   UNL     1     -11.944   2.642  64.831  1.00  0.00     6.308 C  
ENDROOT
BRANCH   2   5
HETATM    5  C   UNL     1     -10.065   4.205  65.540  1.00  0.00    -0.198 A  
HETATM    6  C   UNL     1     -10.943   5.140  66.123  1.00  0.00    -0.042 A  
HETATM    7  C   UNL     1     -10.587   6.501  66.288  1.00  0.00     0.245 A  
HETATM    8  C   UNL     1      -9.325   6.958  65.897  1.00  0.00     0.058 A  
HETATM    9  C   UNL     1      -8.791   4.678  65.191  1.00  0.00    -0.147 A  
HETATM   10  C   UNL     1      -8.435   6.016  65.363  1.00  0.00    -0.145 A  
BRANCH   8  11
HETATM   11  C   UNL     1      -8.894   8.421  65.828  1.00  0.00    -0.165 C  
BRANCH  11  12
HETATM   12  N   UNL     1      -8.873   9.245  67.052  1.00  0.00    -0.123 NA 
HETATM   13  C   UNL     1      -7.727  10.168  67.123  1.00  0.00    -0.092 C  
HETATM   14  C   UNL     1      -7.798  11.523  66.345  1.00  0.00    -0.020 C  
HETATM   15  N   UNL     1      -9.111  12.160  66.065  1.00  0.00    -0.123 NA 
HETATM   16  C   UNL     1     -10.196  11.175  66.063  1.00  0.00    -0.250 C  
HETATM   17  C   UNL     1     -10.101  10.069  67.134  1.00  0.00    -0.212 C  
BRANCH  15  18
HETATM   18  C   UNL     1      -9.340  13.428  66.821  1.00  0.00    -0.256 C  
BRANCH  18  19
HETATM   19  C   UNL     1     -10.748  13.438  67.452  1.00  0.00    -0.269 A  
HETATM   20  C   UNL     1     -11.882  13.116  66.686  1.00  0.00    -0.449 A  
HETATM   21  C   UNL     1     -10.927  13.731  68.817  1.00  0.00    -0.289 A  
HETATM   22  C   UNL     1     -13.149  13.062  67.277  1.00  0.00     3.042 A  
HETATM   23  C   UNL     1     -12.194  13.682  69.402  1.00  0.00    -0.307 A  
HETATM   24  C   UNL     1     -13.303  13.339  68.634  1.00  0.00     3.952 A  
ENDBRANCH  18  19
BRANCH  18  25
HETATM   25  C   UNL     1      -8.300  13.759  67.916  1.00  0.00    -0.172 A  
HETATM   26  C   UNL     1      -6.424  14.452  69.903  1.00  0.00    -0.152 A  
HETATM   27  C   UNL     1      -6.163  13.389  69.043  1.00  0.00    -0.092 A  
HETATM   28 CL   UNL     1      -5.248  14.926  71.065  1.00  0.00    -0.130 Cl 
HETATM   29  C   UNL     1      -8.564  14.794  68.833  1.00  0.00    -0.160 A  
HETATM   30  C   UNL     1      -7.104  13.035  68.069  1.00  0.00    -0.115 A  
HETATM   31  C   UNL     1      -7.632  15.143  69.812  1.00  0.00    -0.094 A  
ENDBRANCH  18  25
ENDBRANCH  15  18
ENDBRANCH  11  12
ENDBRANCH   8  11
ENDBRANCH   2   5
TORSDOF 6
ENDMDL
MODEL      173
REMARK 921   NORMALIZED FREE ENERGY PREDICTED BY IDOCK:   13.42 KCAL/MOL
REMARK 922        TOTAL FREE ENERGY PREDICTED BY IDOCK:   17.56 KCAL/MOL
REMARK 923 INTER-LIGAND FREE ENERGY PREDICTED BY IDOCK:   11.62 KCAL/MOL
REMARK 924 INTRA-LIGAND FREE ENERGY PREDICTED BY IDOCK:    5.94 KCAL/MOL
REMARK 927      BINDING AFFINITY PREDICTED BY RF-SCORE:    0.00 PKD
ROOT
HETATM    1  C   UNL     1     -10.046  17.187  73.225  1.00  0.00     8.708 C  
HETATM    2  C   UNL     1     -11.057  16.438  72.328  1.00  0.00     0.880 C  
HETATM    3  C   UNL     1     -12.462  16.992  72.674  1.00  0.00     1.351 C  
HETATM    4  C   UNL     1     -11.010  14.948  72.737  1.00  0.00     1.149 C  
ENDROOT
BRANCH   2   5
HETATM    5  C   UNL     1     -10.803  16.601  70.814  1.00  0.00     0.347 A  
HETATM    6  C   UNL     1     -10.900  17.825  70.122  1.00  0.00     1.391 A  
HETATM    7  C   UNL     1     -10.788  17.900  68.712  1.00  0.00     0.256 A  
HETATM    8  C   UNL     1     -10.545  16.749  67.956  1.00  0.00    -0.347 A  
HETATM    9  C   UNL     1     -10.522  15.466  70.039  1.00  0.00    -0.301 A  
HETATM   10  C   UNL     1     -10.400  15.540  68.651  1.00  0.00    -0.219 A  
BRANCH   8  11
HETATM   11  C   UNL     1     -10.609  16.659  66.434  1.00  0.00    -0.200 C  
BRANCH  11  12
HETATM   12  N   UNL     1     -10.062  15.477  65.740  1.00  0.00    -0.331 NA 
HETATM   13  C   UNL     1      -9.139  14.681  66.568  1.00  0.00    -0.237 C  
HETATM   14  C   UNL     1      -9.732  13.665  67.599  1.00  0.00    -0.228 C  
HETATM   15  N   UNL     1     -11.066  13.053  67.368  1.00  0.00    -0.263 NA 
HETATM   16  C   UNL     1     -11.896  13.889  66.496  1.00  0.00    -0.414 C  
HETATM   17  C   UNL     1     -11.162  14.575  65.326  1.00  0.00    -0.352 C  
BRANCH  15  18
HETATM   18  C   UNL     1     -11.015  11.591  67.067  1.00  0.00    -0.294 C  
BRANCH  18  19
HETATM   19  C   UNL     1     -11.081  11.347  65.545  1.00  0.00    -0.203 A  
HETATM   20  C   UNL     1     -12.297  11.455  64.850  1.00  0.00     1.069 A  
HETATM   21  C   UNL     1      -9.918  11.049  64.810  1.00  0.00    -0.350 A  
HETATM   22  C   UNL     1     -12.341  11.298  63.460  1.00  0.00     0.459 A  
HETATM   23  C   UNL     1      -9.965  10.888  63.424  1.00  0.00    -0.414 A  
HETATM   24  C   UNL     1     -11.175  11.020  62.748  1.00  0.00     1.022 A  
ENDBRANCH  18  19
BRANCH  18  25
HETATM   25  C   UNL     1      -9.805  10.823  67.645  1.00  0.00    -0.193 A  
HETATM   26  C   UNL     1      -7.628   9.346  68.659  1.00  0.00    -0.080 A  
HETATM   27  C   UNL     1      -8.182  10.375  69.416  1.00  0.00    -0.158 A  
HETATM   28 CL   UNL     1      -6.351   8.394  69.307  1.00  0.00    -0.038 Cl 
HETATM   29  C   UNL     1      -9.192   9.815  66.876  1.00  0.00    -0.174 A  
HETATM   30  C   UNL     1      -9.250  11.119  68.903  1.00  0.00    -0.106 A  
HETATM   31  C   UNL     1      -8.119   9.078  67.381  1.00  0.00    -0.108 A  
ENDBRANCH  18  25
ENDBRANCH  15  18
ENDBRANCH  11  12
ENDBRANCH   8  11
ENDBRANCH   2   5
TORSDOF 6
ENDMDL
MODEL      174
REMARK 921   NORMALIZED FREE ENERGY PREDICTED BY IDOCK:   14.53 KCAL/MOL
REMARK 922        TOTAL FREE ENERGY PREDICTED BY IDOCK:   19.04 KCAL/MOL
REMARK 923 INTER-LIGAND FREE ENERGY PREDICTED BY IDOCK:   15.71 KCAL/MOL
REMARK 924 INTRA-LIGAND FREE ENERGY PREDICTED BY IDOCK:    3.33 KCAL/MOL
REMARK 927      BINDING AFFINITY PREDICTED BY RF-SCORE:    0.00 PKD
ROOT
HETATM    1  C   UNL     1      -5.754   7.526  70.797  1.00  0.00    -0.030 C  
HETATM    2  C   UNL     1      -7.095   7.857  71.489  1.00  0.00    -0.065 C  
HETATM    3  C   UNL     1      -6.751   8.556  72.828  1.00  0.00    -0.074 C  
HETATM    4  C   UNL     1      -7.785   6.510  71.810  1.00  0.00    -0.095 C  
ENDROOT
BRANCH   2   5
HETATM    5  C   UNL     1      -8.026   8.769  70.662  1.00  0.00    -0.130 A  
HETATM    6  C   UNL     1      -9.140   9.452  71.190  1.00  0.00    -0.060 A  
HETATM    7  C   UNL     1     -10.040  10.169  70.364  1.00  0.00    -0.052 A  
HETATM    8  C   UNL     1      -9.832  10.245  68.984  1.00  0.00    -0.215 A  
HETATM    9  C   UNL     1      -7.816   8.891  69.279  1.00  0.00    -0.096 A  
HETATM   10  C   UNL     1      -8.696   9.606  68.467  1.00  0.00    -0.120 A  
BRANCH   8  11
HETATM   11  C   UNL     1     -10.824  10.803  67.967  1.00  0.00    -0.255 C  
BRANCH  11  12
HETATM   12  N   UNL     1     -11.801  11.831  68.375  1.00  0.00    -0.447 NA 
HETATM   13  C   UNL     1     -11.356  12.649  69.516  1.00  0.00    -0.158 C  
HETATM   14  C   UNL     1     -10.377  13.840  69.257  1.00  0.00     0.128 C  
HETATM   15  N   UNL     1     -10.361  14.527  67.939  1.00  0.00    -0.229 NA 
HETATM   16  C   UNL     1     -10.866  13.655  66.874  1.00  0.00    -0.283 C  
HETATM   17  C   UNL     1     -12.063  12.759  67.250  1.00  0.00    -0.162 C  
BRANCH  15  18
HETATM   18  C   UNL     1     -10.882  15.926  67.981  1.00  0.00    -0.317 C  
BRANCH  18  19
HETATM   19  C   UNL     1     -11.965  16.069  69.072  1.00  0.00    -0.159 A  
HETATM   20  C   UNL     1     -12.449  14.942  69.758  1.00  0.00    -0.222 A  
HETATM   21  C   UNL     1     -12.465  17.334  69.432  1.00  0.00     4.774 A  
HETATM   22  C   UNL     1     -13.382  15.083  70.791  1.00  0.00    -0.362 A  
HETATM   23  C   UNL     1     -13.401  17.471  70.460  1.00  0.00    13.430 A  
HETATM   24  C   UNL     1     -13.853  16.347  71.145  1.00  0.00     3.165 A  
ENDBRANCH  18  19
BRANCH  18  25
HETATM   25  C   UNL     1      -9.826  17.036  68.178  1.00  0.00    -0.273 A  
HETATM   26  C   UNL     1      -7.847  19.003  68.585  1.00  0.00    -0.348 A  
HETATM   27  C   UNL     1      -9.191  19.365  68.557  1.00  0.00    -0.429 A  
HETATM   28 CL   UNL     1      -6.643  20.188  68.910  1.00  0.00    -0.344 Cl 
HETATM   29  C   UNL     1      -8.457  16.704  68.156  1.00  0.00    -0.198 A  
HETATM   30  C   UNL     1     -10.170  18.390  68.337  1.00  0.00    -0.407 A  
HETATM   31  C   UNL     1      -7.478  17.676  68.365  1.00  0.00    -0.253 A  
ENDBRANCH  18  25
ENDBRANCH  15  18
ENDBRANCH  11  12
ENDBRANCH   8  11
ENDBRANCH   2   5
TORSDOF 6
ENDMDL
MODEL      175
REMARK 921   NORMALIZED FREE ENERGY PREDICTED BY IDOCK:   14.77 KCAL/MOL
REMARK 922        TOTAL FREE ENERGY PREDICTED BY IDOCK:   19.37 KCAL/MOL
REMARK 923 INTER-LIGAND FREE ENERGY PREDICTED BY IDOCK:   17.48 KCAL/MOL
REMARK 924 INTRA-LIGAND FREE ENERGY PREDICTED BY IDOCK:    1.89 KCAL/MOL
REMARK 927      BINDING AFFINITY PREDICTED BY RF-SCORE:    0.00 PKD
ROOT
HETATM    1  C   UNL     1     -11.711   6.894  70.986  1.00  0.00    -0.392 C  
HETATM    2  C   UNL     1     -11.991   8.400  70.783  1.00  0.00    -0.122 C  
HETATM    3  C   UNL     1     -12.036   9.043  72.192  1.00  0.00    -0.395 C  
HETATM    4  C   UNL     1     -13.398   8.519  70.152  1.00  0.00     2.001 C  
ENDROOT
BRANCH   2   5
HETATM    5  C   UNL     1     -10.938   9.129  69.922  1.00  0.00    -0.218 A  
HETATM    6  C   UNL     1      -9.579   8.762  69.854  1.00  0.00    -0.182 A  
HETATM    7  C   UNL     1      -8.627   9.543  69.154  1.00  0.00    -0.140 A  
HETATM    8  C   UNL     1      -9.016  10.702  68.477  1.00  0.00    -0.156 A  
HETATM    9  C   UNL     1     -11.313  10.276  69.203  1.00  0.00    -0.244 A  
HETATM   10  C   UNL     1     -10.377  11.039  68.505  1.00  0.00    -0.204 A  
BRANCH   8  11
HETATM   11  C   UNL     1      -8.070  11.733  67.867  1.00  0.00    -0.144 C  
BRANCH  11  12
HETATM   12  N   UNL     1      -8.565  13.081  67.528  1.00  0.00    -0.180 NA 
HETATM   13  C   UNL     1      -9.868  13.401  68.136  1.00  0.00    -0.234 C  
HETATM   14  C   UNL     1      -9.912  13.879  69.624  1.00  0.00     0.735 C  
HETATM   15  N   UNL     1      -8.743  14.573  70.226  1.00  0.00     1.193 NA 
HETATM   16  C   UNL     1      -7.500  14.233  69.527  1.00  0.00     0.091 C  
HETATM   17  C   UNL     1      -7.604  14.108  67.993  1.00  0.00    -0.141 C  
BRANCH  15  18
HETATM   18  C   UNL     1      -8.987  16.015  70.525  1.00  0.00     1.974 C  
BRANCH  18  19
HETATM   19  C   UNL     1      -7.672  16.716  70.929  1.00  0.00     4.447 A  
HETATM   20  C   UNL     1      -6.561  15.970  71.358  1.00  0.00     2.367 A  
HETATM   21  C   UNL     1      -7.542  18.115  70.842  1.00  0.00     4.626 A  
HETATM   22  C   UNL     1      -5.351  16.603  71.660  1.00  0.00     0.339 A  
HETATM   23  C   UNL     1      -6.335  18.744  71.151  1.00  0.00     1.065 A  
HETATM   24  C   UNL     1      -5.237  17.988  71.551  1.00  0.00    -0.017 A  
ENDBRANCH  18  19
BRANCH  18  25
HETATM   25  C   UNL     1      -9.664  16.834  69.403  1.00  0.00    -0.046 A  
HETATM   26  C   UNL     1     -10.823  18.376  67.346  1.00  0.00    -0.268 A  
HETATM   27  C   UNL     1     -11.601  17.958  68.423  1.00  0.00     1.563 A  
HETATM   28 CL   UNL     1     -11.508  19.380  66.130  1.00  0.00     0.525 Cl 
HETATM   29  C   UNL     1      -8.913  17.223  68.277  1.00  0.00    -0.262 A  
HETATM   30  C   UNL     1     -11.028  17.177  69.433  1.00  0.00     0.163 A  
HETATM   31  C   UNL     1      -9.485  17.993  67.262  1.00  0.00    -0.260 A  
ENDBRANCH  18  25
ENDBRANCH  15  18
ENDBRANCH  11  12
ENDBRANCH   8  11
ENDBRANCH   2   5
TORSDOF 6
ENDMDL
MODEL      176
REMARK 921   NORMALIZED FREE ENERGY PREDICTED BY IDOCK:   15.39 KCAL/MOL
REMARK 922        TOTAL FREE ENERGY PREDICTED BY IDOCK:   20.21 KCAL/MOL
REMARK 923 INTER-LIGAND FREE ENERGY PREDICTED BY IDOCK:   17.61 KCAL/MOL
REMARK 924 INTRA-LIGAND FREE ENERGY PREDICTED BY IDOCK:    2.60 KCAL/MOL
REMARK 927      BINDING AFFINITY PREDICTED BY RF-SCORE:    0.00 PKD
ROOT
HETATM    1  C   UNL     1      -9.770  18.348  73.964  1.00  0.00     6.937 C  
HETATM    2  C   UNL     1     -11.209  18.373  73.400  1.00  0.00     2.110 C  
HETATM    3  C   UNL     1     -11.198  19.328  72.180  1.00  0.00     6.045 C  
HETATM    4  C   UNL     1     -12.112  18.992  74.492  1.00  0.00     5.050 C  
ENDROOT
BRANCH   2   5
HETATM    5  C   UNL     1     -11.741  16.992  72.963  1.00  0.00     0.324 A  
HETATM    6  C   UNL     1     -12.236  16.017  73.851  1.00  0.00    -0.635 A  
HETATM    7  C   UNL     1     -12.589  14.716  73.414  1.00  0.00    -0.497 A  
HETATM    8  C   UNL     1     -12.482  14.365  72.066  1.00  0.00    -0.368 A  
HETATM    9  C   UNL     1     -11.678  16.630  71.608  1.00  0.00     0.013 A  
HETATM   10  C   UNL     1     -12.035  15.353  71.176  1.00  0.00    -0.414 A  
BRANCH   8  11
HETATM   11  C   UNL     1     -12.629  12.954  71.503  1.00  0.00    -0.167 C  
BRANCH  11  12
HETATM   12  N   UNL     1     -11.583  12.396  70.624  1.00  0.00     0.282 NA 
HETATM   13  C   UNL     1     -12.005  11.185  69.899  1.00  0.00    -0.363 C  
HETATM   14  C   UNL     1     -12.861  11.340  68.599  1.00  0.00     1.933 C  
HETATM   15  N   UNL     1     -12.754  12.569  67.772  1.00  0.00     0.845 NA 
HETATM   16  C   UNL     1     -12.280  13.709  68.563  1.00  0.00    -0.148 C  
HETATM   17  C   UNL     1     -11.187  13.395  69.604  1.00  0.00    -0.048 C  
BRANCH  15  18
HETATM   18  C   UNL     1     -12.111  12.347  66.442  1.00  0.00    -0.140 C  
BRANCH  18  19
HETATM   19  C   UNL     1     -11.721  13.692  65.795  1.00  0.00    -0.369 A  
HETATM   20  C   UNL     1     -10.456  14.261  66.023  1.00  0.00    -0.306 A  
HETATM   21  C   UNL     1     -12.606  14.364  64.931  1.00  0.00    -0.298 A  
HETATM   22  C   UNL     1     -10.081  15.447  65.383  1.00  0.00    -0.394 A  
HETATM   23  C   UNL     1     -12.232  15.550  64.299  1.00  0.00    -0.078 A  
HETATM   24  C   UNL     1     -10.966  16.087  64.518  1.00  0.00    -0.179 A  
ENDBRANCH  18  19
BRANCH  18  25
HETATM   25  C   UNL     1     -10.881  11.412  66.432  1.00  0.00    -0.323 A  
HETATM   26  C   UNL     1      -8.632   9.715  66.325  1.00  0.00    -0.127 A  
HETATM   27  C   UNL     1      -9.628   9.489  67.271  1.00  0.00    -0.192 A  
HETATM   28 CL   UNL     1      -7.298   8.635  66.206  1.00  0.00    -0.085 Cl 
HETATM   29  C   UNL     1      -9.834  11.652  65.522  1.00  0.00    -0.264 A  
HETATM   30  C   UNL     1     -10.734  10.344  67.335  1.00  0.00    -0.338 A  
HETATM   31  C   UNL     1      -8.724  10.807  65.463  1.00  0.00    -0.196 A  
ENDBRANCH  18  25
ENDBRANCH  15  18
ENDBRANCH  11  12
ENDBRANCH   8  11
ENDBRANCH   2   5
TORSDOF 6
ENDMDL
MODEL      177
REMARK 921   NORMALIZED FREE ENERGY PREDICTED BY IDOCK:   16.02 KCAL/MOL
REMARK 922        TOTAL FREE ENERGY PREDICTED BY IDOCK:   21.07 KCAL/MOL
REMARK 923 INTER-LIGAND FREE ENERGY PREDICTED BY IDOCK:   16.46 KCAL/MOL
REMARK 924 INTRA-LIGAND FREE ENERGY PREDICTED BY IDOCK:    4.61 KCAL/MOL
REMARK 927      BINDING AFFINITY PREDICTED BY RF-SCORE:    0.00 PKD
ROOT
HETATM    1  C   UNL     1      -7.393   3.673  69.635  1.00  0.00    -0.045 C  
HETATM    2  C   UNL     1      -6.612   4.092  70.901  1.00  0.00    -0.031 C  
HETATM    3  C   UNL     1      -5.128   4.248  70.485  1.00  0.00     0.000 C  
HETATM    4  C   UNL     1      -6.713   2.919  71.905  1.00  0.00    -0.022 C  
ENDROOT
BRANCH   2   5
HETATM    5  C   UNL     1      -7.104   5.407  71.541  1.00  0.00    -0.068 A  
HETATM    6  C   UNL     1      -8.416   5.618  72.011  1.00  0.00    -0.126 A  
HETATM    7  C   UNL     1      -8.854   6.885  72.468  1.00  0.00    -0.136 A  
HETATM    8  C   UNL     1      -7.978   7.974  72.493  1.00  0.00    -0.174 A  
HETATM    9  C   UNL     1      -6.231   6.505  71.612  1.00  0.00    -0.042 A  
HETATM   10  C   UNL     1      -6.659   7.750  72.072  1.00  0.00    -0.056 A  
BRANCH   8  11
HETATM   11  C   UNL     1      -8.372   9.423  72.762  1.00  0.00     2.074 C  
BRANCH  11  12
HETATM   12  N   UNL     1      -9.626   9.964  72.202  1.00  0.00     2.178 NA 
HETATM   13  C   UNL     1      -9.417  11.040  71.217  1.00  0.00     6.575 C  
HETATM   14  C   UNL     1      -9.053  10.657  69.745  1.00  0.00     0.305 C  
HETATM   15  N   UNL     1      -9.486   9.353  69.179  1.00  0.00    -0.158 NA 
HETATM   16  C   UNL     1      -9.717   8.361  70.233  1.00  0.00    -0.172 C  
HETATM   17  C   UNL     1     -10.384   8.891  71.519  1.00  0.00    -0.324 C  
BRANCH  15  18
HETATM   18  C   UNL     1     -10.525   9.473  68.113  1.00  0.00    -0.223 C  
BRANCH  18  19
HETATM   19  C   UNL     1     -11.526  10.598  68.455  1.00  0.00    -0.330 A  
HETATM   20  C   UNL     1     -12.139  11.349  67.438  1.00  0.00     0.470 A  
HETATM   21  C   UNL     1     -11.876  10.873  69.790  1.00  0.00    -0.419 A  
HETATM   22  C   UNL     1     -13.095  12.323  67.749  1.00  0.00     4.214 A  
HETATM   23  C   UNL     1     -12.826  11.849  70.097  1.00  0.00     0.267 A  
HETATM   24  C   UNL     1     -13.441  12.568  69.076  1.00  0.00     4.457 A  
ENDBRANCH  18  19
BRANCH  18  25
HETATM   25  C   UNL     1     -10.000   9.691  66.677  1.00  0.00    -0.301 A  
HETATM   26  C   UNL     1      -8.963  10.048  64.079  1.00  0.00    -0.240 A  
HETATM   27  C   UNL     1      -9.778  11.027  64.642  1.00  0.00    -0.315 A  
HETATM   28 CL   UNL     1      -8.267  10.298  62.526  1.00  0.00    -0.159 Cl 
HETATM   29  C   UNL     1      -9.219   8.693  66.064  1.00  0.00    -0.276 A  
HETATM   30  C   UNL     1     -10.307  10.839  65.924  1.00  0.00    -0.302 A  
HETATM   31  C   UNL     1      -8.699   8.873  64.781  1.00  0.00    -0.162 A  
ENDBRANCH  18  25
ENDBRANCH  15  18
ENDBRANCH  11  12
ENDBRANCH   8  11
ENDBRANCH   2   5
TORSDOF 6
ENDMDL
MODEL      178
REMARK 921   NORMALIZED FREE ENERGY PREDICTED BY IDOCK:   17.01 KCAL/MOL
REMARK 922        TOTAL FREE ENERGY PREDICTED BY IDOCK:   22.39 KCAL/MOL
REMARK 923 INTER-LIGAND FREE ENERGY PREDICTED BY IDOCK:   21.39 KCAL/MOL
REMARK 924 INTRA-LIGAND FREE ENERGY PREDICTED BY IDOCK:    1.00 KCAL/MOL
REMARK 927      BINDING AFFINITY PREDICTED BY RF-SCORE:    0.00 PKD
ROOT
HETATM    1  C   UNL     1     -10.569  20.409  65.685  1.00  0.00     0.000 C  
HETATM    2  C   UNL     1     -10.588  19.165  64.768  1.00  0.00     2.347 C  
HETATM    3  C   UNL     1      -9.274  19.190  63.947  1.00  0.00    11.225 C  
HETATM    4  C   UNL     1     -11.773  19.341  63.790  1.00  0.00    10.143 C  
ENDROOT
BRANCH   2   5
HETATM    5  C   UNL     1     -10.693  17.823  65.523  1.00  0.00    -0.009 A  
HETATM    6  C   UNL     1     -11.379  16.692  65.037  1.00  0.00     0.102 A  
HETATM    7  C   UNL     1     -11.558  15.529  65.825  1.00  0.00     0.181 A  
HETATM    8  C   UNL     1     -11.029  15.456  67.117  1.00  0.00    -0.317 A  
HETATM    9  C   UNL     1     -10.137  17.713  66.808  1.00  0.00    -0.334 A  
HETATM   10  C   UNL     1     -10.305  16.564  67.580  1.00  0.00    -0.291 A  
BRANCH   8  11
HETATM   11  C   UNL     1     -11.324  14.358  68.135  1.00  0.00    -0.294 C  
BRANCH  11  12
HETATM   12  N   UNL     1     -10.740  13.014  67.964  1.00  0.00    -0.226 NA 
HETATM   13  C   UNL     1     -10.230  12.761  66.605  1.00  0.00    -0.238 C  
HETATM   14  C   UNL     1      -8.817  13.305  66.213  1.00  0.00     0.237 C  
HETATM   15  N   UNL     1      -7.776  13.511  67.254  1.00  0.00    -0.126 NA 
HETATM   16  C   UNL     1      -8.373  13.704  68.579  1.00  0.00    -0.110 C  
HETATM   17  C   UNL     1      -9.603  12.829  68.896  1.00  0.00     0.236 C  
BRANCH  15  18
HETATM   18  C   UNL     1      -6.628  12.561  67.154  1.00  0.00    -0.055 C  
BRANCH  18  19
HETATM   19  C   UNL     1      -6.118  12.175  68.559  1.00  0.00    -0.051 A  
HETATM   20  C   UNL     1      -5.912  13.155  69.545  1.00  0.00    -0.108 A  
HETATM   21  C   UNL     1      -5.884  10.829  68.899  1.00  0.00    -0.040 A  
HETATM   22  C   UNL     1      -5.513  12.794  70.836  1.00  0.00    -0.173 A  
HETATM   23  C   UNL     1      -5.480  10.473  70.187  1.00  0.00    -0.054 A  
HETATM   24  C   UNL     1      -5.303  11.455  71.158  1.00  0.00    -0.061 A  
ENDBRANCH  18  19
BRANCH  18  25
HETATM   25  C   UNL     1      -6.885  11.271  66.345  1.00  0.00    -0.055 A  
HETATM   26  C   UNL     1      -7.322   8.957  64.793  1.00  0.00    -0.097 A  
HETATM   27  C   UNL     1      -8.223   9.299  65.798  1.00  0.00    -0.117 A  
HETATM   28 CL   UNL     1      -7.626   7.590  63.795  1.00  0.00    -0.112 Cl 
HETATM   29  C   UNL     1      -5.961  10.873  65.360  1.00  0.00     0.014 A  
HETATM   30  C   UNL     1      -7.994  10.438  66.579  1.00  0.00    -0.123 A  
HETATM   31  C   UNL     1      -6.181   9.732  64.586  1.00  0.00    -0.097 A  
ENDBRANCH  18  25
ENDBRANCH  15  18
ENDBRANCH  11  12
ENDBRANCH   8  11
ENDBRANCH   2   5
TORSDOF 6
ENDMDL
MODEL      179
REMARK 921   NORMALIZED FREE ENERGY PREDICTED BY IDOCK:   20.91 KCAL/MOL
REMARK 922        TOTAL FREE ENERGY PREDICTED BY IDOCK:   27.67 KCAL/MOL
REMARK 923 INTER-LIGAND FREE ENERGY PREDICTED BY IDOCK:   27.06 KCAL/MOL
REMARK 924 INTRA-LIGAND FREE ENERGY PREDICTED BY IDOCK:    0.61 KCAL/MOL
REMARK 927      BINDING AFFINITY PREDICTED BY RF-SCORE:    0.00 PKD
ROOT
HETATM    1  C   UNL     1      -9.487  16.569  70.897  1.00  0.00     3.427 C  
HETATM    2  C   UNL     1      -8.265  16.018  70.128  1.00  0.00     1.132 C  
HETATM    3  C   UNL     1      -7.003  16.620  70.797  1.00  0.00     2.445 C  
HETATM    4  C   UNL     1      -8.354  16.564  68.684  1.00  0.00    -0.235 C  
ENDROOT
BRANCH   2   5
HETATM    5  C   UNL     1      -8.158  14.479  70.129  1.00  0.00     0.911 A  
HETATM    6  C   UNL     1      -8.248  13.679  71.286  1.00  0.00     7.461 A  
HETATM    7  C   UNL     1      -8.010  12.283  71.252  1.00  0.00     9.854 A  
HETATM    8  C   UNL     1      -7.704  11.643  70.049  1.00  0.00     1.520 A  
HETATM    9  C   UNL     1      -7.886  13.808  68.926  1.00  0.00     0.005 A  
HETATM   10  C   UNL     1      -7.663  12.432  68.890  1.00  0.00     0.072 A  
BRANCH   8  11
HETATM   11  C   UNL     1      -7.228  10.199  69.909  1.00  0.00    -0.154 C  
BRANCH  11  12
HETATM   12  N   UNL     1      -8.104   9.189  69.284  1.00  0.00    -0.099 NA 
HETATM   13  C   UNL     1      -7.747   8.880  67.889  1.00  0.00    -0.101 C  
HETATM   14  C   UNL     1      -6.578   7.879  67.610  1.00  0.00    -0.060 C  
HETATM   15  N   UNL     1      -6.242   6.823  68.600  1.00  0.00    -0.026 NA 
HETATM   16  C   UNL     1      -6.677   7.194  69.950  1.00  0.00    -0.048 C  
HETATM   17  C   UNL     1      -8.036   7.917  70.042  1.00  0.00    -0.117 C  
BRANCH  15  18
HETATM   18  C   UNL     1      -6.558   5.439  68.137  1.00  0.00    -0.049 C  
BRANCH  18  19
HETATM   19  C   UNL     1      -6.466   4.439  69.309  1.00  0.00    -0.036 A  
HETATM   20  C   UNL     1      -5.257   4.249  70.000  1.00  0.00    -0.004 A  
HETATM   21  C   UNL     1      -7.598   3.721  69.738  1.00  0.00    -0.052 A  
HETATM   22  C   UNL     1      -5.193   3.392  71.103  1.00  0.00    -0.004 A  
HETATM   23  C   UNL     1      -7.530   2.861  70.836  1.00  0.00    -0.036 A  
HETATM   24  C   UNL     1      -6.330   2.703  71.524  1.00  0.00    -0.018 A  
ENDBRANCH  18  19
BRANCH  18  25
HETATM   25  C   UNL     1      -7.921   5.256  67.432  1.00  0.00    -0.100 A  
HETATM   26  C   UNL     1     -10.424   4.852  66.198  1.00  0.00    -0.302 A  
HETATM   27  C   UNL     1      -9.344   5.303  65.445  1.00  0.00    -0.049 A  
HETATM   28 CL   UNL     1     -11.931   4.531  65.433  1.00  0.00     2.034 Cl 
HETATM   29  C   UNL     1      -9.043   4.853  68.182  1.00  0.00    -0.134 A  
HETATM   30  C   UNL     1      -8.107   5.521  66.063  1.00  0.00    -0.108 A  
HETATM   31  C   UNL     1     -10.280   4.645  67.570  1.00  0.00    -0.068 A  
ENDBRANCH  18  25
ENDBRANCH  15  18
ENDBRANCH  11  12
ENDBRANCH   8  11
ENDBRANCH   2   5
TORSDOF 6
ENDMDL
MODEL      180
REMARK 921   NORMALIZED FREE ENERGY PREDICTED BY IDOCK:   23.47 KCAL/MOL
REMARK 922        TOTAL FREE ENERGY PREDICTED BY IDOCK:   31.12 KCAL/MOL
REMARK 923 INTER-LIGAND FREE ENERGY PREDICTED BY IDOCK:   25.63 KCAL/MOL
REMARK 924 INTRA-LIGAND FREE ENERGY PREDICTED BY IDOCK:    5.50 KCAL/MOL
REMARK 927      BINDING AFFINITY PREDICTED BY RF-SCORE:    0.00 PKD
ROOT
HETATM    1  C   UNL     1     -12.275   6.437  63.533  1.00  0.00    13.056 C  
HETATM    2  C   UNL     1     -11.243   6.133  64.642  1.00  0.00     6.234 C  
HETATM    3  C   UNL     1     -10.906   4.623  64.541  1.00  0.00     0.323 C  
HETATM    4  C   UNL     1     -11.944   6.383  65.997  1.00  0.00     3.865 C  
ENDROOT
BRANCH   2   5
HETATM    5  C   UNL     1      -9.940   6.954  64.536  1.00  0.00     3.977 A  
HETATM    6  C   UNL     1      -8.793   6.533  63.834  1.00  0.00     0.775 A  
HETATM    7  C   UNL     1      -7.579   7.261  63.877  1.00  0.00    -0.110 A  
HETATM    8  C   UNL     1      -7.488   8.450  64.606  1.00  0.00    -0.098 A  
HETATM    9  C   UNL     1      -9.837   8.170  65.230  1.00  0.00     1.291 A  
HETATM   10  C   UNL     1      -8.645   8.893  65.264  1.00  0.00    -0.209 A  
BRANCH   8  11
HETATM   11  C   UNL     1      -6.199   9.213  64.902  1.00  0.00    -0.066 C  
BRANCH  11  12
HETATM   12  N   UNL     1      -5.952   9.749  66.254  1.00  0.00    -0.061 NA 
HETATM   13  C   UNL     1      -6.869  10.838  66.634  1.00  0.00    -0.125 C  
HETATM   14  C   UNL     1      -8.297  10.476  67.159  1.00  0.00    -0.127 C  
HETATM   15  N   UNL     1      -8.542   9.174  67.834  1.00  0.00    -0.121 NA 
HETATM   16  C   UNL     1      -7.554   8.168  67.433  1.00  0.00    -0.101 C  
HETATM   17  C   UNL     1      -6.108   8.677  67.265  1.00  0.00    -0.055 C  
BRANCH  15  18
HETATM   18  C   UNL     1      -8.839   9.298  69.292  1.00  0.00    -0.146 C  
BRANCH  18  19
HETATM   19  C   UNL     1     -10.153  10.077  69.514  1.00  0.00    -0.248 A  
HETATM   20  C   UNL     1     -11.221   9.500  70.222  1.00  0.00    -0.307 A  
HETATM   21  C   UNL     1     -10.299  11.397  69.047  1.00  0.00    -0.166 A  
HETATM   22  C   UNL     1     -12.385  10.233  70.479  1.00  0.00    -0.371 A  
HETATM   23  C   UNL     1     -11.464  12.123  69.299  1.00  0.00    -0.363 A  
HETATM   24  C   UNL     1     -12.504  11.544  70.023  1.00  0.00    -0.192 A  
ENDBRANCH  18  19
BRANCH  18  25
HETATM   25  C   UNL     1      -8.904   7.973  70.084  1.00  0.00    -0.143 A  
HETATM   26  C   UNL     1      -9.108   5.542  71.499  1.00  0.00    -0.139 A  
HETATM   27  C   UNL     1      -8.393   6.605  72.044  1.00  0.00    -0.106 A  
HETATM   28 CL   UNL     1      -9.298   4.086  72.394  1.00  0.00    -0.156 Cl 
HETATM   29  C   UNL     1      -9.574   6.865  69.530  1.00  0.00    -0.148 A  
HETATM   30  C   UNL     1      -8.278   7.804  71.332  1.00  0.00    -0.106 A  
HETATM   31  C   UNL     1      -9.682   5.664  70.234  1.00  0.00    -0.232 A  
ENDBRANCH  18  25
ENDBRANCH  15  18
ENDBRANCH  11  12
ENDBRANCH   8  11
ENDBRANCH   2   5
TORSDOF 6
ENDMDL
MODEL      181
REMARK 921   NORMALIZED FREE ENERGY PREDICTED BY IDOCK:   33.90 KCAL/MOL
REMARK 922        TOTAL FREE ENERGY PREDICTED BY IDOCK:   45.21 KCAL/MOL
REMARK 923 INTER-LIGAND FREE ENERGY PREDICTED BY IDOCK:   37.10 KCAL/MOL
REMARK 924 INTRA-LIGAND FREE ENERGY PREDICTED BY IDOCK:    8.11 KCAL/MOL
REMARK 927      BINDING AFFINITY PREDICTED BY RF-SCORE:    0.00 PKD
ROOT
HETATM    1  C   UNL     1      -7.025   5.187  68.070  1.00  0.00    -0.061 C  
HETATM    2  C   UNL     1      -8.139   5.862  68.902  1.00  0.00    -0.103 C  
HETATM    3  C   UNL     1      -9.127   4.744  69.321  1.00  0.00    -0.152 C  
HETATM    4  C   UNL     1      -8.883   6.836  67.959  1.00  0.00    -0.119 C  
ENDROOT
BRANCH   2   5
HETATM    5  C   UNL     1      -7.632   6.594  70.162  1.00  0.00    -0.096 A  
HETATM    6  C   UNL     1      -7.347   5.959  71.387  1.00  0.00    -0.084 A  
HETATM    7  C   UNL     1      -7.012   6.692  72.552  1.00  0.00    -0.068 A  
HETATM    8  C   UNL     1      -6.926   8.086  72.514  1.00  0.00    -0.093 A  
HETATM    9  C   UNL     1      -7.502   7.992  70.138  1.00  0.00    -0.073 A  
HETATM   10  C   UNL     1      -7.162   8.714  71.282  1.00  0.00    -0.093 A  
BRANCH   8  11
HETATM   11  C   UNL     1      -6.780   8.999  73.729  1.00  0.00     0.282 C  
BRANCH  11  12
HETATM   12  N   UNL     1      -6.781  10.465  73.557  1.00  0.00     2.345 NA 
HETATM   13  C   UNL     1      -6.077  10.916  72.344  1.00  0.00     2.005 C  
HETATM   14  C   UNL     1      -6.825  10.866  70.972  1.00  0.00     1.500 C  
HETATM   15  N   UNL     1      -8.307  10.964  70.919  1.00  0.00     2.852 NA 
HETATM   16  C   UNL     1      -8.917  10.542  72.184  1.00  0.00     8.500 C  
HETATM   17  C   UNL     1      -8.171  10.967  73.464  1.00  0.00    13.990 C  
BRANCH  15  18
HETATM   18  C   UNL     1      -8.806  12.233  70.310  1.00  0.00     4.854 C  
BRANCH  18  19
HETATM   19  C   UNL     1      -7.665  13.267  70.197  1.00  0.00     2.166 A  
HETATM   20  C   UNL     1      -6.499  13.140  70.972  1.00  0.00     1.209 A  
HETATM   21  C   UNL     1      -7.748  14.339  69.289  1.00  0.00     0.048 A  
HETATM   22  C   UNL     1      -5.440  14.041  70.819  1.00  0.00    -0.159 A  
HETATM   23  C   UNL     1      -6.692  15.240  69.144  1.00  0.00    -0.135 A  
HETATM   24  C   UNL     1      -5.535  15.087  69.902  1.00  0.00    -0.107 A  
ENDBRANCH  18  19
BRANCH  18  25
HETATM   25  C   UNL     1      -9.494  12.098  68.934  1.00  0.00     0.163 A  
HETATM   26  C   UNL     1     -10.831  11.836  66.465  1.00  0.00    -0.282 A  
HETATM   27  C   UNL     1      -9.526  11.371  66.600  1.00  0.00    -0.206 A  
HETATM   28 CL   UNL     1     -11.674  11.608  64.983  1.00  0.00    -0.162 Cl 
HETATM   29  C   UNL     1     -10.794  12.609  68.754  1.00  0.00    -0.267 A  
HETATM   30  C   UNL     1      -8.858  11.519  67.821  1.00  0.00    -0.153 A  
HETATM   31  C   UNL     1     -11.459  12.473  67.534  1.00  0.00    -0.397 A  
ENDBRANCH  18  25
ENDBRANCH  15  18
ENDBRANCH  11  12
ENDBRANCH   8  11
ENDBRANCH   2   5
TORSDOF 6
ENDMDL
MODEL      182
REMARK 921   NORMALIZED FREE ENERGY PREDICTED BY IDOCK:   35.95 KCAL/MOL
REMARK 922        TOTAL FREE ENERGY PREDICTED BY IDOCK:   47.98 KCAL/MOL
REMARK 923 INTER-LIGAND FREE ENERGY PREDICTED BY IDOCK:   42.64 KCAL/MOL
REMARK 924 INTRA-LIGAND FREE ENERGY PREDICTED BY IDOCK:    5.35 KCAL/MOL
REMARK 927      BINDING AFFINITY PREDICTED BY RF-SCORE:    0.00 PKD
ROOT
HETATM    1  C   UNL     1      -9.304  13.933  69.628  1.00  0.00     1.086 C  
HETATM    2  C   UNL     1      -9.241  13.237  71.006  1.00  0.00     9.320 C  
HETATM    3  C   UNL     1     -10.249  13.970  71.927  1.00  0.00     5.806 C  
HETATM    4  C   UNL     1      -7.818  13.467  71.565  1.00  0.00     8.127 C  
ENDROOT
BRANCH   2   5
HETATM    5  C   UNL     1      -9.582  11.732  70.971  1.00  0.00     8.203 A  
HETATM    6  C   UNL     1     -10.425  11.133  70.014  1.00  0.00     0.430 A  
HETATM    7  C   UNL     1     -10.813   9.774  70.103  1.00  0.00    -0.340 A  
HETATM    8  C   UNL     1     -10.342   8.967  71.142  1.00  0.00    -0.338 A  
HETATM    9  C   UNL     1      -9.091  10.893  71.984  1.00  0.00    10.921 A  
HETATM   10  C   UNL     1      -9.464   9.551  72.066  1.00  0.00     1.302 A  
BRANCH   8  11
HETATM   11  C   UNL     1     -10.840   7.561  71.469  1.00  0.00    -0.227 C  
BRANCH  11  12
HETATM   12  N   UNL     1     -10.603   6.454  70.523  1.00  0.00    -0.226 NA 
HETATM   13  C   UNL     1     -10.110   6.898  69.207  1.00  0.00    -0.170 C  
HETATM   14  C   UNL     1      -8.590   7.222  69.038  1.00  0.00    -0.129 C  
HETATM   15  N   UNL     1      -7.579   6.560  69.904  1.00  0.00    -0.097 NA 
HETATM   16  C   UNL     1      -8.169   6.109  71.168  1.00  0.00    -0.123 C  
HETATM   17  C   UNL     1      -9.592   5.521  71.073  1.00  0.00    -0.170 C  
BRANCH  15  18
HETATM   18  C   UNL     1      -6.701   5.596  69.177  1.00  0.00    -0.060 C  
BRANCH  18  19
HETATM   19  C   UNL     1      -7.167   4.145  69.423  1.00  0.00    -0.050 A  
HETATM   20  C   UNL     1      -8.285   3.875  70.230  1.00  0.00    -0.071 A  
HETATM   21  C   UNL     1      -6.507   3.061  68.815  1.00  0.00    -0.029 A  
HETATM   22  C   UNL     1      -8.744   2.564  70.397  1.00  0.00    -0.127 A  
HETATM   23  C   UNL     1      -6.963   1.753  68.988  1.00  0.00    -0.036 A  
HETATM   24  C   UNL     1      -8.087   1.505  69.772  1.00  0.00    -0.055 A  
ENDBRANCH  18  19
BRANCH  18  25
HETATM   25  C   UNL     1      -6.560   5.824  67.655  1.00  0.00    -0.053 A  
HETATM   26  C   UNL     1      -6.383   6.282  64.879  1.00  0.00    -0.034 A  
HETATM   27  C   UNL     1      -5.872   5.106  65.422  1.00  0.00    -0.018 A  
HETATM   28 CL   UNL     1      -6.346   6.529  63.177  1.00  0.00    -0.037 Cl 
HETATM   29  C   UNL     1      -7.019   7.028  67.088  1.00  0.00    -0.078 A  
HETATM   30  C   UNL     1      -5.945   4.889  66.803  1.00  0.00    -0.027 A  
HETATM   31  C   UNL     1      -6.939   7.252  65.713  1.00  0.00    -0.061 A  
ENDBRANCH  18  25
ENDBRANCH  15  18
ENDBRANCH  11  12
ENDBRANCH   8  11
ENDBRANCH   2   5
TORSDOF 6
ENDMDL
MODEL      183
REMARK 921   NORMALIZED FREE ENERGY PREDICTED BY IDOCK:   36.88 KCAL/MOL
REMARK 922        TOTAL FREE ENERGY PREDICTED BY IDOCK:   49.24 KCAL/MOL
REMARK 923 INTER-LIGAND FREE ENERGY PREDICTED BY IDOCK:   41.99 KCAL/MOL
REMARK 924 INTRA-LIGAND FREE ENERGY PREDICTED BY IDOCK:    7.25 KCAL/MOL
REMARK 927      BINDING AFFINITY PREDICTED BY RF-SCORE:    0.00 PKD
ROOT
HETATM    1  C   UNL     1     -11.705   7.312  62.756  1.00  0.00    16.906 C  
HETATM    2  C   UNL     1     -10.736   6.966  63.910  1.00  0.00    11.088 C  
HETATM    3  C   UNL     1     -10.538   5.429  63.885  1.00  0.00     2.637 C  
HETATM    4  C   UNL     1     -11.450   7.341  65.229  1.00  0.00     8.466 C  
ENDROOT
BRANCH   2   5
HETATM    5  C   UNL     1      -9.361   7.660  63.811  1.00  0.00     2.412 A  
HETATM    6  C   UNL     1      -8.249   7.121  63.133  1.00  0.00     0.071 A  
HETATM    7  C   UNL     1      -6.973   7.733  63.184  1.00  0.00    -0.076 A  
HETATM    8  C   UNL     1      -6.780   8.920  63.895  1.00  0.00    -0.087 A  
HETATM    9  C   UNL     1      -9.153   8.872  64.488  1.00  0.00     0.112 A  
HETATM   10  C   UNL     1      -7.899   9.481  64.529  1.00  0.00    -0.126 A  
BRANCH   8  11
HETATM   11  C   UNL     1      -5.430   9.563  64.199  1.00  0.00    -0.063 C  
BRANCH  11  12
HETATM   12  N   UNL     1      -5.183  10.176  65.519  1.00  0.00    -0.055 NA 
HETATM   13  C   UNL     1      -5.916  11.436  65.731  1.00  0.00     0.366 C  
HETATM   14  C   UNL     1      -7.418  11.374  66.164  1.00  0.00     0.120 C  
HETATM   15  N   UNL     1      -7.934  10.203  66.920  1.00  0.00    -0.113 NA 
HETATM   16  C   UNL     1      -7.115   9.010  66.686  1.00  0.00    -0.081 C  
HETATM   17  C   UNL     1      -5.594   9.247  66.597  1.00  0.00    -0.046 C  
BRANCH  15  18
HETATM   18  C   UNL     1      -8.302  10.514  68.334  1.00  0.00    -0.126 C  
BRANCH  18  19
HETATM   19  C   UNL     1      -7.867   9.369  69.272  1.00  0.00    -0.085 A  
HETATM   20  C   UNL     1      -8.038   8.025  68.897  1.00  0.00    -0.124 A  
HETATM   21  C   UNL     1      -7.253   9.641  70.509  1.00  0.00    -0.143 A  
HETATM   22  C   UNL     1      -7.582   6.991  69.722  1.00  0.00    -0.104 A  
HETATM   23  C   UNL     1      -6.804   8.607  71.332  1.00  0.00    -0.082 A  
HETATM   24  C   UNL     1      -6.961   7.282  70.935  1.00  0.00    -0.056 A  
ENDBRANCH  18  19
BRANCH  18  25
HETATM   25  C   UNL     1      -7.767  11.850  68.894  1.00  0.00    -0.016 A  
HETATM   26  C   UNL     1      -6.852  14.333  69.868  1.00  0.00    -0.019 A  
HETATM   27  C   UNL     1      -5.946  13.300  69.642  1.00  0.00    -0.117 A  
HETATM   28 CL   UNL     1      -6.287  15.872  70.388  1.00  0.00     0.070 Cl 
HETATM   29  C   UNL     1      -8.668  12.893  69.183  1.00  0.00     0.694 A  
HETATM   30  C   UNL     1      -6.405  12.062  69.177  1.00  0.00    -0.093 A  
HETATM   31  C   UNL     1      -8.214  14.125  69.658  1.00  0.00     0.661 A  
ENDBRANCH  18  25
ENDBRANCH  15  18
ENDBRANCH  11  12
ENDBRANCH   8  11
ENDBRANCH   2   5
TORSDOF 6
ENDMDL
