MODEL        1
REMARK 921   NORMALIZED FREE ENERGY PREDICTED BY IDOCK:   -7.25 KCAL/MOL
REMARK 922        TOTAL FREE ENERGY PREDICTED BY IDOCK:   -9.21 KCAL/MOL
REMARK 923 INTER-LIGAND FREE ENERGY PREDICTED BY IDOCK:   -8.94 KCAL/MOL
REMARK 924 INTRA-LIGAND FREE ENERGY PREDICTED BY IDOCK:   -0.27 KCAL/MOL
REMARK 927      BINDING AFFINITY PREDICTED BY RF-SCORE:    0.00 PKD
ROOT
HETATM    1  C   UNL     1     -12.040  13.609  66.724  1.00  0.00    -0.445 C  
HETATM    2  C   UNL     1     -11.985  14.766  67.754  1.00  0.00    -0.247 C  
HETATM    3  C   UNL     1     -10.698  15.522  67.492  1.00  0.00    -0.300 C  
HETATM    4  O   UNL     1      -9.597  14.848  68.100  1.00  0.00    -0.202 OA 
HETATM    5  C   UNL     1      -8.558  14.817  67.130  1.00  0.00    -0.226 C  
HETATM    6  O   UNL     1      -6.958   9.879  70.724  1.00  0.00    -0.272 OA 
HETATM    7  O   UNL     1      -9.040  15.313  65.893  1.00  0.00    -0.291 OA 
HETATM    8  C   UNL     1      -7.140  10.718  68.533  1.00  0.00    -0.070 C  
HETATM    9  C   UNL     1     -10.473  15.462  65.994  1.00  0.00    -0.321 C  
HETATM   10  C   UNL     1      -7.691  10.211  69.802  1.00  0.00    -0.168 C  
HETATM   11  C   UNL     1     -11.328  14.226  65.457  1.00  0.00    -0.325 C  
HETATM   12  C   UNL     1      -9.163  10.174  69.926  1.00  0.00    -0.119 C  
HETATM   13  C   UNL     1     -12.512  14.627  64.525  1.00  0.00    -0.312 C  
HETATM   14  C   UNL     1      -9.645   9.319  66.670  1.00  0.00    -0.263 C  
HETATM   15  C   UNL     1      -9.968  10.401  68.873  1.00  0.00    -0.208 C  
HETATM   16  C   UNL     1     -10.453  13.280  64.613  1.00  0.00    -0.420 C  
HETATM   17  C   UNL     1      -9.448  10.628  67.454  1.00  0.00    -0.172 C  
HETATM   18  C   UNL     1      -9.910  12.024  65.285  1.00  0.00    -0.213 C  
HETATM   19  C   UNL     1     -10.144  11.883  66.806  1.00  0.00    -0.225 C  
HETATM   20  C   UNL     1      -7.938  10.900  67.473  1.00  0.00    -0.115 C  
HETATM   21  O   UNL     1     -10.477  10.919  64.573  1.00  0.00    -0.346 OA 
HETATM   22  C   UNL     1     -11.614  12.161  67.148  1.00  0.00    -0.405 C  
HETATM   23  H   UNL     1     -10.139  10.136  64.991  1.00  0.00     0.000 HD 
HETATM   24  C   UNL     1     -11.947  11.853  68.618  1.00  0.00    -0.291 C  
HETATM   25  C   UNL     1     -11.462  10.474  69.047  1.00  0.00    -0.304 C  
ENDROOT
BRANCH   5  26
HETATM   26  C   UNL     1      -7.310  15.491  67.670  1.00  0.00    -0.197 C  
BRANCH  26  27
HETATM   27  C   UNL     1      -7.211  15.392  69.190  1.00  0.00    -0.171 C  
HETATM   28  C   UNL     1      -6.457  14.137  69.599  1.00  0.00    -0.134 C  
ENDBRANCH  26  27
ENDBRANCH   5  26
BRANCH   9  29
HETATM   29  C   UNL     1     -10.773  16.811  65.316  1.00  0.00    -0.169 C  
HETATM   30  O   UNL     1     -11.267  16.894  64.180  1.00  0.00    -1.176 OA 
BRANCH  29  31
HETATM   31  C   UNL     1     -10.381  18.076  66.083  1.00  0.00    -0.366 C  
HETATM   32  O   UNL     1      -8.980  18.313  66.100  1.00  0.00    -0.469 OA 
HETATM   33  H   UNL     1      -8.737  19.099  66.576  1.00  0.00     0.000 HD 
ENDBRANCH  29  31
ENDBRANCH   9  29
TORSDOF 4
ENDMDL
MODEL        2
REMARK 921   NORMALIZED FREE ENERGY PREDICTED BY IDOCK:   -7.05 KCAL/MOL
REMARK 922        TOTAL FREE ENERGY PREDICTED BY IDOCK:   -8.97 KCAL/MOL
REMARK 923 INTER-LIGAND FREE ENERGY PREDICTED BY IDOCK:   -8.15 KCAL/MOL
REMARK 924 INTRA-LIGAND FREE ENERGY PREDICTED BY IDOCK:   -0.81 KCAL/MOL
REMARK 927      BINDING AFFINITY PREDICTED BY RF-SCORE:    0.00 PKD
ROOT
HETATM    1  C   UNL     1      -8.389  10.807  67.048  1.00  0.00    -0.129 C  
HETATM    2  C   UNL     1      -7.619  10.270  68.281  1.00  0.00    -0.091 C  
HETATM    3  C   UNL     1      -8.624   9.517  69.129  1.00  0.00    -0.140 C  
HETATM    4  O   UNL     1      -9.382  10.428  69.924  1.00  0.00    -0.094 OA 
HETATM    5  C   UNL     1     -10.742  10.031  69.807  1.00  0.00    -0.271 C  
HETATM    6  O   UNL     1     -11.425  16.120  71.326  1.00  0.00    -0.418 OA 
HETATM    7  O   UNL     1     -10.860   8.998  68.842  1.00  0.00    -0.163 OA 
HETATM    8  C   UNL     1     -12.196  14.346  69.984  1.00  0.00    -0.408 C  
HETATM    9  C   UNL     1      -9.595   8.874  68.157  1.00  0.00    -0.145 C  
HETATM   10  C   UNL     1     -11.216  15.374  70.379  1.00  0.00    -0.323 C  
HETATM   11  C   UNL     1      -9.474   9.689  66.790  1.00  0.00    -0.209 C  
HETATM   12  C   UNL     1      -9.953  15.423  69.614  1.00  0.00    -0.270 C  
HETATM   13  C   UNL     1      -8.882   8.863  65.607  1.00  0.00    -0.230 C  
HETATM   14  C   UNL     1     -11.443  14.637  66.659  1.00  0.00    -0.363 C  
HETATM   15  C   UNL     1      -9.777  14.706  68.489  1.00  0.00    -0.225 C  
HETATM   16  C   UNL     1     -10.860  10.153  66.305  1.00  0.00     0.050 C  
HETATM   17  C   UNL     1     -10.878  13.855  67.857  1.00  0.00    -0.256 C  
HETATM   18  C   UNL     1     -11.270  11.592  66.595  1.00  0.00    -0.299 C  
HETATM   19  C   UNL     1     -10.330  12.423  67.497  1.00  0.00    -0.223 C  
HETATM   20  C   UNL     1     -12.042  13.666  68.841  1.00  0.00    -0.335 C  
HETATM   21  O   UNL     1     -11.443  12.218  65.320  1.00  0.00    -0.331 OA 
HETATM   22  C   UNL     1      -8.878  12.296  67.016  1.00  0.00    -0.205 C  
HETATM   23  H   UNL     1     -11.699  13.115  65.500  1.00  0.00     0.000 HD 
HETATM   24  C   UNL     1      -7.925  13.248  67.759  1.00  0.00    -0.166 C  
HETATM   25  C   UNL     1      -8.443  14.681  67.792  1.00  0.00    -0.178 C  
ENDROOT
BRANCH   5  26
HETATM   26  C   UNL     1     -11.323   9.724  71.175  1.00  0.00    -0.459 C  
BRANCH  26  27
HETATM   27  C   UNL     1     -12.823   9.999  71.241  1.00  0.00    -0.500 C  
HETATM   28  C   UNL     1     -13.094  11.355  71.871  1.00  0.00    -0.505 C  
ENDBRANCH  26  27
ENDBRANCH   5  26
BRANCH   9  29
HETATM   29  C   UNL     1      -9.364   7.357  68.039  1.00  0.00    -0.135 C  
HETATM   30  O   UNL     1      -8.235   6.860  67.895  1.00  0.00    -0.113 OA 
BRANCH  29  31
HETATM   31  C   UNL     1     -10.606   6.462  68.045  1.00  0.00    -0.254 C  
HETATM   32  O   UNL     1     -11.486   6.712  66.958  1.00  0.00    -0.763 OA 
HETATM   33  H   UNL     1     -12.257   6.156  66.963  1.00  0.00     0.000 HD 
ENDBRANCH  29  31
ENDBRANCH   9  29
TORSDOF 4
ENDMDL
MODEL        3
REMARK 921   NORMALIZED FREE ENERGY PREDICTED BY IDOCK:   -6.87 KCAL/MOL
REMARK 922        TOTAL FREE ENERGY PREDICTED BY IDOCK:   -8.74 KCAL/MOL
REMARK 923 INTER-LIGAND FREE ENERGY PREDICTED BY IDOCK:   -8.15 KCAL/MOL
REMARK 924 INTRA-LIGAND FREE ENERGY PREDICTED BY IDOCK:   -0.60 KCAL/MOL
REMARK 927      BINDING AFFINITY PREDICTED BY RF-SCORE:    0.00 PKD
ROOT
HETATM    1  C   UNL     1     -10.825  17.215  67.769  1.00  0.00    -0.270 C  
HETATM    2  C   UNL     1      -9.850  17.672  68.883  1.00  0.00    -0.293 C  
HETATM    3  C   UNL     1      -8.447  17.455  68.350  1.00  0.00    -0.263 C  
HETATM    4  O   UNL     1      -8.069  16.087  68.495  1.00  0.00    -0.153 OA 
HETATM    5  C   UNL     1      -7.481  15.698  67.261  1.00  0.00    -0.222 C  
HETATM    6  O   UNL     1      -9.364  10.096  69.478  1.00  0.00    -0.210 OA 
HETATM    7  O   UNL     1      -7.626  16.740  66.310  1.00  0.00    -0.291 OA 
HETATM    8  C   UNL     1      -9.177  11.480  67.584  1.00  0.00    -0.171 C  
HETATM    9  C   UNL     1      -8.517  17.734  66.861  1.00  0.00    -0.243 C  
HETATM   10  C   UNL     1      -9.762  11.085  68.877  1.00  0.00    -0.172 C  
HETATM   11  C   UNL     1     -10.050  17.583  66.444  1.00  0.00    -0.346 C  
HETATM   12  C   UNL     1     -10.808  11.966  69.437  1.00  0.00    -0.089 C  
HETATM   13  C   UNL     1     -10.718  18.914  65.981  1.00  0.00    -0.373 C  
HETATM   14  C   UNL     1     -12.150  12.687  66.395  1.00  0.00    -0.330 C  
HETATM   15  C   UNL     1     -11.347  12.970  68.720  1.00  0.00    -0.332 C  
HETATM   16  C   UNL     1     -10.201  16.620  65.251  1.00  0.00    -0.016 C  
HETATM   17  C   UNL     1     -10.998  13.235  67.256  1.00  0.00    -0.284 C  
HETATM   18  C   UNL     1     -10.615  15.183  65.545  1.00  0.00    -0.366 C  
HETATM   19  C   UNL     1     -10.690  14.762  67.031  1.00  0.00    -0.300 C  
HETATM   20  C   UNL     1      -9.742  12.449  66.852  1.00  0.00    -0.217 C  
HETATM   21  O   UNL     1     -11.875  14.993  64.894  1.00  0.00    -0.362 OA 
HETATM   22  C   UNL     1     -11.487  15.796  67.839  1.00  0.00    -0.221 C  
HETATM   23  H   UNL     1     -12.133  14.098  65.077  1.00  0.00     0.000 HD 
HETATM   24  C   UNL     1     -11.754  15.338  69.283  1.00  0.00    -0.359 C  
HETATM   25  C   UNL     1     -12.325  13.926  69.348  1.00  0.00    -0.240 C  
ENDROOT
BRANCH   5  26
HETATM   26  C   UNL     1      -6.064  15.201  67.484  1.00  0.00    -0.048 C  
BRANCH  26  27
HETATM   27  C   UNL     1      -6.025  13.911  68.297  1.00  0.00    -0.117 C  
HETATM   28  C   UNL     1      -5.712  12.721  67.404  1.00  0.00    -0.077 C  
ENDBRANCH  26  27
ENDBRANCH   5  26
BRANCH   9  29
HETATM   29  C   UNL     1      -7.869  19.082  66.501  1.00  0.00    -0.268 C  
HETATM   30  O   UNL     1      -7.434  19.334  65.366  1.00  0.00    -0.430 OA 
BRANCH  29  31
HETATM   31  C   UNL     1      -7.721  20.106  67.629  1.00  0.00    -0.296 C  
HETATM   32  O   UNL     1      -7.184  21.348  67.196  1.00  0.00    -0.789 OA 
HETATM   33  H   UNL     1      -7.092  21.983  67.897  1.00  0.00     0.000 HD 
ENDBRANCH  29  31
ENDBRANCH   9  29
TORSDOF 4
ENDMDL
MODEL        4
REMARK 921   NORMALIZED FREE ENERGY PREDICTED BY IDOCK:   -6.84 KCAL/MOL
REMARK 922        TOTAL FREE ENERGY PREDICTED BY IDOCK:   -8.71 KCAL/MOL
REMARK 923 INTER-LIGAND FREE ENERGY PREDICTED BY IDOCK:   -8.10 KCAL/MOL
REMARK 924 INTRA-LIGAND FREE ENERGY PREDICTED BY IDOCK:   -0.61 KCAL/MOL
REMARK 927      BINDING AFFINITY PREDICTED BY RF-SCORE:    0.00 PKD
ROOT
HETATM    1  C   UNL     1      -9.738  12.965  68.013  1.00  0.00    -0.224 C  
HETATM    2  C   UNL     1      -8.966  13.699  66.888  1.00  0.00    -0.229 C  
HETATM    3  C   UNL     1      -9.668  13.363  65.587  1.00  0.00    -0.082 C  
HETATM    4  O   UNL     1      -9.254  12.080  65.119  1.00  0.00     0.016 OA 
HETATM    5  C   UNL     1     -10.435  11.393  64.729  1.00  0.00    -0.308 C  
HETATM    6  O   UNL     1      -6.586   6.531  65.913  1.00  0.00    -0.042 OA 
HETATM    7  O   UNL     1     -11.576  12.155  65.088  1.00  0.00    -0.339 OA 
HETATM    8  C   UNL     1      -8.769   7.386  66.123  1.00  0.00    -0.172 C  
HETATM    9  C   UNL     1     -11.142  13.250  65.923  1.00  0.00    -0.285 C  
HETATM   10  C   UNL     1      -7.335   7.331  66.458  1.00  0.00    -0.080 C  
HETATM   11  C   UNL     1     -11.229  12.988  67.495  1.00  0.00    -0.320 C  
HETATM   12  C   UNL     1      -6.838   8.318  67.439  1.00  0.00    -0.070 C  
HETATM   13  C   UNL     1     -11.885  14.151  68.300  1.00  0.00    -0.391 C  
HETATM   14  C   UNL     1      -9.675   8.227  69.314  1.00  0.00    -0.177 C  
HETATM   15  C   UNL     1      -7.676   9.101  68.143  1.00  0.00    -0.092 C  
HETATM   16  C   UNL     1     -12.096  11.750  67.796  1.00  0.00     0.068 C  
HETATM   17  C   UNL     1      -9.197   8.985  68.063  1.00  0.00    -0.143 C  
HETATM   18  C   UNL     1     -11.382  10.433  68.079  1.00  0.00    -0.204 C  
HETATM   19  C   UNL     1      -9.849  10.406  67.877  1.00  0.00    -0.176 C  
HETATM   20  C   UNL     1      -9.608   8.131  66.855  1.00  0.00    -0.269 C  
HETATM   21  O   UNL     1     -11.730  10.074  69.419  1.00  0.00    -0.457 OA 
HETATM   22  C   UNL     1      -9.198  11.606  68.578  1.00  0.00    -0.163 C  
HETATM   23  H   UNL     1     -11.286   9.253  69.595  1.00  0.00     0.000 HD 
HETATM   24  C   UNL     1      -7.662  11.531  68.572  1.00  0.00    -0.134 C  
HETATM   25  C   UNL     1      -7.144  10.180  69.049  1.00  0.00    -0.072 C  
ENDROOT
BRANCH   5  26
HETATM   26  C   UNL     1     -10.351  10.979  63.271  1.00  0.00    -0.317 C  
BRANCH  26  27
HETATM   27  C   UNL     1      -8.913  10.735  62.822  1.00  0.00    -0.305 C  
HETATM   28  C   UNL     1      -8.591   9.250  62.834  1.00  0.00    -0.220 C  
ENDBRANCH  26  27
ENDBRANCH   5  26
BRANCH   9  29
HETATM   29  C   UNL     1     -11.938  14.466  65.417  1.00  0.00    -0.369 C  
HETATM   30  O   UNL     1     -13.173  14.451  65.285  1.00  0.00    -0.619 OA 
BRANCH  29  31
HETATM   31  C   UNL     1     -11.135  15.705  65.017  1.00  0.00    -0.389 C  
HETATM   32  O   UNL     1     -11.577  16.296  63.802  1.00  0.00    -1.539 OA 
HETATM   33  H   UNL     1     -11.077  17.066  63.554  1.00  0.00     0.000 HD 
ENDBRANCH  29  31
ENDBRANCH   9  29
TORSDOF 4
ENDMDL
MODEL        5
REMARK 921   NORMALIZED FREE ENERGY PREDICTED BY IDOCK:   -6.78 KCAL/MOL
REMARK 922        TOTAL FREE ENERGY PREDICTED BY IDOCK:   -8.63 KCAL/MOL
REMARK 923 INTER-LIGAND FREE ENERGY PREDICTED BY IDOCK:   -7.99 KCAL/MOL
REMARK 924 INTRA-LIGAND FREE ENERGY PREDICTED BY IDOCK:   -0.65 KCAL/MOL
REMARK 927      BINDING AFFINITY PREDICTED BY RF-SCORE:    0.00 PKD
ROOT
HETATM    1  C   UNL     1     -10.006  13.669  65.830  1.00  0.00    -0.277 C  
HETATM    2  C   UNL     1     -11.542  13.862  65.900  1.00  0.00    -0.348 C  
HETATM    3  C   UNL     1     -11.892  14.049  67.363  1.00  0.00    -0.409 C  
HETATM    4  O   UNL     1     -11.959  12.784  68.021  1.00  0.00    -0.346 OA 
HETATM    5  C   UNL     1     -11.248  12.927  69.243  1.00  0.00    -0.190 C  
HETATM    6  O   UNL     1     -10.816   6.692  68.358  1.00  0.00    -0.239 OA 
HETATM    7  O   UNL     1     -10.615  14.196  69.286  1.00  0.00    -0.205 OA 
HETATM    8  C   UNL     1      -9.697   8.647  69.041  1.00  0.00    -0.173 C  
HETATM    9  C   UNL     1     -10.728  14.800  67.980  1.00  0.00    -0.248 C  
HETATM   10  C   UNL     1     -10.304   7.755  68.037  1.00  0.00    -0.209 C  
HETATM   11  C   UNL     1      -9.479  14.575  67.012  1.00  0.00    -0.247 C  
HETATM   12  C   UNL     1     -10.311   8.230  66.637  1.00  0.00    -0.293 C  
HETATM   13  C   UNL     1      -8.985  15.869  66.296  1.00  0.00    -0.381 C  
HETATM   14  C   UNL     1      -7.268   9.729  66.889  1.00  0.00    -0.090 C  
HETATM   15  C   UNL     1      -9.627   9.325  66.257  1.00  0.00    -0.313 C  
HETATM   16  C   UNL     1      -8.261  14.060  67.801  1.00  0.00    -0.169 C  
HETATM   17  C   UNL     1      -8.723  10.118  67.200  1.00  0.00    -0.131 C  
HETATM   18  C   UNL     1      -7.973  12.563  67.770  1.00  0.00    -0.163 C  
HETATM   19  C   UNL     1      -9.022  11.659  67.084  1.00  0.00    -0.173 C  
HETATM   20  C   UNL     1      -8.979   9.710  68.658  1.00  0.00    -0.129 C  
HETATM   21  O   UNL     1      -6.690  12.420  67.152  1.00  0.00    -0.245 OA 
HETATM   22  C   UNL     1      -9.400  12.229  65.709  1.00  0.00    -0.053 C  
HETATM   23  H   UNL     1      -6.510  11.488  67.133  1.00  0.00     0.000 HD 
HETATM   24  C   UNL     1     -10.298  11.275  64.902  1.00  0.00    -0.362 C  
HETATM   25  C   UNL     1      -9.743   9.857  64.853  1.00  0.00    -0.332 C  
ENDROOT
BRANCH   5  26
HETATM   26  C   UNL     1     -12.150  12.600  70.420  1.00  0.00    -0.381 C  
BRANCH  26  27
HETATM   27  C   UNL     1     -12.339  11.097  70.602  1.00  0.00    -0.482 C  
HETATM   28  C   UNL     1     -13.159  10.805  71.848  1.00  0.00    -0.557 C  
ENDBRANCH  26  27
ENDBRANCH   5  26
BRANCH   9  29
HETATM   29  C   UNL     1     -11.082  16.271  68.260  1.00  0.00    -0.346 C  
HETATM   30  O   UNL     1     -11.530  17.031  67.387  1.00  0.00     0.224 OA 
BRANCH  29  31
HETATM   31  C   UNL     1     -10.804  16.796  69.671  1.00  0.00    -0.204 C  
HETATM   32  O   UNL     1     -11.763  16.370  70.630  1.00  0.00    -0.516 OA 
HETATM   33  H   UNL     1     -11.590  16.696  71.506  1.00  0.00     0.000 HD 
ENDBRANCH  29  31
ENDBRANCH   9  29
TORSDOF 4
ENDMDL
MODEL        6
REMARK 921   NORMALIZED FREE ENERGY PREDICTED BY IDOCK:   -6.78 KCAL/MOL
REMARK 922        TOTAL FREE ENERGY PREDICTED BY IDOCK:   -8.63 KCAL/MOL
REMARK 923 INTER-LIGAND FREE ENERGY PREDICTED BY IDOCK:   -8.13 KCAL/MOL
REMARK 924 INTRA-LIGAND FREE ENERGY PREDICTED BY IDOCK:   -0.49 KCAL/MOL
REMARK 927      BINDING AFFINITY PREDICTED BY RF-SCORE:    0.00 PKD
ROOT
HETATM    1  C   UNL     1      -8.737   7.872  69.977  1.00  0.00    -0.140 C  
HETATM    2  C   UNL     1      -8.637   8.491  71.394  1.00  0.00    -0.224 C  
HETATM    3  C   UNL     1     -10.057   8.717  71.872  1.00  0.00    -0.339 C  
HETATM    4  O   UNL     1     -10.580   9.923  71.316  1.00  0.00    -0.194 OA 
HETATM    5  C   UNL     1     -11.888   9.619  70.851  1.00  0.00    -0.323 C  
HETATM    6  O   UNL     1     -10.480  14.589  67.222  1.00  0.00    -0.262 OA 
HETATM    7  O   UNL     1     -12.127   8.226  70.965  1.00  0.00    -0.288 OA 
HETATM    8  C   UNL     1     -11.475  12.458  67.310  1.00  0.00    -0.421 C  
HETATM    9  C   UNL     1     -10.880   7.580  71.298  1.00  0.00    -0.235 C  
HETATM   10  C   UNL     1     -10.324  13.378  67.313  1.00  0.00    -0.244 C  
HETATM   11  C   UNL     1     -10.054   7.005  70.059  1.00  0.00    -0.196 C  
HETATM   12  C   UNL     1      -8.985  12.777  67.484  1.00  0.00    -0.192 C  
HETATM   13  C   UNL     1      -9.530   5.551  70.262  1.00  0.00    -0.211 C  
HETATM   14  C   UNL     1      -9.747  10.004  65.666  1.00  0.00    -0.336 C  
HETATM   15  C   UNL     1      -8.796  11.445  67.441  1.00  0.00    -0.150 C  
HETATM   16  C   UNL     1     -10.935   6.944  68.796  1.00  0.00    -0.210 C  
HETATM   17  C   UNL     1      -9.914  10.450  67.130  1.00  0.00    -0.239 C  
HETATM   18  C   UNL     1     -10.798   8.070  67.778  1.00  0.00    -0.011 C  
HETATM   19  C   UNL     1      -9.907   9.270  68.172  1.00  0.00    -0.185 C  
HETATM   20  C   UNL     1     -11.284  11.135  67.221  1.00  0.00    -0.347 C  
HETATM   21  O   UNL     1     -10.331   7.458  66.572  1.00  0.00    -0.471 OA 
HETATM   22  C   UNL     1      -8.557   8.778  68.710  1.00  0.00    -0.137 C  
HETATM   23  H   UNL     1     -10.246   8.159  65.937  1.00  0.00     0.000 HD 
HETATM   24  C   UNL     1      -7.559   9.926  68.942  1.00  0.00    -0.083 C  
HETATM   25  C   UNL     1      -7.445  10.849  67.734  1.00  0.00    -0.094 C  
ENDROOT
BRANCH   5  26
HETATM   26  C   UNL     1     -12.910  10.520  71.521  1.00  0.00    -0.568 C  
BRANCH  26  27
HETATM   27  C   UNL     1     -12.685  11.993  71.192  1.00  0.00    -0.365 C  
HETATM   28  C   UNL     1     -13.522  12.881  72.099  1.00  0.00    -0.619 C  
ENDBRANCH  26  27
ENDBRANCH   5  26
BRANCH   9  29
HETATM   29  C   UNL     1     -11.252   6.545  72.374  1.00  0.00    -0.275 C  
HETATM   30  O   UNL     1     -12.192   5.745  72.238  1.00  0.00    -0.188 OA 
BRANCH  29  31
HETATM   31  C   UNL     1     -10.445   6.571  73.674  1.00  0.00    -0.311 C  
HETATM   32  O   UNL     1     -10.429   5.324  74.354  1.00  0.00    -0.275 OA 
HETATM   33  H   UNL     1      -9.927   5.340  75.161  1.00  0.00     0.000 HD 
ENDBRANCH  29  31
ENDBRANCH   9  29
TORSDOF 4
ENDMDL
MODEL        7
REMARK 921   NORMALIZED FREE ENERGY PREDICTED BY IDOCK:   -6.77 KCAL/MOL
REMARK 922        TOTAL FREE ENERGY PREDICTED BY IDOCK:   -8.62 KCAL/MOL
REMARK 923 INTER-LIGAND FREE ENERGY PREDICTED BY IDOCK:   -8.03 KCAL/MOL
REMARK 924 INTRA-LIGAND FREE ENERGY PREDICTED BY IDOCK:   -0.59 KCAL/MOL
REMARK 927      BINDING AFFINITY PREDICTED BY RF-SCORE:    0.00 PKD
ROOT
HETATM    1  C   UNL     1      -9.425   9.960  66.639  1.00  0.00    -0.220 C  
HETATM    2  C   UNL     1     -10.732  10.498  66.003  1.00  0.00    -0.086 C  
HETATM    3  C   UNL     1     -11.155  11.699  66.825  1.00  0.00    -0.309 C  
HETATM    4  O   UNL     1     -11.833  11.274  68.007  1.00  0.00    -0.578 OA 
HETATM    5  C   UNL     1     -11.292  12.037  69.078  1.00  0.00    -0.275 C  
HETATM    6  O   UNL     1     -13.418   6.977  72.197  1.00  0.00    -0.121 OA 
HETATM    7  O   UNL     1     -10.195  12.806  68.614  1.00  0.00    -0.222 OA 
HETATM    8  C   UNL     1     -11.677   8.547  71.984  1.00  0.00    -0.431 C  
HETATM    9  C   UNL     1      -9.873  12.372  67.275  1.00  0.00    -0.207 C  
HETATM   10  C   UNL     1     -12.468   7.385  71.542  1.00  0.00    -0.361 C  
HETATM   11  C   UNL     1      -8.723  11.271  67.171  1.00  0.00    -0.151 C  
HETATM   12  C   UNL     1     -12.094   6.772  70.250  1.00  0.00    -0.211 C  
HETATM   13  C   UNL     1      -7.642  11.578  66.090  1.00  0.00     0.189 C  
HETATM   14  C   UNL     1      -8.764   7.287  70.708  1.00  0.00    -0.146 C  
HETATM   15  C   UNL     1     -10.971   7.123  69.599  1.00  0.00    -0.236 C  
HETATM   16  C   UNL     1      -7.947  11.162  68.498  1.00  0.00    -0.143 C  
HETATM   17  C   UNL     1      -9.947   8.106  70.164  1.00  0.00    -0.187 C  
HETATM   18  C   UNL     1      -8.316  10.028  69.447  1.00  0.00    -0.165 C  
HETATM   19  C   UNL     1      -9.550   9.175  69.077  1.00  0.00    -0.156 C  
HETATM   20  C   UNL     1     -10.536   8.866  71.361  1.00  0.00    -0.375 C  
HETATM   21  O   UNL     1      -7.145   9.214  69.562  1.00  0.00    -0.056 OA 
HETATM   22  C   UNL     1      -9.473   8.731  67.610  1.00  0.00    -0.168 C  
HETATM   23  H   UNL     1      -7.373   8.507  70.154  1.00  0.00     0.000 HD 
HETATM   24  C   UNL     1     -10.576   7.726  67.238  1.00  0.00    -0.376 C  
HETATM   25  C   UNL     1     -10.670   6.572  68.230  1.00  0.00    -0.341 C  
ENDROOT
BRANCH   5  26
HETATM   26  C   UNL     1     -12.391  12.812  69.782  1.00  0.00    -0.096 C  
BRANCH  26  27
HETATM   27  C   UNL     1     -12.779  12.181  71.117  1.00  0.00    -0.351 C  
HETATM   28  C   UNL     1     -13.417  13.212  72.034  1.00  0.00    -0.598 C  
ENDBRANCH  26  27
ENDBRANCH   5  26
BRANCH   9  29
HETATM   29  C   UNL     1      -9.608  13.673  66.497  1.00  0.00    -0.286 C  
HETATM   30  O   UNL     1      -8.772  14.514  66.864  1.00  0.00    -0.225 OA 
BRANCH  29  31
HETATM   31  C   UNL     1     -10.468  13.929  65.257  1.00  0.00    -0.371 C  
HETATM   32  O   UNL     1      -9.930  13.362  64.071  1.00  0.00    -0.764 OA 
HETATM   33  H   UNL     1     -10.464  13.521  63.301  1.00  0.00     0.000 HD 
ENDBRANCH  29  31
ENDBRANCH   9  29
TORSDOF 4
ENDMDL
MODEL        8
REMARK 921   NORMALIZED FREE ENERGY PREDICTED BY IDOCK:   -6.73 KCAL/MOL
REMARK 922        TOTAL FREE ENERGY PREDICTED BY IDOCK:   -8.57 KCAL/MOL
REMARK 923 INTER-LIGAND FREE ENERGY PREDICTED BY IDOCK:   -7.85 KCAL/MOL
REMARK 924 INTRA-LIGAND FREE ENERGY PREDICTED BY IDOCK:   -0.72 KCAL/MOL
REMARK 927      BINDING AFFINITY PREDICTED BY RF-SCORE:    0.00 PKD
ROOT
HETATM    1  C   UNL     1      -8.372  11.053  66.687  1.00  0.00    -0.155 C  
HETATM    2  C   UNL     1      -7.620  10.438  67.894  1.00  0.00    -0.088 C  
HETATM    3  C   UNL     1      -8.646   9.670  68.702  1.00  0.00    -0.120 C  
HETATM    4  O   UNL     1      -9.384  10.562  69.538  1.00  0.00    -0.169 OA 
HETATM    5  C   UNL     1     -10.753  10.205  69.400  1.00  0.00    -0.238 C  
HETATM    6  O   UNL     1     -11.288  16.229  71.208  1.00  0.00    -0.371 OA 
HETATM    7  O   UNL     1     -10.894   9.223  68.386  1.00  0.00    -0.177 OA 
HETATM    8  C   UNL     1     -12.098  14.543  69.781  1.00  0.00    -0.380 C  
HETATM    9  C   UNL     1      -9.630   9.099  67.699  1.00  0.00    -0.149 C  
HETATM   10  C   UNL     1     -11.094  15.524  70.227  1.00  0.00    -0.328 C  
HETATM   11  C   UNL     1      -9.484   9.976  66.373  1.00  0.00    -0.235 C  
HETATM   12  C   UNL     1      -9.827  15.578  69.468  1.00  0.00    -0.284 C  
HETATM   13  C   UNL     1      -8.909   9.194  65.153  1.00  0.00    -0.241 C  
HETATM   14  C   UNL     1     -11.327  14.973  66.476  1.00  0.00    -0.280 C  
HETATM   15  C   UNL     1      -9.666  14.912  68.310  1.00  0.00    -0.215 C  
HETATM   16  C   UNL     1     -10.856  10.498  65.908  1.00  0.00     0.025 C  
HETATM   17  C   UNL     1     -10.786  14.120  67.636  1.00  0.00    -0.260 C  
HETATM   18  C   UNL     1     -11.231  11.932  66.265  1.00  0.00    -0.337 C  
HETATM   19  C   UNL     1     -10.273  12.694  67.209  1.00  0.00    -0.227 C  
HETATM   20  C   UNL     1     -11.957  13.914  68.607  1.00  0.00    -0.401 C  
HETATM   21  O   UNL     1     -11.384  12.622  65.021  1.00  0.00    -0.294 OA 
HETATM   22  C   UNL     1      -8.823  12.554  66.725  1.00  0.00    -0.177 C  
HETATM   23  H   UNL     1     -11.618  13.515  65.244  1.00  0.00     0.000 HD 
HETATM   24  C   UNL     1      -7.848  13.444  67.515  1.00  0.00    -0.181 C  
HETATM   25  C   UNL     1      -8.330  14.886  67.615  1.00  0.00    -0.178 C  
ENDROOT
BRANCH   5  26
HETATM   26  C   UNL     1     -11.346   9.848  70.750  1.00  0.00    -0.430 C  
BRANCH  26  27
HETATM   27  C   UNL     1     -11.126   8.381  71.109  1.00  0.00    -0.301 C  
HETATM   28  C   UNL     1     -11.082   8.197  72.617  1.00  0.00    -0.450 C  
ENDBRANCH  26  27
ENDBRANCH   5  26
BRANCH   9  29
HETATM   29  C   UNL     1      -9.437   7.585  67.508  1.00  0.00    -0.139 C  
HETATM   30  O   UNL     1      -8.359   7.012  67.737  1.00  0.00    -0.116 OA 
BRANCH  29  31
HETATM   31  C   UNL     1     -10.628   6.796  66.959  1.00  0.00    -0.335 C  
HETATM   32  O   UNL     1     -11.633   6.543  67.931  1.00  0.00    -0.623 OA 
HETATM   33  H   UNL     1     -12.372   6.053  67.590  1.00  0.00     0.000 HD 
ENDBRANCH  29  31
ENDBRANCH   9  29
TORSDOF 4
ENDMDL
MODEL        9
REMARK 921   NORMALIZED FREE ENERGY PREDICTED BY IDOCK:   -6.66 KCAL/MOL
REMARK 922        TOTAL FREE ENERGY PREDICTED BY IDOCK:   -8.48 KCAL/MOL
REMARK 923 INTER-LIGAND FREE ENERGY PREDICTED BY IDOCK:   -7.70 KCAL/MOL
REMARK 924 INTRA-LIGAND FREE ENERGY PREDICTED BY IDOCK:   -0.78 KCAL/MOL
REMARK 927      BINDING AFFINITY PREDICTED BY RF-SCORE:    0.00 PKD
ROOT
HETATM    1  C   UNL     1     -11.038   8.623  71.738  1.00  0.00    -0.396 C  
HETATM    2  C   UNL     1     -12.279   7.768  71.375  1.00  0.00    -0.343 C  
HETATM    3  C   UNL     1     -11.760   6.489  70.750  1.00  0.00    -0.366 C  
HETATM    4  O   UNL     1     -11.432   6.706  69.378  1.00  0.00    -0.299 OA 
HETATM    5  C   UNL     1     -10.164   6.100  69.166  1.00  0.00    -0.194 C  
HETATM    6  O   UNL     1     -10.205  10.387  64.532  1.00  0.00    -0.342 OA 
HETATM    7  O   UNL     1      -9.632   5.652  70.402  1.00  0.00    -0.160 OA 
HETATM    8  C   UNL     1      -8.924   9.332  66.201  1.00  0.00    -0.202 C  
HETATM    9  C   UNL     1     -10.460   6.171  71.464  1.00  0.00    -0.222 C  
HETATM   10  C   UNL     1      -9.974  10.251  65.726  1.00  0.00    -0.271 C  
HETATM   11  C   UNL     1      -9.957   7.537  72.119  1.00  0.00    -0.218 C  
HETATM   12  C   UNL     1     -10.764  10.955  66.757  1.00  0.00    -0.309 C  
HETATM   13  C   UNL     1      -9.963   7.536  73.678  1.00  0.00    -0.347 C  
HETATM   14  C   UNL     1      -8.117  11.328  68.860  1.00  0.00    -0.090 C  
HETATM   15  C   UNL     1     -10.423  10.920  68.058  1.00  0.00    -0.222 C  
HETATM   16  C   UNL     1      -8.498   7.829  71.721  1.00  0.00    -0.134 C  
HETATM   17  C   UNL     1      -9.159  10.233  68.575  1.00  0.00    -0.138 C  
HETATM   18  C   UNL     1      -8.254   8.816  70.584  1.00  0.00    -0.144 C  
HETATM   19  C   UNL     1      -9.495   9.319  69.812  1.00  0.00    -0.203 C  
HETATM   20  C   UNL     1      -8.556   9.332  67.488  1.00  0.00    -0.116 C  
HETATM   21  O   UNL     1      -7.529   9.908  71.158  1.00  0.00    -0.301 OA 
HETATM   22  C   UNL     1     -10.581   9.785  70.791  1.00  0.00    -0.371 C  
HETATM   23  H   UNL     1      -7.377  10.523  70.451  1.00  0.00     0.000 HD 
HETATM   24  C   UNL     1     -11.762  10.469  70.082  1.00  0.00    -0.410 C  
HETATM   25  C   UNL     1     -11.307  11.546  69.104  1.00  0.00    -0.351 C  
ENDROOT
BRANCH   5  26
HETATM   26  C   UNL     1     -10.254   5.055  68.069  1.00  0.00    -0.144 C  
BRANCH  26  27
HETATM   27  C   UNL     1     -10.555   5.673  66.706  1.00  0.00    -0.372 C  
HETATM   28  C   UNL     1     -10.490   4.620  65.612  1.00  0.00    -0.260 C  
ENDBRANCH  26  27
ENDBRANCH   5  26
BRANCH   9  29
HETATM   29  C   UNL     1     -10.620   4.994  72.444  1.00  0.00    -0.215 C  
HETATM   30  O   UNL     1     -11.586   4.893  73.217  1.00  0.00    -0.336 OA 
BRANCH  29  31
HETATM   31  C   UNL     1      -9.493   3.959  72.476  1.00  0.00    -0.124 C  
HETATM   32  O   UNL     1      -8.221   4.520  72.769  1.00  0.00    -0.097 OA 
HETATM   33  H   UNL     1      -7.521   3.877  72.789  1.00  0.00     0.000 HD 
ENDBRANCH  29  31
ENDBRANCH   9  29
TORSDOF 4
ENDMDL
MODEL       10
REMARK 921   NORMALIZED FREE ENERGY PREDICTED BY IDOCK:   -6.65 KCAL/MOL
REMARK 922        TOTAL FREE ENERGY PREDICTED BY IDOCK:   -8.48 KCAL/MOL
REMARK 923 INTER-LIGAND FREE ENERGY PREDICTED BY IDOCK:   -7.85 KCAL/MOL
REMARK 924 INTRA-LIGAND FREE ENERGY PREDICTED BY IDOCK:   -0.62 KCAL/MOL
REMARK 927      BINDING AFFINITY PREDICTED BY RF-SCORE:    0.00 PKD
ROOT
HETATM    1  C   UNL     1      -9.307  16.307  65.809  1.00  0.00    -0.194 C  
HETATM    2  C   UNL     1     -10.621  17.112  65.971  1.00  0.00    -0.205 C  
HETATM    3  C   UNL     1     -10.733  17.473  67.439  1.00  0.00    -0.250 C  
HETATM    4  O   UNL     1     -11.247  16.368  68.182  1.00  0.00    -0.346 OA 
HETATM    5  C   UNL     1     -10.433  16.248  69.341  1.00  0.00    -0.292 C  
HETATM    6  O   UNL     1     -12.639  10.354  68.841  1.00  0.00     0.058 OA 
HETATM    7  O   UNL     1      -9.340  17.148  69.256  1.00  0.00    -0.114 OA 
HETATM    8  C   UNL     1     -10.769  11.703  69.315  1.00  0.00    -0.144 C  
HETATM    9  C   UNL     1      -9.315  17.703  67.924  1.00  0.00    -0.268 C  
HETATM   10  C   UNL     1     -11.771  11.105  68.416  1.00  0.00    -0.279 C  
HETATM   11  C   UNL     1      -8.355  16.956  66.889  1.00  0.00    -0.244 C  
HETATM   12  C   UNL     1     -11.711  11.496  66.992  1.00  0.00    -0.092 C  
HETATM   13  C   UNL     1      -7.447  17.912  66.058  1.00  0.00    -0.279 C  
HETATM   14  C   UNL     1      -8.313  11.628  66.935  1.00  0.00    -0.169 C  
HETATM   15  C   UNL     1     -10.680  12.203  66.494  1.00  0.00    -0.290 C  
HETATM   16  C   UNL     1      -7.384  16.014  67.626  1.00  0.00    -0.173 C  
HETATM   17  C   UNL     1      -9.453  12.588  67.319  1.00  0.00    -0.193 C  
HETATM   18  C   UNL     1      -7.730  14.530  67.673  1.00  0.00    -0.179 C  
HETATM   19  C   UNL     1      -9.112  14.113  67.122  1.00  0.00    -0.240 C  
HETATM   20  C   UNL     1      -9.720  12.368  68.815  1.00  0.00     0.031 C  
HETATM   21  O   UNL     1      -6.675  13.856  66.980  1.00  0.00    -0.384 OA 
HETATM   22  C   UNL     1      -9.349  14.742  65.742  1.00  0.00    -0.097 C  
HETATM   23  H   UNL     1      -6.890  12.932  67.010  1.00  0.00     0.000 HD 
HETATM   24  C   UNL     1     -10.623  14.212  65.063  1.00  0.00    -0.436 C  
HETATM   25  C   UNL     1     -10.696  12.690  65.070  1.00  0.00    -0.321 C  
ENDROOT
BRANCH   5  26
HETATM   26  C   UNL     1     -11.280  16.355  70.596  1.00  0.00    -0.211 C  
BRANCH  26  27
HETATM   27  C   UNL     1     -12.091  15.089  70.855  1.00  0.00    -0.380 C  
HETATM   28  C   UNL     1     -12.450  14.973  72.328  1.00  0.00    -0.429 C  
ENDBRANCH  26  27
ENDBRANCH   5  26
BRANCH   9  29
HETATM   29  C   UNL     1      -9.017  19.199  68.131  1.00  0.00    -0.322 C  
HETATM   30  O   UNL     1      -8.056  19.604  68.805  1.00  0.00    -0.340 OA 
BRANCH  29  31
HETATM   31  C   UNL     1     -10.000  20.195  67.512  1.00  0.00    -0.430 C  
HETATM   32  O   UNL     1      -9.606  20.651  66.225  1.00  0.00    -0.642 OA 
HETATM   33  H   UNL     1     -10.217  21.270  65.841  1.00  0.00     0.000 HD 
ENDBRANCH  29  31
ENDBRANCH   9  29
TORSDOF 4
ENDMDL
MODEL       11
REMARK 921   NORMALIZED FREE ENERGY PREDICTED BY IDOCK:   -6.65 KCAL/MOL
REMARK 922        TOTAL FREE ENERGY PREDICTED BY IDOCK:   -8.47 KCAL/MOL
REMARK 923 INTER-LIGAND FREE ENERGY PREDICTED BY IDOCK:   -7.70 KCAL/MOL
REMARK 924 INTRA-LIGAND FREE ENERGY PREDICTED BY IDOCK:   -0.77 KCAL/MOL
REMARK 927      BINDING AFFINITY PREDICTED BY RF-SCORE:    0.00 PKD
ROOT
HETATM    1  C   UNL     1      -8.068   8.555  69.053  1.00  0.00    -0.115 C  
HETATM    2  C   UNL     1      -7.907   9.030  70.520  1.00  0.00    -0.138 C  
HETATM    3  C   UNL     1      -9.274   8.922  71.165  1.00  0.00    -0.256 C  
HETATM    4  O   UNL     1     -10.073  10.054  70.823  1.00  0.00    -0.125 OA 
HETATM    5  C   UNL     1     -11.351   9.549  70.459  1.00  0.00    -0.283 C  
HETATM    6  O   UNL     1     -11.337  15.052  67.365  1.00  0.00    -0.329 OA 
HETATM    7  O   UNL     1     -11.316   8.132  70.419  1.00  0.00    -0.259 OA 
HETATM    8  C   UNL     1     -11.908  12.770  67.283  1.00  0.00    -0.414 C  
HETATM    9  C   UNL     1      -9.940   7.712  70.539  1.00  0.00    -0.184 C  
HETATM   10  C   UNL     1     -10.953  13.892  67.285  1.00  0.00    -0.290 C  
HETATM   11  C   UNL     1      -9.184   7.443  69.159  1.00  0.00    -0.147 C  
HETATM   12  C   UNL     1      -9.516  13.550  67.241  1.00  0.00    -0.230 C  
HETATM   13  C   UNL     1      -8.382   6.107  69.121  1.00  0.00    -0.116 C  
HETATM   14  C   UNL     1      -9.978  10.889  65.174  1.00  0.00    -0.341 C  
HETATM   15  C   UNL     1      -9.094  12.294  67.010  1.00  0.00    -0.201 C  
HETATM   16  C   UNL     1     -10.188   7.343  67.995  1.00  0.00    -0.234 C  
HETATM   17  C   UNL     1     -10.040  11.137  66.691  1.00  0.00    -0.256 C  
HETATM   18  C   UNL     1     -10.387   8.575  67.119  1.00  0.00    -0.307 C  
HETATM   19  C   UNL     1      -9.688   9.878  67.569  1.00  0.00    -0.193 C  
HETATM   20  C   UNL     1     -11.491  11.527  67.008  1.00  0.00    -0.290 C  
HETATM   21  O   UNL     1      -9.970   8.196  65.804  1.00  0.00    -0.377 OA 
HETATM   22  C   UNL     1      -8.215   9.607  67.900  1.00  0.00    -0.106 C  
HETATM   23  H   UNL     1     -10.095   8.963  65.258  1.00  0.00     0.000 HD 
HETATM   24  C   UNL     1      -7.423  10.898  68.172  1.00  0.00    -0.091 C  
HETATM   25  C   UNL     1      -7.631  11.946  67.086  1.00  0.00    -0.154 C  
ENDROOT
BRANCH   5  26
HETATM   26  C   UNL     1     -12.430  10.157  71.338  1.00  0.00    -0.524 C  
BRANCH  26  27
HETATM   27  C   UNL     1     -12.825  11.558  70.882  1.00  0.00    -0.293 C  
HETATM   28  C   UNL     1     -13.321  12.386  72.056  1.00  0.00    -0.511 C  
ENDBRANCH  26  27
ENDBRANCH   5  26
BRANCH   9  29
HETATM   29  C   UNL     1      -9.980   6.516  71.507  1.00  0.00    -0.175 C  
HETATM   30  O   UNL     1      -9.011   6.192  72.212  1.00  0.00    -0.138 OA 
BRANCH  29  31
HETATM   31  C   UNL     1     -11.265   5.685  71.532  1.00  0.00    -0.112 C  
HETATM   32  O   UNL     1     -12.320   6.300  72.259  1.00  0.00    -0.512 OA 
HETATM   33  H   UNL     1     -13.118   5.784  72.275  1.00  0.00     0.000 HD 
ENDBRANCH  29  31
ENDBRANCH   9  29
TORSDOF 4
ENDMDL
MODEL       12
REMARK 921   NORMALIZED FREE ENERGY PREDICTED BY IDOCK:   -6.65 KCAL/MOL
REMARK 922        TOTAL FREE ENERGY PREDICTED BY IDOCK:   -8.47 KCAL/MOL
REMARK 923 INTER-LIGAND FREE ENERGY PREDICTED BY IDOCK:   -8.20 KCAL/MOL
REMARK 924 INTRA-LIGAND FREE ENERGY PREDICTED BY IDOCK:   -0.27 KCAL/MOL
REMARK 927      BINDING AFFINITY PREDICTED BY RF-SCORE:    0.00 PKD
ROOT
HETATM    1  C   UNL     1      -9.967  12.794  65.944  1.00  0.00    -0.273 C  
HETATM    2  C   UNL     1     -11.509  12.925  65.871  1.00  0.00    -0.387 C  
HETATM    3  C   UNL     1     -12.000  13.103  67.294  1.00  0.00    -0.335 C  
HETATM    4  O   UNL     1     -12.077  11.838  67.952  1.00  0.00    -0.592 OA 
HETATM    5  C   UNL     1     -11.488  12.014  69.234  1.00  0.00    -0.301 C  
HETATM    6  O   UNL     1     -10.729   5.798  68.437  1.00  0.00    -0.234 OA 
HETATM    7  O   UNL     1     -10.912  13.307  69.326  1.00  0.00    -0.196 OA 
HETATM    8  C   UNL     1      -9.756   7.799  69.205  1.00  0.00    -0.165 C  
HETATM    9  C   UNL     1     -10.928  13.902  68.010  1.00  0.00    -0.251 C  
HETATM   10  C   UNL     1     -10.232   6.881  68.156  1.00  0.00    -0.176 C  
HETATM   11  C   UNL     1      -9.587  13.724  67.162  1.00  0.00    -0.244 C  
HETATM   12  C   UNL     1     -10.129   7.350  66.758  1.00  0.00    -0.305 C  
HETATM   13  C   UNL     1      -9.082  15.035  66.487  1.00  0.00    -0.319 C  
HETATM   14  C   UNL     1      -7.184   8.970  67.277  1.00  0.00    -0.083 C  
HETATM   15  C   UNL     1      -9.457   8.470  66.434  1.00  0.00    -0.297 C  
HETATM   16  C   UNL     1      -8.427  13.261  68.064  1.00  0.00    -0.170 C  
HETATM   17  C   UNL     1      -8.676   9.302  67.451  1.00  0.00    -0.121 C  
HETATM   18  C   UNL     1      -8.079  11.777  68.070  1.00  0.00    -0.145 C  
HETATM   19  C   UNL     1      -9.024  10.830  67.297  1.00  0.00    -0.143 C  
HETATM   20  C   UNL     1      -9.049   8.889  68.882  1.00  0.00    -0.140 C  
HETATM   21  O   UNL     1      -6.740  11.684  67.574  1.00  0.00    -0.078 OA 
HETATM   22  C   UNL     1      -9.296  11.378  65.890  1.00  0.00    -0.247 C  
HETATM   23  H   UNL     1      -6.522  10.759  67.578  1.00  0.00     0.000 HD 
HETATM   24  C   UNL     1     -10.077  10.387  65.010  1.00  0.00    -0.379 C  
HETATM   25  C   UNL     1      -9.465   8.992  65.022  1.00  0.00     0.083 C  
ENDROOT
BRANCH   5  26
HETATM   26  C   UNL     1     -12.480  11.655  70.325  1.00  0.00    -0.261 C  
BRANCH  26  27
HETATM   27  C   UNL     1     -12.177  10.300  70.958  1.00  0.00    -0.487 C  
HETATM   28  C   UNL     1     -13.222   9.949  72.004  1.00  0.00    -0.555 C  
ENDBRANCH  26  27
ENDBRANCH   5  26
BRANCH   9  29
HETATM   29  C   UNL     1     -11.364  15.359  68.247  1.00  0.00    -0.348 C  
HETATM   30  O   UNL     1     -11.321  16.225  67.358  1.00  0.00    -0.081 OA 
BRANCH  29  31
HETATM   31  C   UNL     1     -11.810  15.729  69.664  1.00  0.00    -0.340 C  
HETATM   32  O   UNL     1     -13.040  15.127  70.043  1.00  0.00    -0.626 OA 
HETATM   33  H   UNL     1     -13.317  15.357  70.923  1.00  0.00     0.000 HD 
ENDBRANCH  29  31
ENDBRANCH   9  29
TORSDOF 4
ENDMDL
MODEL       13
REMARK 921   NORMALIZED FREE ENERGY PREDICTED BY IDOCK:   -6.54 KCAL/MOL
REMARK 922        TOTAL FREE ENERGY PREDICTED BY IDOCK:   -8.34 KCAL/MOL
REMARK 923 INTER-LIGAND FREE ENERGY PREDICTED BY IDOCK:   -7.47 KCAL/MOL
REMARK 924 INTRA-LIGAND FREE ENERGY PREDICTED BY IDOCK:   -0.87 KCAL/MOL
REMARK 927      BINDING AFFINITY PREDICTED BY RF-SCORE:    0.00 PKD
ROOT
HETATM    1  C   UNL     1      -7.993   9.912  67.596  1.00  0.00    -0.109 C  
HETATM    2  C   UNL     1      -7.629   9.609  69.072  1.00  0.00    -0.076 C  
HETATM    3  C   UNL     1      -8.908   9.169  69.755  1.00  0.00    -0.160 C  
HETATM    4  O   UNL     1      -9.692  10.306  70.118  1.00  0.00    -0.114 OA 
HETATM    5  C   UNL     1     -11.027  10.018  69.725  1.00  0.00    -0.276 C  
HETATM    6  O   UNL     1     -11.146  16.330  69.744  1.00  0.00    -0.326 OA 
HETATM    7  O   UNL     1     -11.061   8.804  68.993  1.00  0.00    -0.001 OA 
HETATM    8  C   UNL     1     -11.826  14.370  68.633  1.00  0.00    -0.366 C  
HETATM    9  C   UNL     1      -9.702   8.408  68.711  1.00  0.00    -0.164 C  
HETATM   10  C   UNL     1     -10.829  15.367  69.059  1.00  0.00    -0.244 C  
HETATM   11  C   UNL     1      -9.137   8.868  67.290  1.00  0.00    -0.153 C  
HETATM   12  C   UNL     1      -9.426  15.122  68.665  1.00  0.00    -0.206 C  
HETATM   13  C   UNL     1      -8.408   7.739  66.499  1.00  0.00    -0.128 C  
HETATM   14  C   UNL     1     -10.263  13.807  65.642  1.00  0.00    -0.326 C  
HETATM   15  C   UNL     1      -9.093  14.149  67.796  1.00  0.00    -0.190 C  
HETATM   16  C   UNL     1     -10.282   9.330  66.369  1.00  0.00    -0.298 C  
HETATM   17  C   UNL     1     -10.124  13.278  67.080  1.00  0.00    -0.242 C  
HETATM   18  C   UNL     1     -10.532  10.829  66.242  1.00  0.00    -0.226 C  
HETATM   19  C   UNL     1      -9.724  11.758  67.176  1.00  0.00    -0.194 C  
HETATM   20  C   UNL     1     -11.504  13.431  67.734  1.00  0.00    -0.351 C  
HETATM   21  O   UNL     1     -10.300  11.153  64.868  1.00  0.00    -0.279 OA 
HETATM   22  C   UNL     1      -8.234  11.391  67.135  1.00  0.00    -0.157 C  
HETATM   23  H   UNL     1     -10.456  12.086  64.788  1.00  0.00     0.000 HD 
HETATM   24  C   UNL     1      -7.357  12.399  67.897  1.00  0.00    -0.112 C  
HETATM   25  C   UNL     1      -7.650  13.840  67.501  1.00  0.00    -0.185 C  
ENDROOT
BRANCH   5  26
HETATM   26  C   UNL     1     -11.958  10.093  70.922  1.00  0.00    -0.461 C  
BRANCH  26  27
HETATM   27  C   UNL     1     -12.364   8.711  71.426  1.00  0.00    -0.344 C  
HETATM   28  C   UNL     1     -11.395   8.220  72.489  1.00  0.00    -0.455 C  
ENDBRANCH  26  27
ENDBRANCH   5  26
BRANCH   9  29
HETATM   29  C   UNL     1      -9.676   6.891  68.967  1.00  0.00    -0.150 C  
HETATM   30  O   UNL     1      -8.649   6.288  69.317  1.00  0.00    -0.123 OA 
BRANCH  29  31
HETATM   31  C   UNL     1     -10.975   6.122  68.714  1.00  0.00    -0.348 C  
HETATM   32  O   UNL     1     -11.532   6.363  67.430  1.00  0.00    -0.705 OA 
HETATM   33  H   UNL     1     -12.339   5.886  67.273  1.00  0.00     0.000 HD 
ENDBRANCH  29  31
ENDBRANCH   9  29
TORSDOF 4
ENDMDL
MODEL       14
REMARK 921   NORMALIZED FREE ENERGY PREDICTED BY IDOCK:   -6.49 KCAL/MOL
REMARK 922        TOTAL FREE ENERGY PREDICTED BY IDOCK:   -8.28 KCAL/MOL
REMARK 923 INTER-LIGAND FREE ENERGY PREDICTED BY IDOCK:   -7.58 KCAL/MOL
REMARK 924 INTRA-LIGAND FREE ENERGY PREDICTED BY IDOCK:   -0.70 KCAL/MOL
REMARK 927      BINDING AFFINITY PREDICTED BY RF-SCORE:    0.00 PKD
ROOT
HETATM    1  C   UNL     1     -11.659  12.428  67.260  1.00  0.00    -0.435 C  
HETATM    2  C   UNL     1     -11.418  13.268  68.540  1.00  0.00    -0.347 C  
HETATM    3  C   UNL     1     -10.269  14.208  68.235  1.00  0.00    -0.243 C  
HETATM    4  O   UNL     1      -9.022  13.526  68.374  1.00  0.00    -0.184 OA 
HETATM    5  C   UNL     1      -8.244  13.873  67.236  1.00  0.00    -0.161 C  
HETATM    6  O   UNL     1      -5.594   8.372  68.840  1.00  0.00    -0.037 OA 
HETATM    7  O   UNL     1      -9.031  14.623  66.326  1.00  0.00    -0.215 OA 
HETATM    8  C   UNL     1      -6.333   9.738  67.072  1.00  0.00    -0.065 C  
HETATM    9  C   UNL     1     -10.404  14.575  66.770  1.00  0.00    -0.269 C  
HETATM   10  C   UNL     1      -6.540   8.852  68.231  1.00  0.00    -0.060 C  
HETATM   11  C   UNL     1     -11.301  13.437  66.099  1.00  0.00    -0.324 C  
HETATM   12  C   UNL     1      -7.937   8.615  68.653  1.00  0.00    -0.115 C  
HETATM   13  C   UNL     1     -12.691  13.935  65.598  1.00  0.00    -0.534 C  
HETATM   14  C   UNL     1      -9.138   8.609  65.470  1.00  0.00    -0.190 C  
HETATM   15  C   UNL     1      -8.980   9.021  67.906  1.00  0.00    -0.135 C  
HETATM   16  C   UNL     1     -10.606  12.857  64.854  1.00  0.00    -0.342 C  
HETATM   17  C   UNL     1      -8.825   9.676  66.534  1.00  0.00    -0.158 C  
HETATM   18  C   UNL     1      -9.858  11.537  65.006  1.00  0.00    -0.257 C  
HETATM   19  C   UNL     1      -9.716  10.971  66.437  1.00  0.00    -0.235 C  
HETATM   20  C   UNL     1      -7.368  10.104  66.305  1.00  0.00    -0.112 C  
HETATM   21  O   UNL     1     -10.523  10.605  64.148  1.00  0.00    -0.426 OA 
HETATM   22  C   UNL     1     -11.074  10.978  67.151  1.00  0.00    -0.333 C  
HETATM   23  H   UNL     1     -10.056   9.783  64.242  1.00  0.00     0.000 HD 
HETATM   24  C   UNL     1     -11.032  10.254  68.508  1.00  0.00    -0.294 C  
HETATM   25  C   UNL     1     -10.391   8.875  68.411  1.00  0.00    -0.237 C  
ENDROOT
BRANCH   5  26
HETATM   26  C   UNL     1      -6.938  14.516  67.665  1.00  0.00    -0.204 C  
BRANCH  26  27
HETATM   27  C   UNL     1      -6.923  16.020  67.406  1.00  0.00    -0.223 C  
HETATM   28  C   UNL     1      -7.509  16.775  68.588  1.00  0.00    -0.219 C  
ENDBRANCH  26  27
ENDBRANCH   5  26
BRANCH   9  29
HETATM   29  C   UNL     1     -10.923  16.012  66.587  1.00  0.00    -0.092 C  
HETATM   30  O   UNL     1     -11.755  16.527  67.352  1.00  0.00     0.373 OA 
BRANCH  29  31
HETATM   31  C   UNL     1     -10.413  16.785  65.368  1.00  0.00    -0.193 C  
HETATM   32  O   UNL     1     -11.277  16.697  64.243  1.00  0.00    -1.314 OA 
HETATM   33  H   UNL     1     -10.960  17.177  63.487  1.00  0.00     0.000 HD 
ENDBRANCH  29  31
ENDBRANCH   9  29
TORSDOF 4
ENDMDL
MODEL       15
REMARK 921   NORMALIZED FREE ENERGY PREDICTED BY IDOCK:   -6.46 KCAL/MOL
REMARK 922        TOTAL FREE ENERGY PREDICTED BY IDOCK:   -8.24 KCAL/MOL
REMARK 923 INTER-LIGAND FREE ENERGY PREDICTED BY IDOCK:   -7.40 KCAL/MOL
REMARK 924 INTRA-LIGAND FREE ENERGY PREDICTED BY IDOCK:   -0.84 KCAL/MOL
REMARK 927      BINDING AFFINITY PREDICTED BY RF-SCORE:    0.00 PKD
ROOT
HETATM    1  C   UNL     1     -10.011   9.550  65.595  1.00  0.00    -0.269 C  
HETATM    2  C   UNL     1      -8.660   9.384  64.854  1.00  0.00    -0.198 C  
HETATM    3  C   UNL     1      -7.569   9.557  65.892  1.00  0.00    -0.100 C  
HETATM    4  O   UNL     1      -7.335  10.943  66.137  1.00  0.00    -0.140 OA 
HETATM    5  C   UNL     1      -7.266  11.097  67.549  1.00  0.00    -0.101 C  
HETATM    6  O   UNL     1      -8.930  16.934  65.812  1.00  0.00    -0.524 OA 
HETATM    7  O   UNL     1      -7.604   9.875  68.183  1.00  0.00    -0.081 OA 
HETATM    8  C   UNL     1      -9.247  15.198  67.370  1.00  0.00    -0.199 C  
HETATM    9  C   UNL     1      -8.119   8.973  67.179  1.00  0.00    -0.106 C  
HETATM   10  C   UNL     1      -9.388  15.822  66.043  1.00  0.00    -0.349 C  
HETATM   11  C   UNL     1      -9.707   8.954  67.026  1.00  0.00    -0.249 C  
HETATM   12  C   UNL     1     -10.057  15.024  64.994  1.00  0.00    -0.289 C  
HETATM   13  C   UNL     1     -10.326   7.524  66.972  1.00  0.00    -0.395 C  
HETATM   14  C   UNL     1     -12.275  13.621  67.158  1.00  0.00    -0.340 C  
HETATM   15  C   UNL     1     -10.685  13.868  65.277  1.00  0.00    -0.352 C  
HETATM   16  C   UNL     1     -10.381   9.641  68.229  1.00  0.00    -0.240 C  
HETATM   17  C   UNL     1     -10.838  13.323  66.697  1.00  0.00    -0.289 C  
HETATM   18  C   UNL     1     -10.840  11.085  68.060  1.00  0.00    -0.229 C  
HETATM   19  C   UNL     1     -10.443  11.800  66.748  1.00  0.00    -0.260 C  
HETATM   20  C   UNL     1      -9.908  14.071  67.662  1.00  0.00    -0.233 C  
HETATM   21  O   UNL     1     -12.261  11.071  68.227  1.00  0.00    -0.769 OA 
HETATM   22  C   UNL     1     -10.775  10.917  65.538  1.00  0.00    -0.182 C  
HETATM   23  H   UNL     1     -12.546  11.970  68.123  1.00  0.00     0.000 HD 
HETATM   24  C   UNL     1     -10.576  11.650  64.200  1.00  0.00    -0.411 C  
HETATM   25  C   UNL     1     -11.257  13.013  64.178  1.00  0.00    -0.439 C  
ENDROOT
BRANCH   5  26
HETATM   26  C   UNL     1      -5.932  11.701  67.950  1.00  0.00    -0.047 C  
BRANCH  26  27
HETATM   27  C   UNL     1      -5.971  13.227  67.966  1.00  0.00    -0.122 C  
HETATM   28  C   UNL     1      -6.664  13.734  69.220  1.00  0.00    -0.101 C  
ENDBRANCH  26  27
ENDBRANCH   5  26
BRANCH   9  29
HETATM   29  C   UNL     1      -7.476   7.614  67.510  1.00  0.00    -0.104 C  
HETATM   30  O   UNL     1      -7.269   6.744  66.650  1.00  0.00    -0.070 OA 
BRANCH  29  31
HETATM   31  C   UNL     1      -7.146   7.341  68.980  1.00  0.00    -0.080 C  
HETATM   32  O   UNL     1      -8.289   7.351  69.825  1.00  0.00    -0.131 OA 
HETATM   33  H   UNL     1      -8.084   7.181  70.737  1.00  0.00     0.000 HD 
ENDBRANCH  29  31
ENDBRANCH   9  29
TORSDOF 4
ENDMDL
MODEL       16
REMARK 921   NORMALIZED FREE ENERGY PREDICTED BY IDOCK:   -6.39 KCAL/MOL
REMARK 922        TOTAL FREE ENERGY PREDICTED BY IDOCK:   -8.16 KCAL/MOL
REMARK 923 INTER-LIGAND FREE ENERGY PREDICTED BY IDOCK:   -7.53 KCAL/MOL
REMARK 924 INTRA-LIGAND FREE ENERGY PREDICTED BY IDOCK:   -0.62 KCAL/MOL
REMARK 927      BINDING AFFINITY PREDICTED BY RF-SCORE:    0.00 PKD
ROOT
HETATM    1  C   UNL     1     -10.425  12.473  69.055  1.00  0.00    -0.024 C  
HETATM    2  C   UNL     1     -11.762  12.089  68.372  1.00  0.00    -0.390 C  
HETATM    3  C   UNL     1     -11.434  11.739  66.934  1.00  0.00    -0.293 C  
HETATM    4  O   UNL     1     -11.306  12.928  66.154  1.00  0.00    -0.293 OA 
HETATM    5  C   UNL     1     -10.130  12.771  65.371  1.00  0.00    -0.259 C  
HETATM    6  O   UNL     1     -10.588  19.064  65.552  1.00  0.00    -0.557 OA 
HETATM    7  O   UNL     1      -9.447  11.590  65.759  1.00  0.00    -0.227 OA 
HETATM    8  C   UNL     1      -9.142  17.211  65.657  1.00  0.00     0.372 C  
HETATM    9  C   UNL     1     -10.065  11.087  66.963  1.00  0.00    -0.196 C  
HETATM   10  C   UNL     1     -10.186  18.102  66.192  1.00  0.00    -0.367 C  
HETATM   11  C   UNL     1      -9.375  11.543  68.328  1.00  0.00    -0.190 C  
HETATM   12  C   UNL     1     -10.759  17.748  67.508  1.00  0.00    -0.315 C  
HETATM   13  C   UNL     1      -9.141  10.383  69.343  1.00  0.00    -0.170 C  
HETATM   14  C   UNL     1      -7.801  16.616  68.748  1.00  0.00    -0.238 C  
HETATM   15  C   UNL     1     -10.225  16.780  68.276  1.00  0.00    -0.295 C  
HETATM   16  C   UNL     1      -7.978  12.135  68.064  1.00  0.00    -0.152 C  
HETATM   17  C   UNL     1      -8.947  16.028  67.907  1.00  0.00    -0.186 C  
HETATM   18  C   UNL     1      -7.844  13.654  68.022  1.00  0.00    -0.150 C  
HETATM   19  C   UNL     1      -9.151  14.476  68.084  1.00  0.00    -0.191 C  
HETATM   20  C   UNL     1      -8.581  16.278  66.438  1.00  0.00    -0.361 C  
HETATM   21  O   UNL     1      -6.966  14.003  69.096  1.00  0.00    -0.110 OA 
HETATM   22  C   UNL     1     -10.040  13.982  69.233  1.00  0.00     0.122 C  
HETATM   23  H   UNL     1      -6.882  14.948  69.070  1.00  0.00     0.000 HD 
HETATM   24  C   UNL     1     -11.266  14.882  69.461  1.00  0.00    -0.300 C  
HETATM   25  C   UNL     1     -10.894  16.357  69.557  1.00  0.00    -0.338 C  
ENDROOT
BRANCH   5  26
HETATM   26  C   UNL     1     -10.459  12.886  63.893  1.00  0.00    -0.333 C  
BRANCH  26  27
HETATM   27  C   UNL     1     -11.942  13.151  63.651  1.00  0.00    -0.580 C  
HETATM   28  C   UNL     1     -12.679  11.855  63.356  1.00  0.00    -0.496 C  
ENDBRANCH  26  27
ENDBRANCH   5  26
BRANCH   9  29
HETATM   29  C   UNL     1     -10.153   9.565  66.750  1.00  0.00    -0.245 C  
HETATM   30  O   UNL     1     -11.026   8.863  67.284  1.00  0.00    -0.124 OA 
BRANCH  29  31
HETATM   31  C   UNL     1      -9.068   8.922  65.884  1.00  0.00    -0.218 C  
HETATM   32  O   UNL     1      -9.234   9.171  64.495  1.00  0.00    -0.430 OA 
HETATM   33  H   UNL     1      -8.560   8.771  63.957  1.00  0.00     0.000 HD 
ENDBRANCH  29  31
ENDBRANCH   9  29
TORSDOF 4
ENDMDL
MODEL       17
REMARK 921   NORMALIZED FREE ENERGY PREDICTED BY IDOCK:   -6.35 KCAL/MOL
REMARK 922        TOTAL FREE ENERGY PREDICTED BY IDOCK:   -8.10 KCAL/MOL
REMARK 923 INTER-LIGAND FREE ENERGY PREDICTED BY IDOCK:   -7.24 KCAL/MOL
REMARK 924 INTRA-LIGAND FREE ENERGY PREDICTED BY IDOCK:   -0.86 KCAL/MOL
REMARK 927      BINDING AFFINITY PREDICTED BY RF-SCORE:    0.00 PKD
ROOT
HETATM    1  C   UNL     1     -10.999   8.778  71.751  1.00  0.00    -0.415 C  
HETATM    2  C   UNL     1     -12.261   7.942  71.419  1.00  0.00    -0.337 C  
HETATM    3  C   UNL     1     -11.777   6.660  70.770  1.00  0.00    -0.388 C  
HETATM    4  O   UNL     1     -11.487   6.884  69.391  1.00  0.00    -0.173 OA 
HETATM    5  C   UNL     1     -10.234   6.263  69.137  1.00  0.00    -0.187 C  
HETATM    6  O   UNL     1     -10.357  10.584  64.536  1.00  0.00    -0.348 OA 
HETATM    7  O   UNL     1      -9.671   5.799  70.353  1.00  0.00    -0.166 OA 
HETATM    8  C   UNL     1      -9.041   9.501  66.159  1.00  0.00    -0.207 C  
HETATM    9  C   UNL     1     -10.461   6.320  71.443  1.00  0.00    -0.219 C  
HETATM   10  C   UNL     1     -10.092  10.436  65.722  1.00  0.00    -0.262 C  
HETATM   11  C   UNL     1      -9.921   7.675  72.092  1.00  0.00    -0.232 C  
HETATM   12  C   UNL     1     -10.843  11.143  66.780  1.00  0.00    -0.322 C  
HETATM   13  C   UNL     1      -9.881   7.664  73.650  1.00  0.00    -0.302 C  
HETATM   14  C   UNL     1      -8.130  11.467  68.806  1.00  0.00    -0.093 C  
HETATM   15  C   UNL     1     -10.464  11.094  68.071  1.00  0.00    -0.217 C  
HETATM   16  C   UNL     1      -8.471   7.952  71.653  1.00  0.00    -0.140 C  
HETATM   17  C   UNL     1      -9.194  10.387  68.544  1.00  0.00    -0.145 C  
HETATM   18  C   UNL     1      -8.248   8.944  70.517  1.00  0.00    -0.145 C  
HETATM   19  C   UNL     1      -9.505   9.469  69.785  1.00  0.00    -0.228 C  
HETATM   20  C   UNL     1      -8.635   9.486  67.435  1.00  0.00    -0.125 C  
HETATM   21  O   UNL     1      -7.493  10.023  71.076  1.00  0.00    -0.342 OA 
HETATM   22  C   UNL     1     -10.555   9.941  70.799  1.00  0.00    -0.309 C  
HETATM   23  H   UNL     1      -7.353  10.641  70.369  1.00  0.00     0.000 HD 
HETATM   24  C   UNL     1     -11.748  10.645  70.130  1.00  0.00    -0.417 C  
HETATM   25  C   UNL     1     -11.309  11.723  69.146  1.00  0.00    -0.340 C  
ENDROOT
BRANCH   5  26
HETATM   26  C   UNL     1     -10.370   5.227  68.035  1.00  0.00    -0.183 C  
BRANCH  26  27
HETATM   27  C   UNL     1      -9.015   4.762  67.510  1.00  0.00    -0.118 C  
HETATM   28  C   UNL     1      -8.408   5.806  66.587  1.00  0.00    -0.109 C  
ENDBRANCH  26  27
ENDBRANCH   5  26
BRANCH   9  29
HETATM   29  C   UNL     1     -10.607   5.139  72.419  1.00  0.00    -0.221 C  
HETATM   30  O   UNL     1     -11.633   4.949  73.092  1.00  0.00    -0.324 OA 
BRANCH  29  31
HETATM   31  C   UNL     1      -9.396   4.218  72.580  1.00  0.00    -0.120 C  
HETATM   32  O   UNL     1      -9.253   3.284  71.518  1.00  0.00    -0.101 OA 
HETATM   33  H   UNL     1      -8.501   2.712  71.618  1.00  0.00     0.000 HD 
ENDBRANCH  29  31
ENDBRANCH   9  29
TORSDOF 4
ENDMDL
MODEL       18
REMARK 921   NORMALIZED FREE ENERGY PREDICTED BY IDOCK:   -6.34 KCAL/MOL
REMARK 922        TOTAL FREE ENERGY PREDICTED BY IDOCK:   -8.09 KCAL/MOL
REMARK 923 INTER-LIGAND FREE ENERGY PREDICTED BY IDOCK:   -7.76 KCAL/MOL
REMARK 924 INTRA-LIGAND FREE ENERGY PREDICTED BY IDOCK:   -0.33 KCAL/MOL
REMARK 927      BINDING AFFINITY PREDICTED BY RF-SCORE:    0.00 PKD
ROOT
HETATM    1  C   UNL     1     -11.804  12.511  67.721  1.00  0.00    -0.375 C  
HETATM    2  C   UNL     1     -11.641  13.706  68.695  1.00  0.00    -0.364 C  
HETATM    3  C   UNL     1     -10.385  14.443  68.273  1.00  0.00    -0.239 C  
HETATM    4  O   UNL     1      -9.228  13.784  68.790  1.00  0.00    -0.118 OA 
HETATM    5  C   UNL     1      -8.296  13.710  67.720  1.00  0.00    -0.181 C  
HETATM    6  O   UNL     1      -6.347   8.900  71.315  1.00  0.00    -0.052 OA 
HETATM    7  O   UNL     1      -8.902  14.163  66.521  1.00  0.00    -0.173 OA 
HETATM    8  C   UNL     1      -6.752   9.657  69.123  1.00  0.00    -0.049 C  
HETATM    9  C   UNL     1     -10.316  14.325  66.763  1.00  0.00    -0.274 C  
HETATM   10  C   UNL     1      -7.170   9.202  70.461  1.00  0.00    -0.097 C  
HETATM   11  C   UNL     1     -11.226  13.075  66.364  1.00  0.00    -0.332 C  
HETATM   12  C   UNL     1      -8.622   9.179  70.737  1.00  0.00    -0.265 C  
HETATM   13  C   UNL     1     -12.498  13.450  65.545  1.00  0.00    -0.534 C  
HETATM   14  C   UNL     1      -9.440   8.206  67.583  1.00  0.00    -0.172 C  
HETATM   15  C   UNL     1      -9.531   9.372  69.765  1.00  0.00    -0.216 C  
HETATM   16  C   UNL     1     -10.445  12.093  65.471  1.00  0.00    -0.300 C  
HETATM   17  C   UNL     1      -9.160   9.542  68.292  1.00  0.00    -0.127 C  
HETATM   18  C   UNL     1      -9.840  10.859  66.131  1.00  0.00    -0.222 C  
HETATM   19  C   UNL     1      -9.916  10.777  67.673  1.00  0.00    -0.199 C  
HETATM   20  C   UNL     1      -7.655   9.804  68.145  1.00  0.00    -0.082 C  
HETATM   21  O   UNL     1     -10.480   9.732  65.524  1.00  0.00    -0.114 OA 
HETATM   22  C   UNL     1     -11.341  11.078  68.153  1.00  0.00    -0.374 C  
HETATM   23  H   UNL     1     -10.102   8.963  65.934  1.00  0.00     0.000 HD 
HETATM   24  C   UNL     1     -11.522  10.827  69.660  1.00  0.00    -0.376 C  
HETATM   25  C   UNL     1     -10.999   9.461  70.089  1.00  0.00    -0.282 C  
ENDROOT
BRANCH   5  26
HETATM   26  C   UNL     1      -6.996  14.395  68.102  1.00  0.00    -0.126 C  
BRANCH  26  27
HETATM   27  C   UNL     1      -6.836  15.750  67.420  1.00  0.00    -0.235 C  
HETATM   28  C   UNL     1      -7.473  16.851  68.253  1.00  0.00    -0.192 C  
ENDBRANCH  26  27
ENDBRANCH   5  26
BRANCH   9  29
HETATM   29  C   UNL     1     -10.681  15.649  66.069  1.00  0.00    -0.317 C  
HETATM   30  O   UNL     1     -11.069  16.649  66.695  1.00  0.00     0.014 OA 
BRANCH  29  31
HETATM   31  C   UNL     1     -10.604  15.677  64.541  1.00  0.00     0.215 C  
HETATM   32  O   UNL     1     -11.607  16.484  63.941  1.00  0.00    -1.598 OA 
HETATM   33  H   UNL     1     -11.560  16.501  62.992  1.00  0.00     0.000 HD 
ENDBRANCH  29  31
ENDBRANCH   9  29
TORSDOF 4
ENDMDL
MODEL       19
REMARK 921   NORMALIZED FREE ENERGY PREDICTED BY IDOCK:   -6.26 KCAL/MOL
REMARK 922        TOTAL FREE ENERGY PREDICTED BY IDOCK:   -7.99 KCAL/MOL
REMARK 923 INTER-LIGAND FREE ENERGY PREDICTED BY IDOCK:   -7.28 KCAL/MOL
REMARK 924 INTRA-LIGAND FREE ENERGY PREDICTED BY IDOCK:   -0.71 KCAL/MOL
REMARK 927      BINDING AFFINITY PREDICTED BY RF-SCORE:    0.00 PKD
ROOT
HETATM    1  C   UNL     1     -10.722   8.963  71.357  1.00  0.00    -0.382 C  
HETATM    2  C   UNL     1     -11.931   8.031  71.088  1.00  0.00    -0.297 C  
HETATM    3  C   UNL     1     -11.387   6.801  70.390  1.00  0.00    -0.347 C  
HETATM    4  O   UNL     1     -11.201   7.064  68.999  1.00  0.00    -0.121 OA 
HETATM    5  C   UNL     1      -9.920   6.549  68.659  1.00  0.00    -0.146 C  
HETATM    6  O   UNL     1     -10.675  10.900  64.147  1.00  0.00    -0.362 OA 
HETATM    7  O   UNL     1      -9.248   6.118  69.831  1.00  0.00    -0.147 OA 
HETATM    8  C   UNL     1      -9.178   9.908  65.669  1.00  0.00    -0.245 C  
HETATM    9  C   UNL     1     -10.009   6.561  70.976  1.00  0.00    -0.183 C  
HETATM   10  C   UNL     1     -10.326  10.760  65.312  1.00  0.00    -0.258 C  
HETATM   11  C   UNL     1      -9.540   7.947  71.613  1.00  0.00    -0.206 C  
HETATM   12  C   UNL     1     -11.063  11.392  66.426  1.00  0.00    -0.301 C  
HETATM   13  C   UNL     1      -9.402   7.921  73.166  1.00  0.00    -0.337 C  
HETATM   14  C   UNL     1      -8.265  11.910  68.288  1.00  0.00    -0.157 C  
HETATM   15  C   UNL     1     -10.603  11.358  67.690  1.00  0.00    -0.240 C  
HETATM   16  C   UNL     1      -8.146   8.346  71.091  1.00  0.00    -0.144 C  
HETATM   17  C   UNL     1      -9.254  10.751  68.074  1.00  0.00    -0.150 C  
HETATM   18  C   UNL     1      -8.075   9.366  69.960  1.00  0.00    -0.152 C  
HETATM   19  C   UNL     1      -9.412   9.796  69.315  1.00  0.00    -0.201 C  
HETATM   20  C   UNL     1      -8.694   9.911  66.917  1.00  0.00    -0.135 C  
HETATM   21  O   UNL     1      -7.375  10.496  70.491  1.00  0.00    -0.456 OA 
HETATM   22  C   UNL     1     -10.432  10.169  70.399  1.00  0.00    -0.237 C  
HETATM   23  H   UNL     1      -7.329  11.131  69.787  1.00  0.00     0.000 HD 
HETATM   24  C   UNL     1     -11.717  10.782  69.815  1.00  0.00    -0.399 C  
HETATM   25  C   UNL     1     -11.427  11.904  68.825  1.00  0.00    -0.347 C  
ENDROOT
BRANCH   5  26
HETATM   26  C   UNL     1     -10.041   5.519  67.551  1.00  0.00    -0.217 C  
BRANCH  26  27
HETATM   27  C   UNL     1      -9.342   5.965  66.269  1.00  0.00    -0.168 C  
HETATM   28  C   UNL     1      -7.848   6.122  66.498  1.00  0.00    -0.104 C  
ENDBRANCH  26  27
ENDBRANCH   5  26
BRANCH   9  29
HETATM   29  C   UNL     1      -9.998   5.360  71.939  1.00  0.00    -0.184 C  
HETATM   30  O   UNL     1      -8.979   4.688  72.161  1.00  0.00    -0.124 OA 
BRANCH  29  31
HETATM   31  C   UNL     1     -11.332   4.977  72.585  1.00  0.00    -0.133 C  
HETATM   32  O   UNL     1     -11.315   5.064  74.004  1.00  0.00    -0.395 OA 
HETATM   33  H   UNL     1     -12.143   4.826  74.405  1.00  0.00     0.000 HD 
ENDBRANCH  29  31
ENDBRANCH   9  29
TORSDOF 4
ENDMDL
MODEL       20
REMARK 921   NORMALIZED FREE ENERGY PREDICTED BY IDOCK:   -6.20 KCAL/MOL
REMARK 922        TOTAL FREE ENERGY PREDICTED BY IDOCK:   -7.92 KCAL/MOL
REMARK 923 INTER-LIGAND FREE ENERGY PREDICTED BY IDOCK:   -7.43 KCAL/MOL
REMARK 924 INTRA-LIGAND FREE ENERGY PREDICTED BY IDOCK:   -0.49 KCAL/MOL
REMARK 927      BINDING AFFINITY PREDICTED BY RF-SCORE:    0.00 PKD
ROOT
HETATM    1  C   UNL     1      -8.653   7.164  67.689  1.00  0.00    -0.122 C  
HETATM    2  C   UNL     1      -9.608   7.220  66.469  1.00  0.00    -0.211 C  
HETATM    3  C   UNL     1      -9.896   8.684  66.206  1.00  0.00    -0.249 C  
HETATM    4  O   UNL     1     -10.906   9.157  67.097  1.00  0.00    -0.212 OA 
HETATM    5  C   UNL     1     -10.450  10.406  67.598  1.00  0.00    -0.233 C  
HETATM    6  O   UNL     1     -14.408   8.672  72.200  1.00  0.00    -0.446 OA 
HETATM    7  O   UNL     1      -9.121  10.643  67.163  1.00  0.00    -0.143 OA 
HETATM    8  C   UNL     1     -12.331   9.651  71.679  1.00  0.00    -0.489 C  
HETATM    9  C   UNL     1      -8.623   9.431  66.555  1.00  0.00    -0.134 C  
HETATM   10  C   UNL     1     -13.264   8.516  71.793  1.00  0.00    -0.364 C  
HETATM   11  C   UNL     1      -7.787   8.474  67.523  1.00  0.00    -0.099 C  
HETATM   12  C   UNL     1     -12.772   7.196  71.344  1.00  0.00    -0.433 C  
HETATM   13  C   UNL     1      -6.449   7.960  66.910  1.00  0.00    -0.056 C  
HETATM   14  C   UNL     1      -9.610   7.736  72.475  1.00  0.00    -0.250 C  
HETATM   15  C   UNL     1     -11.479   6.991  71.033  1.00  0.00    -0.343 C  
HETATM   16  C   UNL     1      -7.383   9.217  68.810  1.00  0.00    -0.075 C  
HETATM   17  C   UNL     1     -10.399   8.060  71.194  1.00  0.00    -0.229 C  
HETATM   18  C   UNL     1      -8.225   8.984  70.060  1.00  0.00    -0.127 C  
HETATM   19  C   UNL     1      -9.516   8.151  69.893  1.00  0.00    -0.160 C  
HETATM   20  C   UNL     1     -11.036   9.439  71.414  1.00  0.00    -0.450 C  
HETATM   21  O   UNL     1      -7.349   8.388  71.021  1.00  0.00    -0.057 OA 
HETATM   22  C   UNL     1      -9.222   6.860  69.117  1.00  0.00    -0.141 C  
HETATM   23  H   UNL     1      -7.873   8.243  71.800  1.00  0.00     0.000 HD 
HETATM   24  C   UNL     1     -10.426   5.904  69.084  1.00  0.00    -0.338 C  
HETATM   25  C   UNL     1     -11.023   5.673  70.466  1.00  0.00    -0.267 C  
ENDROOT
BRANCH   5  26
HETATM   26  C   UNL     1     -11.452  11.502  67.281  1.00  0.00    -0.338 C  
BRANCH  26  27
HETATM   27  C   UNL     1     -11.215  12.121  65.906  1.00  0.00    -0.384 C  
HETATM   28  C   UNL     1     -12.491  12.753  65.375  1.00  0.00    -0.478 C  
ENDBRANCH  26  27
ENDBRANCH   5  26
BRANCH   9  29
HETATM   29  C   UNL     1      -7.875   9.905  65.297  1.00  0.00    -0.131 C  
HETATM   30  O   UNL     1      -8.212   9.568  64.150  1.00  0.00    -0.138 OA 
BRANCH  29  31
HETATM   31  C   UNL     1      -6.637  10.779  65.512  1.00  0.00     0.006 C  
HETATM   32  O   UNL     1      -6.899  11.947  66.277  1.00  0.00    -0.344 OA 
HETATM   33  H   UNL     1      -6.131  12.491  66.411  1.00  0.00     0.000 HD 
ENDBRANCH  29  31
ENDBRANCH   9  29
TORSDOF 4
ENDMDL
MODEL       21
REMARK 921   NORMALIZED FREE ENERGY PREDICTED BY IDOCK:   -6.20 KCAL/MOL
REMARK 922        TOTAL FREE ENERGY PREDICTED BY IDOCK:   -7.92 KCAL/MOL
REMARK 923 INTER-LIGAND FREE ENERGY PREDICTED BY IDOCK:   -7.05 KCAL/MOL
REMARK 924 INTRA-LIGAND FREE ENERGY PREDICTED BY IDOCK:   -0.86 KCAL/MOL
REMARK 927      BINDING AFFINITY PREDICTED BY RF-SCORE:    0.00 PKD
ROOT
HETATM    1  C   UNL     1      -9.955  10.158  69.307  1.00  0.00    -0.234 C  
HETATM    2  C   UNL     1     -10.750   8.990  68.672  1.00  0.00    -0.137 C  
HETATM    3  C   UNL     1     -10.002   8.583  67.418  1.00  0.00    -0.214 C  
HETATM    4  O   UNL     1     -10.322   9.466  66.343  1.00  0.00    -0.242 OA 
HETATM    5  C   UNL     1      -9.091   9.804  65.719  1.00  0.00    -0.177 C  
HETATM    6  O   UNL     1     -12.640  14.759  64.076  1.00  0.00    -0.822 OA 
HETATM    7  O   UNL     1      -8.010   9.280  66.472  1.00  0.00    -0.103 OA 
HETATM    8  C   UNL     1     -10.522  14.032  64.800  1.00  0.00    -0.445 C  
HETATM    9  C   UNL     1      -8.531   8.784  67.724  1.00  0.00    -0.125 C  
HETATM   10  C   UNL     1     -11.956  14.315  64.988  1.00  0.00    -0.410 C  
HETATM   11  C   UNL     1      -8.458   9.807  68.947  1.00  0.00    -0.129 C  
HETATM   12  C   UNL     1     -12.536  13.990  66.308  1.00  0.00    -0.439 C  
HETATM   13  C   UNL     1      -7.895   9.188  70.263  1.00  0.00    -0.129 C  
HETATM   14  C   UNL     1      -9.737  14.895  68.016  1.00  0.00    -0.212 C  
HETATM   15  C   UNL     1     -11.765  13.638  67.353  1.00  0.00    -0.416 C  
HETATM   16  C   UNL     1      -7.520  10.984  68.621  1.00  0.00    -0.112 C  
HETATM   17  C   UNL     1     -10.237  13.628  67.301  1.00  0.00    -0.246 C  
HETATM   18  C   UNL     1      -8.152  12.293  68.160  1.00  0.00    -0.158 C  
HETATM   19  C   UNL     1      -9.675  12.282  67.896  1.00  0.00    -0.202 C  
HETATM   20  C   UNL     1      -9.749  13.727  65.849  1.00  0.00    -0.217 C  
HETATM   21  O   UNL     1      -7.808  13.268  69.148  1.00  0.00    -0.321 OA 
HETATM   22  C   UNL     1     -10.417  11.638  69.075  1.00  0.00    -0.159 C  
HETATM   23  H   UNL     1      -8.202  14.083  68.860  1.00  0.00     0.000 HD 
HETATM   24  C   UNL     1     -11.945  11.770  68.955  1.00  0.00    -0.332 C  
HETATM   25  C   UNL     1     -12.383  13.197  68.653  1.00  0.00     0.114 C  
ENDROOT
BRANCH   5  26
HETATM   26  C   UNL     1      -9.120   9.419  64.250  1.00  0.00    -0.159 C  
BRANCH  26  27
HETATM   27  C   UNL     1      -9.681  10.534  63.372  1.00  0.00    -0.368 C  
HETATM   28  C   UNL     1      -8.643  10.998  62.364  1.00  0.00    -0.341 C  
ENDBRANCH  26  27
ENDBRANCH   5  26
BRANCH   9  29
HETATM   29  C   UNL     1      -7.805   7.445  67.946  1.00  0.00    -0.118 C  
HETATM   30  O   UNL     1      -8.376   6.440  68.397  1.00  0.00    -0.115 OA 
BRANCH  29  31
HETATM   31  C   UNL     1      -6.306   7.409  67.638  1.00  0.00    -0.052 C  
HETATM   32  O   UNL     1      -6.015   7.059  66.292  1.00  0.00    -0.033 OA 
HETATM   33  H   UNL     1      -5.084   7.036  66.101  1.00  0.00     0.000 HD 
ENDBRANCH  29  31
ENDBRANCH   9  29
TORSDOF 4
ENDMDL
MODEL       22
REMARK 921   NORMALIZED FREE ENERGY PREDICTED BY IDOCK:   -6.18 KCAL/MOL
REMARK 922        TOTAL FREE ENERGY PREDICTED BY IDOCK:   -7.90 KCAL/MOL
REMARK 923 INTER-LIGAND FREE ENERGY PREDICTED BY IDOCK:   -7.66 KCAL/MOL
REMARK 924 INTRA-LIGAND FREE ENERGY PREDICTED BY IDOCK:   -0.23 KCAL/MOL
REMARK 927      BINDING AFFINITY PREDICTED BY RF-SCORE:    0.00 PKD
ROOT
HETATM    1  C   UNL     1      -8.809  15.168  66.267  1.00  0.00    -0.211 C  
HETATM    2  C   UNL     1      -8.392  14.061  67.268  1.00  0.00    -0.209 C  
HETATM    3  C   UNL     1      -9.446  14.038  68.357  1.00  0.00    -0.213 C  
HETATM    4  O   UNL     1      -9.198  15.075  69.307  1.00  0.00    -0.206 OA 
HETATM    5  C   UNL     1     -10.448  15.707  69.549  1.00  0.00    -0.270 C  
HETATM    6  O   UNL     1      -6.462  20.349  71.104  1.00  0.00    -0.529 OA 
HETATM    7  O   UNL     1     -11.427  15.192  68.662  1.00  0.00    -0.292 OA 
HETATM    8  C   UNL     1      -8.481  19.790  70.031  1.00  0.00     0.992 C  
HETATM    9  C   UNL     1     -10.759  14.375  67.677  1.00  0.00    -0.263 C  
HETATM   10  C   UNL     1      -7.013  19.823  70.146  1.00  0.00     0.063 C  
HETATM   11  C   UNL     1     -10.386  15.115  66.313  1.00  0.00    -0.303 C  
HETATM   12  C   UNL     1      -6.242  19.147  69.081  1.00  0.00    -0.298 C  
HETATM   13  C   UNL     1     -10.768  14.317  65.030  1.00  0.00    -0.435 C  
HETATM   14  C   UNL     1      -8.409  20.053  66.621  1.00  0.00    -0.363 C  
HETATM   15  C   UNL     1      -6.831  18.694  67.959  1.00  0.00    -0.236 C  
HETATM   16  C   UNL     1     -11.137  16.454  66.194  1.00  0.00     0.184 C  
HETATM   17  C   UNL     1      -8.311  18.909  67.645  1.00  0.00    -0.296 C  
HETATM   18  C   UNL     1     -10.383  17.729  66.558  1.00  0.00    -0.345 C  
HETATM   19  C   UNL     1      -8.977  17.561  67.177  1.00  0.00    -0.245 C  
HETATM   20  C   UNL     1      -9.063  19.381  68.897  1.00  0.00    -0.363 C  
HETATM   21  O   UNL     1     -10.329  18.511  65.361  1.00  0.00    -0.479 OA 
HETATM   22  C   UNL     1      -8.139  16.584  66.340  1.00  0.00    -0.362 C  
HETATM   23  H   UNL     1      -9.859  19.305  65.588  1.00  0.00     0.000 HD 
HETATM   24  C   UNL     1      -6.672  16.522  66.799  1.00  0.00    -0.202 C  
HETATM   25  C   UNL     1      -6.049  17.905  66.943  1.00  0.00    -0.183 C  
ENDROOT
BRANCH   5  26
HETATM   26  C   UNL     1     -10.796  15.643  71.025  1.00  0.00    -0.168 C  
BRANCH  26  27
HETATM   27  C   UNL     1     -12.052  14.817  71.287  1.00  0.00    -0.399 C  
HETATM   28  C   UNL     1     -13.210  15.713  71.692  1.00  0.00    -0.554 C  
ENDBRANCH  26  27
ENDBRANCH   5  26
BRANCH   9  29
HETATM   29  C   UNL     1     -11.658  13.135  67.525  1.00  0.00    -0.352 C  
HETATM   30  O   UNL     1     -12.727  13.156  66.893  1.00  0.00    -0.055 OA 
BRANCH  29  31
HETATM   31  C   UNL     1     -11.211  11.860  68.243  1.00  0.00    -0.261 C  
HETATM   32  O   UNL     1     -12.259  10.918  68.426  1.00  0.00    -0.813 OA 
HETATM   33  H   UNL     1     -11.981  10.127  68.872  1.00  0.00     0.000 HD 
ENDBRANCH  29  31
ENDBRANCH   9  29
TORSDOF 4
ENDMDL
MODEL       23
REMARK 921   NORMALIZED FREE ENERGY PREDICTED BY IDOCK:   -6.07 KCAL/MOL
REMARK 922        TOTAL FREE ENERGY PREDICTED BY IDOCK:   -7.76 KCAL/MOL
REMARK 923 INTER-LIGAND FREE ENERGY PREDICTED BY IDOCK:   -7.09 KCAL/MOL
REMARK 924 INTRA-LIGAND FREE ENERGY PREDICTED BY IDOCK:   -0.67 KCAL/MOL
REMARK 927      BINDING AFFINITY PREDICTED BY RF-SCORE:    0.00 PKD
ROOT
HETATM    1  C   UNL     1      -9.610  10.177  66.692  1.00  0.00    -0.230 C  
HETATM    2  C   UNL     1     -10.954  10.650  66.084  1.00  0.00     0.015 C  
HETATM    3  C   UNL     1     -11.464  11.769  66.970  1.00  0.00    -0.298 C  
HETATM    4  O   UNL     1     -12.106  11.232  68.126  1.00  0.00    -0.635 OA 
HETATM    5  C   UNL     1     -11.620  11.973  69.238  1.00  0.00    -0.321 C  
HETATM    6  O   UNL     1     -13.358   6.606  72.072  1.00  0.00    -0.189 OA 
HETATM    7  O   UNL     1     -10.584  12.845  68.819  1.00  0.00    -0.242 OA 
HETATM    8  C   UNL     1     -11.739   8.310  71.948  1.00  0.00    -0.381 C  
HETATM    9  C   UNL     1     -10.234  12.510  67.459  1.00  0.00    -0.217 C  
HETATM   10  C   UNL     1     -12.443   7.118  71.441  1.00  0.00    -0.388 C  
HETATM   11  C   UNL     1      -9.005  11.504  67.297  1.00  0.00    -0.162 C  
HETATM   12  C   UNL     1     -12.028   6.607  70.119  1.00  0.00    -0.250 C  
HETATM   13  C   UNL     1      -7.953  11.950  66.236  1.00  0.00     0.230 C  
HETATM   14  C   UNL     1      -8.743   7.341  70.610  1.00  0.00    -0.147 C  
HETATM   15  C   UNL     1     -10.934   7.075  69.489  1.00  0.00    -0.251 C  
HETATM   16  C   UNL     1      -8.221  11.381  68.617  1.00  0.00    -0.142 C  
HETATM   17  C   UNL     1      -9.985   8.099  70.110  1.00  0.00    -0.187 C  
HETATM   18  C   UNL     1      -8.502  10.172  69.502  1.00  0.00    -0.168 C  
HETATM   19  C   UNL     1      -9.671   9.252  69.084  1.00  0.00    -0.164 C  
HETATM   20  C   UNL     1     -10.626   8.746  71.345  1.00  0.00    -0.349 C  
HETATM   21  O   UNL     1      -7.274   9.442  69.575  1.00  0.00    -0.060 OA 
HETATM   22  C   UNL     1      -9.564   8.896  67.595  1.00  0.00    -0.181 C  
HETATM   23  H   UNL     1      -7.448   8.689  70.126  1.00  0.00     0.000 HD 
HETATM   24  C   UNL     1     -10.591   7.834  67.166  1.00  0.00    -0.401 C  
HETATM   25  C   UNL     1     -10.597   6.624  68.093  1.00  0.00    -0.294 C  
ENDROOT
BRANCH   5  26
HETATM   26  C   UNL     1     -12.771  12.625  69.982  1.00  0.00     0.265 C  
BRANCH  26  27
HETATM   27  C   UNL     1     -12.540  12.657  71.490  1.00  0.00    -0.256 C  
HETATM   28  C   UNL     1     -13.694  13.349  72.196  1.00  0.00    -0.646 C  
ENDBRANCH  26  27
ENDBRANCH   5  26
BRANCH   9  29
HETATM   29  C   UNL     1     -10.067  13.868  66.753  1.00  0.00    -0.265 C  
HETATM   30  O   UNL     1     -10.275  14.022  65.539  1.00  0.00    -0.317 OA 
BRANCH  29  31
HETATM   31  C   UNL     1      -9.568  15.037  67.606  1.00  0.00    -0.203 C  
HETATM   32  O   UNL     1     -10.618  15.829  68.144  1.00  0.00    -0.258 OA 
HETATM   33  H   UNL     1     -10.308  16.556  68.674  1.00  0.00     0.000 HD 
ENDBRANCH  29  31
ENDBRANCH   9  29
TORSDOF 4
ENDMDL
MODEL       24
REMARK 921   NORMALIZED FREE ENERGY PREDICTED BY IDOCK:   -6.06 KCAL/MOL
REMARK 922        TOTAL FREE ENERGY PREDICTED BY IDOCK:   -7.75 KCAL/MOL
REMARK 923 INTER-LIGAND FREE ENERGY PREDICTED BY IDOCK:   -7.08 KCAL/MOL
REMARK 924 INTRA-LIGAND FREE ENERGY PREDICTED BY IDOCK:   -0.67 KCAL/MOL
REMARK 927      BINDING AFFINITY PREDICTED BY RF-SCORE:    0.00 PKD
ROOT
HETATM    1  C   UNL     1      -9.794  16.045  68.475  1.00  0.00    -0.216 C  
HETATM    2  C   UNL     1      -8.854  15.801  69.683  1.00  0.00    -0.062 C  
HETATM    3  C   UNL     1      -7.524  15.346  69.116  1.00  0.00    -0.189 C  
HETATM    4  O   UNL     1      -7.572  13.957  68.794  1.00  0.00    -0.129 OA 
HETATM    5  C   UNL     1      -6.991  13.821  67.504  1.00  0.00    -0.145 C  
HETATM    6  O   UNL     1     -10.631   8.667  67.697  1.00  0.00    -0.248 OA 
HETATM    7  O   UNL     1      -6.727  15.103  66.958  1.00  0.00    -0.235 OA 
HETATM    8  C   UNL     1      -9.851  10.455  66.380  1.00  0.00    -0.266 C  
HETATM    9  C   UNL     1      -7.350  16.092  67.807  1.00  0.00    -0.139 C  
HETATM   10  C   UNL     1     -10.660   9.868  67.462  1.00  0.00    -0.275 C  
HETATM   11  C   UNL     1      -8.807  16.560  67.355  1.00  0.00    -0.201 C  
HETATM   12  C   UNL     1     -11.464  10.801  68.280  1.00  0.00    -0.353 C  
HETATM   13  C   UNL     1      -9.010  18.106  67.363  1.00  0.00    -0.256 C  
HETATM   14  C   UNL     1     -12.206  12.828  65.651  1.00  0.00    -0.503 C  
HETATM   15  C   UNL     1     -11.611  12.094  67.940  1.00  0.00    -0.413 C  
HETATM   16  C   UNL     1      -9.099  16.123  65.907  1.00  0.00    -0.268 C  
HETATM   17  C   UNL     1     -11.045  12.692  66.652  1.00  0.00    -0.314 C  
HETATM   18  C   UNL     1      -9.937  14.866  65.698  1.00  0.00    -0.358 C  
HETATM   19  C   UNL     1     -10.289  14.039  66.956  1.00  0.00    -0.267 C  
HETATM   20  C   UNL     1     -10.032  11.731  66.014  1.00  0.00    -0.258 C  
HETATM   21  O   UNL     1     -11.120  15.290  65.015  1.00  0.00    -0.385 OA 
HETATM   22  C   UNL     1     -10.838  14.953  68.060  1.00  0.00    -0.263 C  
HETATM   23  H   UNL     1     -11.643  14.508  64.884  1.00  0.00     0.000 HD 
HETATM   24  C   UNL     1     -11.380  14.164  69.264  1.00  0.00    -0.324 C  
HETATM   25  C   UNL     1     -12.336  13.052  68.848  1.00  0.00     0.116 C  
ENDROOT
BRANCH   5  26
HETATM   26  C   UNL     1      -5.809  12.870  67.554  1.00  0.00    -0.115 C  
BRANCH  26  27
HETATM   27  C   UNL     1      -6.234  11.412  67.403  1.00  0.00    -0.078 C  
HETATM   28  C   UNL     1      -5.740  10.843  66.083  1.00  0.00    -0.142 C  
ENDBRANCH  26  27
ENDBRANCH   5  26
BRANCH   9  29
HETATM   29  C   UNL     1      -6.307  17.217  67.924  1.00  0.00    -0.149 C  
HETATM   30  O   UNL     1      -5.712  17.685  66.940  1.00  0.00    -0.128 OA 
BRANCH  29  31
HETATM   31  C   UNL     1      -5.976  17.714  69.334  1.00  0.00    -0.235 C  
HETATM   32  O   UNL     1      -6.529  18.990  69.625  1.00  0.00    -0.279 OA 
HETATM   33  H   UNL     1      -6.323  19.299  70.501  1.00  0.00     0.000 HD 
ENDBRANCH  29  31
ENDBRANCH   9  29
TORSDOF 4
ENDMDL
MODEL       25
REMARK 921   NORMALIZED FREE ENERGY PREDICTED BY IDOCK:   -6.04 KCAL/MOL
REMARK 922        TOTAL FREE ENERGY PREDICTED BY IDOCK:   -7.72 KCAL/MOL
REMARK 923 INTER-LIGAND FREE ENERGY PREDICTED BY IDOCK:   -6.94 KCAL/MOL
REMARK 924 INTRA-LIGAND FREE ENERGY PREDICTED BY IDOCK:   -0.78 KCAL/MOL
REMARK 927      BINDING AFFINITY PREDICTED BY RF-SCORE:    0.00 PKD
ROOT
HETATM    1  C   UNL     1     -10.762  10.217  66.368  1.00  0.00    -0.077 C  
HETATM    2  C   UNL     1      -9.777   9.934  65.206  1.00  0.00    -0.383 C  
HETATM    3  C   UNL     1      -8.382   9.978  65.797  1.00  0.00    -0.132 C  
HETATM    4  O   UNL     1      -7.941  11.330  65.923  1.00  0.00    -0.062 OA 
HETATM    5  C   UNL     1      -7.371  11.448  67.220  1.00  0.00    -0.130 C  
HETATM    6  O   UNL     1      -8.949  17.453  66.078  1.00  0.00    -0.493 OA 
HETATM    7  O   UNL     1      -7.587  10.252  67.952  1.00  0.00    -0.088 OA 
HETATM    8  C   UNL     1      -8.874  15.726  67.676  1.00  0.00    -0.180 C  
HETATM    9  C   UNL     1      -8.505   9.426  67.204  1.00  0.00    -0.128 C  
HETATM   10  C   UNL     1      -9.405  16.387  66.471  1.00  0.00    -0.273 C  
HETATM   11  C   UNL     1     -10.041   9.566  67.613  1.00  0.00    -0.254 C  
HETATM   12  C   UNL     1     -10.473  15.680  65.734  1.00  0.00    -0.383 C  
HETATM   13  C   UNL     1     -10.778   8.205  67.801  1.00  0.00    -0.166 C  
HETATM   14  C   UNL     1     -11.928  14.459  68.556  1.00  0.00    -0.333 C  
HETATM   15  C   UNL     1     -11.074  14.585  66.236  1.00  0.00    -0.332 C  
HETATM   16  C   UNL     1     -10.183  10.292  68.964  1.00  0.00    -0.225 C  
HETATM   17  C   UNL     1     -10.777  14.030  67.628  1.00  0.00    -0.261 C  
HETATM   18  C   UNL     1     -10.526  11.777  68.942  1.00  0.00    -0.154 C  
HETATM   19  C   UNL     1     -10.541  12.475  67.563  1.00  0.00    -0.238 C  
HETATM   20  C   UNL     1      -9.501  14.664  68.198  1.00  0.00    -0.212 C  
HETATM   21  O   UNL     1     -11.795  11.899  69.594  1.00  0.00    -0.306 OA 
HETATM   22  C   UNL     1     -11.360  11.653  66.558  1.00  0.00    -0.331 C  
HETATM   23  H   UNL     1     -12.008  12.825  69.581  1.00  0.00     0.000 HD 
HETATM   24  C   UNL     1     -11.567  12.389  65.223  1.00  0.00    -0.419 C  
HETATM   25  C   UNL     1     -12.074  13.813  65.418  1.00  0.00    -0.427 C  
ENDROOT
BRANCH   5  26
HETATM   26  C   UNL     1      -5.928  11.910  67.123  1.00  0.00    -0.152 C  
BRANCH  26  27
HETATM   27  C   UNL     1      -5.689  13.219  67.871  1.00  0.00    -0.131 C  
HETATM   28  C   UNL     1      -6.265  13.147  69.276  1.00  0.00    -0.102 C  
ENDBRANCH  26  27
ENDBRANCH   5  26
BRANCH   9  29
HETATM   29  C   UNL     1      -7.925   8.004  67.312  1.00  0.00    -0.121 C  
HETATM   30  O   UNL     1      -7.636   7.480  68.400  1.00  0.00    -0.108 OA 
BRANCH  29  31
HETATM   31  C   UNL     1      -7.657   7.261  66.001  1.00  0.00    -0.089 C  
HETATM   32  O   UNL     1      -8.755   6.471  65.566  1.00  0.00    -0.254 OA 
HETATM   33  H   UNL     1      -8.588   6.009  64.752  1.00  0.00     0.000 HD 
ENDBRANCH  29  31
ENDBRANCH   9  29
TORSDOF 4
ENDMDL
MODEL       26
REMARK 921   NORMALIZED FREE ENERGY PREDICTED BY IDOCK:   -6.00 KCAL/MOL
REMARK 922        TOTAL FREE ENERGY PREDICTED BY IDOCK:   -7.66 KCAL/MOL
REMARK 923 INTER-LIGAND FREE ENERGY PREDICTED BY IDOCK:   -7.02 KCAL/MOL
REMARK 924 INTRA-LIGAND FREE ENERGY PREDICTED BY IDOCK:   -0.64 KCAL/MOL
REMARK 927      BINDING AFFINITY PREDICTED BY RF-SCORE:    0.00 PKD
ROOT
HETATM    1  C   UNL     1     -11.018  15.287  66.951  1.00  0.00    -0.315 C  
HETATM    2  C   UNL     1     -10.235  14.611  65.797  1.00  0.00    -0.360 C  
HETATM    3  C   UNL     1      -9.000  13.986  66.415  1.00  0.00    -0.011 C  
HETATM    4  O   UNL     1      -7.988  14.974  66.605  1.00  0.00    -0.069 OA 
HETATM    5  C   UNL     1      -7.474  14.778  67.916  1.00  0.00    -0.145 C  
HETATM    6  O   UNL     1      -6.048  20.858  66.993  1.00  0.00    -0.218 OA 
HETATM    7  O   UNL     1      -8.246  13.800  68.594  1.00  0.00    -0.144 OA 
HETATM    8  C   UNL     1      -6.838  19.251  68.519  1.00  0.00    -0.319 C  
HETATM    9  C   UNL     1      -9.415  13.515  67.796  1.00  0.00    -0.216 C  
HETATM   10  C   UNL     1      -6.960  20.116  67.333  1.00  0.00    -0.252 C  
HETATM   11  C   UNL     1     -10.724  14.342  68.182  1.00  0.00    -0.239 C  
HETATM   12  C   UNL     1      -8.207  20.006  66.548  1.00  0.00    -0.347 C  
HETATM   13  C   UNL     1     -12.014  13.474  68.300  1.00  0.00    -0.377 C  
HETATM   14  C   UNL     1     -10.161  19.523  69.290  1.00  0.00    -0.291 C  
HETATM   15  C   UNL     1      -9.264  19.302  66.993  1.00  0.00    -0.357 C  
HETATM   16  C   UNL     1     -10.562  15.013  69.559  1.00  0.00    -0.264 C  
HETATM   17  C   UNL     1      -9.308  18.635  68.367  1.00  0.00    -0.369 C  
HETATM   18  C   UNL     1     -10.177  16.488  69.592  1.00  0.00    -0.156 C  
HETATM   19  C   UNL     1      -9.818  17.150  68.242  1.00  0.00    -0.288 C  
HETATM   20  C   UNL     1      -7.904  18.588  68.986  1.00  0.00    -0.153 C  
HETATM   21  O   UNL     1     -11.266  17.166  70.224  1.00  0.00    -0.240 OA 
HETATM   22  C   UNL     1     -10.887  16.831  67.189  1.00  0.00    -0.102 C  
HETATM   23  H   UNL     1     -11.026  18.085  70.245  1.00  0.00     0.000 HD 
HETATM   24  C   UNL     1     -10.683  17.616  65.882  1.00  0.00    -0.113 C  
HETATM   25  C   UNL     1     -10.479  19.106  66.125  1.00  0.00    -0.558 C  
ENDROOT
BRANCH   5  26
HETATM   26  C   UNL     1      -5.979  14.520  67.865  1.00  0.00    -0.150 C  
BRANCH  26  27
HETATM   27  C   UNL     1      -5.619  13.113  68.333  1.00  0.00    -0.082 C  
HETATM   28  C   UNL     1      -5.634  12.138  67.167  1.00  0.00    -0.115 C  
ENDBRANCH  26  27
ENDBRANCH   5  26
BRANCH   9  29
HETATM   29  C   UNL     1      -9.564  11.985  67.857  1.00  0.00    -0.196 C  
HETATM   30  O   UNL     1      -9.642  11.361  68.927  1.00  0.00    -0.170 OA 
BRANCH  29  31
HETATM   31  C   UNL     1      -9.556  11.232  66.524  1.00  0.00    -0.191 C  
HETATM   32  O   UNL     1     -10.856  11.001  66.000  1.00  0.00    -0.217 OA 
HETATM   33  H   UNL     1     -10.851  10.533  65.172  1.00  0.00     0.000 HD 
ENDBRANCH  29  31
ENDBRANCH   9  29
TORSDOF 4
ENDMDL
MODEL       27
REMARK 921   NORMALIZED FREE ENERGY PREDICTED BY IDOCK:   -5.99 KCAL/MOL
REMARK 922        TOTAL FREE ENERGY PREDICTED BY IDOCK:   -7.65 KCAL/MOL
REMARK 923 INTER-LIGAND FREE ENERGY PREDICTED BY IDOCK:   -7.28 KCAL/MOL
REMARK 924 INTRA-LIGAND FREE ENERGY PREDICTED BY IDOCK:   -0.37 KCAL/MOL
REMARK 927      BINDING AFFINITY PREDICTED BY RF-SCORE:    0.00 PKD
ROOT
HETATM    1  C   UNL     1      -8.912   6.596  70.492  1.00  0.00    -0.152 C  
HETATM    2  C   UNL     1      -8.497   7.717  71.478  1.00  0.00    -0.129 C  
HETATM    3  C   UNL     1      -9.538   8.812  71.358  1.00  0.00    -0.267 C  
HETATM    4  O   UNL     1      -9.268   9.629  70.219  1.00  0.00    -0.242 OA 
HETATM    5  C   UNL     1     -10.507   9.807  69.547  1.00  0.00    -0.232 C  
HETATM    6  O   UNL     1      -6.451  10.759  64.804  1.00  0.00     0.032 OA 
HETATM    7  O   UNL     1     -11.503   8.997  70.151  1.00  0.00    -0.193 OA 
HETATM    8  C   UNL     1      -8.489   9.781  65.461  1.00  0.00    -0.150 C  
HETATM    9  C   UNL     1     -10.855   8.110  71.088  1.00  0.00    -0.232 C  
HETATM   10  C   UNL     1      -7.019   9.876  65.433  1.00  0.00    -0.113 C  
HETATM   11  C   UNL     1     -10.489   6.663  70.519  1.00  0.00    -0.240 C  
HETATM   12  C   UNL     1      -6.268   8.891  66.241  1.00  0.00    -0.064 C  
HETATM   13  C   UNL     1     -10.895   5.488  71.460  1.00  0.00    -0.263 C  
HETATM   14  C   UNL     1      -8.452   6.363  65.605  1.00  0.00    -0.147 C  
HETATM   15  C   UNL     1      -6.875   7.838  66.816  1.00  0.00    -0.071 C  
HETATM   16  C   UNL     1     -11.226   6.394  69.194  1.00  0.00    -0.421 C  
HETATM   17  C   UNL     1      -8.356   7.514  66.621  1.00  0.00    -0.127 C  
HETATM   18  C   UNL     1     -10.454   6.596  67.896  1.00  0.00    -0.219 C  
HETATM   19  C   UNL     1      -9.042   7.216  68.007  1.00  0.00    -0.132 C  
HETATM   20  C   UNL     1      -9.088   8.709  65.994  1.00  0.00    -0.255 C  
HETATM   21  O   UNL     1     -10.403   5.315  67.262  1.00  0.00    -0.206 OA 
HETATM   22  C   UNL     1      -8.225   6.494  69.087  1.00  0.00    -0.116 C  
HETATM   23  H   UNL     1      -9.923   5.441  66.452  1.00  0.00     0.000 HD 
HETATM   24  C   UNL     1      -6.754   6.942  69.113  1.00  0.00    -0.053 C  
HETATM   25  C   UNL     1      -6.114   6.915  67.730  1.00  0.00    -0.033 C  
ENDROOT
BRANCH   5  26
HETATM   26  C   UNL     1     -10.839  11.283  69.431  1.00  0.00    -0.239 C  
BRANCH  26  27
HETATM   27  C   UNL     1     -12.096  11.656  70.212  1.00  0.00    -0.443 C  
HETATM   28  C   UNL     1     -12.173  13.159  70.422  1.00  0.00    -0.389 C  
ENDBRANCH  26  27
ENDBRANCH   5  26
BRANCH   9  29
HETATM   29  C   UNL     1     -11.770   8.115  72.325  1.00  0.00    -0.379 C  
HETATM   30  O   UNL     1     -11.371   7.789  73.455  1.00  0.00    -0.287 OA 
BRANCH  29  31
HETATM   31  C   UNL     1     -13.238   8.489  72.103  1.00  0.00    -0.352 C  
HETATM   32  O   UNL     1     -13.896   8.915  73.287  1.00  0.00    -1.163 OA 
HETATM   33  H   UNL     1     -14.807   9.147  73.149  1.00  0.00     0.000 HD 
ENDBRANCH  29  31
ENDBRANCH   9  29
TORSDOF 4
ENDMDL
MODEL       28
REMARK 921   NORMALIZED FREE ENERGY PREDICTED BY IDOCK:   -5.90 KCAL/MOL
REMARK 922        TOTAL FREE ENERGY PREDICTED BY IDOCK:   -7.54 KCAL/MOL
REMARK 923 INTER-LIGAND FREE ENERGY PREDICTED BY IDOCK:   -6.99 KCAL/MOL
REMARK 924 INTRA-LIGAND FREE ENERGY PREDICTED BY IDOCK:   -0.55 KCAL/MOL
REMARK 927      BINDING AFFINITY PREDICTED BY RF-SCORE:    0.00 PKD
ROOT
HETATM    1  C   UNL     1      -8.373   9.224  67.055  1.00  0.00    -0.120 C  
HETATM    2  C   UNL     1      -9.725   9.255  66.298  1.00  0.00    -0.340 C  
HETATM    3  C   UNL     1     -10.555  10.353  66.933  1.00  0.00    -0.230 C  
HETATM    4  O   UNL     1     -11.168   9.878  68.132  1.00  0.00    -0.207 OA 
HETATM    5  C   UNL     1     -10.970  10.888  69.113  1.00  0.00    -0.239 C  
HETATM    6  O   UNL     1     -11.721   5.812  72.790  1.00  0.00    -0.264 OA 
HETATM    7  O   UNL     1     -10.121  11.900  68.597  1.00  0.00    -0.216 OA 
HETATM    8  C   UNL     1     -10.522   7.807  72.442  1.00  0.00    -0.321 C  
HETATM    9  C   UNL     1      -9.576  11.436  67.343  1.00  0.00    -0.174 C  
HETATM   10  C   UNL     1     -10.888   6.415  72.127  1.00  0.00    -0.237 C  
HETATM   11  C   UNL     1      -8.143  10.739  67.436  1.00  0.00    -0.112 C  
HETATM   12  C   UNL     1     -10.244   5.804  70.945  1.00  0.00    -0.275 C  
HETATM   13  C   UNL     1      -7.121  11.239  66.370  1.00  0.00    -0.053 C  
HETATM   14  C   UNL     1      -7.271   7.370  71.470  1.00  0.00    -0.071 C  
HETATM   15  C   UNL     1      -9.229   6.407  70.301  1.00  0.00    -0.158 C  
HETATM   16  C   UNL     1      -7.481  11.028  68.796  1.00  0.00    -0.116 C  
HETATM   17  C   UNL     1      -8.597   7.716  70.772  1.00  0.00    -0.134 C  
HETATM   18  C   UNL     1      -7.567   9.952  69.873  1.00  0.00    -0.163 C  
HETATM   19  C   UNL     1      -8.454   8.723  69.569  1.00  0.00    -0.128 C  
HETATM   20  C   UNL     1      -9.482   8.389  71.830  1.00  0.00    -0.323 C  
HETATM   21  O   UNL     1      -6.219   9.558  70.145  1.00  0.00    -0.049 OA 
HETATM   22  C   UNL     1      -8.128   8.160  68.179  1.00  0.00    -0.128 C  
HETATM   23  H   UNL     1      -6.271   8.887  70.816  1.00  0.00     0.000 HD 
HETATM   24  C   UNL     1      -8.844   6.827  67.899  1.00  0.00    -0.118 C  
HETATM   25  C   UNL     1      -8.667   5.823  69.032  1.00  0.00    -0.112 C  
ENDROOT
BRANCH   5  26
HETATM   26  C   UNL     1     -12.304  11.362  69.661  1.00  0.00    -0.236 C  
BRANCH  26  27
HETATM   27  C   UNL     1     -12.743  10.563  70.885  1.00  0.00    -0.495 C  
HETATM   28  C   UNL     1     -13.243  11.490  71.980  1.00  0.00    -0.443 C  
ENDBRANCH  26  27
ENDBRANCH   5  26
BRANCH   9  29
HETATM   29  C   UNL     1      -9.651  12.657  66.409  1.00  0.00    -0.248 C  
HETATM   30  O   UNL     1      -9.200  13.770  66.724  1.00  0.00    -0.246 OA 
BRANCH  29  31
HETATM   31  C   UNL     1     -10.369  12.465  65.071  1.00  0.00    -0.293 C  
HETATM   32  O   UNL     1      -9.837  13.268  64.026  1.00  0.00    -0.741 OA 
HETATM   33  H   UNL     1     -10.283  13.149  63.195  1.00  0.00     0.000 HD 
ENDBRANCH  29  31
ENDBRANCH   9  29
TORSDOF 4
ENDMDL
MODEL       29
REMARK 921   NORMALIZED FREE ENERGY PREDICTED BY IDOCK:   -5.71 KCAL/MOL
REMARK 922        TOTAL FREE ENERGY PREDICTED BY IDOCK:   -7.31 KCAL/MOL
REMARK 923 INTER-LIGAND FREE ENERGY PREDICTED BY IDOCK:   -6.70 KCAL/MOL
REMARK 924 INTRA-LIGAND FREE ENERGY PREDICTED BY IDOCK:   -0.61 KCAL/MOL
REMARK 927      BINDING AFFINITY PREDICTED BY RF-SCORE:    0.00 PKD
ROOT
HETATM    1  C   UNL     1      -9.953   8.835  71.775  1.00  0.00    -0.396 C  
HETATM    2  C   UNL     1      -8.670   9.326  71.058  1.00  0.00    -0.182 C  
HETATM    3  C   UNL     1      -8.774   8.872  69.616  1.00  0.00    -0.140 C  
HETATM    4  O   UNL     1      -8.389   7.502  69.500  1.00  0.00    -0.128 OA 
HETATM    5  C   UNL     1      -9.368   6.876  68.682  1.00  0.00    -0.135 C  
HETATM    6  O   UNL     1      -7.174   1.906  71.897  1.00  0.00    -0.033 OA 
HETATM    7  O   UNL     1     -10.427   7.783  68.419  1.00  0.00    -0.201 OA 
HETATM    8  C   UNL     1      -9.079   2.977  71.024  1.00  0.00    -0.185 C  
HETATM    9  C   UNL     1     -10.247   8.942  69.260  1.00  0.00    -0.209 C  
HETATM   10  C   UNL     1      -7.960   2.841  71.973  1.00  0.00    -0.054 C  
HETATM   11  C   UNL     1     -11.048   8.917  70.640  1.00  0.00    -0.306 C  
HETATM   12  C   UNL     1      -7.803   3.910  72.981  1.00  0.00    -0.079 C  
HETATM   13  C   UNL     1     -11.813  10.239  70.957  1.00  0.00    -0.472 C  
HETATM   14  C   UNL     1     -11.153   4.346  73.376  1.00  0.00    -0.394 C  
HETATM   15  C   UNL     1      -8.740   4.858  73.160  1.00  0.00    -0.109 C  
HETATM   16  C   UNL     1     -12.129   7.820  70.626  1.00  0.00    -0.030 C  
HETATM   17  C   UNL     1     -10.073   4.871  72.413  1.00  0.00    -0.240 C  
HETATM   18  C   UNL     1     -11.809   6.497  71.315  1.00  0.00    -0.329 C  
HETATM   19  C   UNL     1     -10.365   6.304  71.829  1.00  0.00    -0.240 C  
HETATM   20  C   UNL     1     -10.035   3.893  71.230  1.00  0.00    -0.183 C  
HETATM   21  O   UNL     1     -12.756   6.368  72.380  1.00  0.00    -0.547 OA 
HETATM   22  C   UNL     1      -9.918   7.528  72.640  1.00  0.00    -0.259 C  
HETATM   23  H   UNL     1     -12.557   5.544  72.809  1.00  0.00     0.000 HD 
HETATM   24  C   UNL     1      -8.562   7.314  73.333  1.00  0.00    -0.175 C  
HETATM   25  C   UNL     1      -8.506   6.004  74.110  1.00  0.00    -0.115 C  
ENDROOT
BRANCH   5  26
HETATM   26  C   UNL     1      -8.717   6.251  67.461  1.00  0.00    -0.105 C  
BRANCH  26  27
HETATM   27  C   UNL     1      -8.891   4.736  67.425  1.00  0.00    -0.106 C  
HETATM   28  C   UNL     1     -10.050   4.349  66.521  1.00  0.00    -0.217 C  
ENDBRANCH  26  27
ENDBRANCH   5  26
BRANCH   9  29
HETATM   29  C   UNL     1     -10.556  10.140  68.344  1.00  0.00    -0.217 C  
HETATM   30  O   UNL     1     -11.655  10.290  67.786  1.00  0.00    -0.331 OA 
BRANCH  29  31
HETATM   31  C   UNL     1      -9.420  11.134  68.092  1.00  0.00    -0.180 C  
HETATM   32  O   UNL     1      -9.470  12.274  68.939  1.00  0.00    -0.401 OA 
HETATM   33  H   UNL     1      -8.765  12.891  68.782  1.00  0.00     0.000 HD 
ENDBRANCH  29  31
ENDBRANCH   9  29
TORSDOF 4
ENDMDL
MODEL       30
REMARK 921   NORMALIZED FREE ENERGY PREDICTED BY IDOCK:   -5.69 KCAL/MOL
REMARK 922        TOTAL FREE ENERGY PREDICTED BY IDOCK:   -7.28 KCAL/MOL
REMARK 923 INTER-LIGAND FREE ENERGY PREDICTED BY IDOCK:   -7.02 KCAL/MOL
REMARK 924 INTRA-LIGAND FREE ENERGY PREDICTED BY IDOCK:   -0.26 KCAL/MOL
REMARK 927      BINDING AFFINITY PREDICTED BY RF-SCORE:    0.00 PKD
ROOT
HETATM    1  C   UNL     1     -10.446  11.365  69.170  1.00  0.00    -0.159 C  
HETATM    2  C   UNL     1     -11.604  10.802  68.309  1.00  0.00    -0.297 C  
HETATM    3  C   UNL     1     -11.009  10.432  66.965  1.00  0.00    -0.154 C  
HETATM    4  O   UNL     1     -10.881  11.593  66.144  1.00  0.00    -0.276 OA 
HETATM    5  C   UNL     1      -9.583  11.539  65.569  1.00  0.00    -0.227 C  
HETATM    6  O   UNL     1     -10.732  17.740  65.295  1.00  0.00    -0.649 OA 
HETATM    7  O   UNL     1      -8.851  10.462  66.132  1.00  0.00    -0.150 OA 
HETATM    8  C   UNL     1      -9.133  16.071  65.740  1.00  0.00    -0.168 C  
HETATM    9  C   UNL     1      -9.602   9.943  67.250  1.00  0.00    -0.160 C  
HETATM   10  C   UNL     1     -10.341  16.858  66.048  1.00  0.00    -0.325 C  
HETATM   11  C   UNL     1      -9.198  10.533  68.678  1.00  0.00    -0.172 C  
HETATM   12  C   UNL     1     -11.081  16.497  67.274  1.00  0.00     0.019 C  
HETATM   13  C   UNL     1      -9.012   9.451  69.785  1.00  0.00    -0.199 C  
HETATM   14  C   UNL     1      -8.264  15.766  69.035  1.00  0.00    -0.234 C  
HETATM   15  C   UNL     1     -10.581  15.630  68.174  1.00  0.00    -0.274 C  
HETATM   16  C   UNL     1      -7.847  11.270  68.603  1.00  0.00    -0.139 C  
HETATM   17  C   UNL     1      -9.187  15.015  68.060  1.00  0.00    -0.183 C  
HETATM   18  C   UNL     1      -7.871  12.790  68.491  1.00  0.00    -0.099 C  
HETATM   19  C   UNL     1      -9.251  13.459  68.295  1.00  0.00    -0.198 C  
HETATM   20  C   UNL     1      -8.613  15.243  66.654  1.00  0.00    -0.305 C  
HETATM   21  O   UNL     1      -7.224  13.283  69.668  1.00  0.00    -0.316 OA 
HETATM   22  C   UNL     1     -10.258  12.915  69.316  1.00  0.00     0.384 C  
HETATM   23  H   UNL     1      -7.239  14.230  69.599  1.00  0.00     0.000 HD 
HETATM   24  C   UNL     1     -11.594  13.677  69.292  1.00  0.00    -0.363 C  
HETATM   25  C   UNL     1     -11.402  15.187  69.356  1.00  0.00    -0.307 C  
ENDROOT
BRANCH   5  26
HETATM   26  C   UNL     1      -9.675  11.553  64.054  1.00  0.00    -0.248 C  
BRANCH  26  27
HETATM   27  C   UNL     1     -11.118  11.621  63.563  1.00  0.00    -0.476 C  
HETATM   28  C   UNL     1     -11.577  13.065  63.440  1.00  0.00    -0.399 C  
ENDBRANCH  26  27
ENDBRANCH   5  26
BRANCH   9  29
HETATM   29  C   UNL     1      -9.490   8.414  67.118  1.00  0.00    -0.163 C  
HETATM   30  O   UNL     1      -8.407   7.812  67.190  1.00  0.00    -0.115 OA 
BRANCH  29  31
HETATM   31  C   UNL     1     -10.783   7.645  66.831  1.00  0.00    -0.201 C  
HETATM   32  O   UNL     1     -11.129   6.723  67.855  1.00  0.00    -0.470 OA 
HETATM   33  H   UNL     1     -11.932   6.246  67.676  1.00  0.00     0.000 HD 
ENDBRANCH  29  31
ENDBRANCH   9  29
TORSDOF 4
ENDMDL
MODEL       31
REMARK 921   NORMALIZED FREE ENERGY PREDICTED BY IDOCK:   -5.67 KCAL/MOL
REMARK 922        TOTAL FREE ENERGY PREDICTED BY IDOCK:   -7.26 KCAL/MOL
REMARK 923 INTER-LIGAND FREE ENERGY PREDICTED BY IDOCK:   -6.80 KCAL/MOL
REMARK 924 INTRA-LIGAND FREE ENERGY PREDICTED BY IDOCK:   -0.46 KCAL/MOL
REMARK 927      BINDING AFFINITY PREDICTED BY RF-SCORE:    0.00 PKD
ROOT
HETATM    1  C   UNL     1      -9.809  10.150  69.114  1.00  0.00    -0.225 C  
HETATM    2  C   UNL     1     -10.569   8.982  68.435  1.00  0.00    -0.200 C  
HETATM    3  C   UNL     1      -9.807   8.644  67.169  1.00  0.00    -0.207 C  
HETATM    4  O   UNL     1     -10.151   9.556  66.126  1.00  0.00    -0.284 OA 
HETATM    5  C   UNL     1      -8.930   9.953  65.518  1.00  0.00    -0.174 C  
HETATM    6  O   UNL     1     -12.621  14.859  64.049  1.00  0.00    -0.832 OA 
HETATM    7  O   UNL     1      -7.834   9.434  66.254  1.00  0.00    -0.099 OA 
HETATM    8  C   UNL     1     -10.484  14.169  64.752  1.00  0.00    -0.432 C  
HETATM    9  C   UNL     1      -8.342   8.878  67.486  1.00  0.00    -0.109 C  
HETATM   10  C   UNL     1     -11.926  14.402  64.946  1.00  0.00    -0.426 C  
HETATM   11  C   UNL     1      -8.302   9.857  68.746  1.00  0.00    -0.116 C  
HETATM   12  C   UNL     1     -12.498  14.011  66.252  1.00  0.00    -0.439 C  
HETATM   13  C   UNL     1      -7.723   9.207  70.040  1.00  0.00    -0.088 C  
HETATM   14  C   UNL     1      -9.730  14.935  68.000  1.00  0.00    -0.212 C  
HETATM   15  C   UNL     1     -11.718  13.645  67.285  1.00  0.00    -0.416 C  
HETATM   16  C   UNL     1      -7.398  11.072  68.466  1.00  0.00    -0.101 C  
HETATM   17  C   UNL     1     -10.191  13.681  67.237  1.00  0.00    -0.246 C  
HETATM   18  C   UNL     1      -8.069  12.377  68.052  1.00  0.00    -0.162 C  
HETATM   19  C   UNL     1      -9.590  12.332  67.784  1.00  0.00    -0.200 C  
HETATM   20  C   UNL     1      -9.703  13.848  65.791  1.00  0.00    -0.190 C  
HETATM   21  O   UNL     1      -7.755  13.326  69.076  1.00  0.00    -0.315 OA 
HETATM   22  C   UNL     1     -10.314  11.623  68.937  1.00  0.00    -0.175 C  
HETATM   23  H   UNL     1      -8.172  14.139  68.818  1.00  0.00     0.000 HD 
HETATM   24  C   UNL     1     -11.845  11.714  68.817  1.00  0.00    -0.387 C  
HETATM   25  C   UNL     1     -12.325  13.138  68.567  1.00  0.00     0.134 C  
ENDROOT
BRANCH   5  26
HETATM   26  C   UNL     1      -8.944   9.623  64.037  1.00  0.00    -0.261 C  
BRANCH  26  27
HETATM   27  C   UNL     1      -7.957   8.514  63.682  1.00  0.00    -0.161 C  
HETATM   28  C   UNL     1      -6.921   9.014  62.689  1.00  0.00    -0.092 C  
ENDBRANCH  26  27
ENDBRANCH   5  26
BRANCH   9  29
HETATM   29  C   UNL     1      -7.577   7.554  67.660  1.00  0.00    -0.113 C  
HETATM   30  O   UNL     1      -6.354   7.457  67.473  1.00  0.00    -0.048 OA 
BRANCH  29  31
HETATM   31  C   UNL     1      -8.402   6.317  68.025  1.00  0.00    -0.114 C  
HETATM   32  O   UNL     1      -8.269   5.256  67.089  1.00  0.00    -0.107 OA 
HETATM   33  H   UNL     1      -8.782   4.488  67.315  1.00  0.00     0.000 HD 
ENDBRANCH  29  31
ENDBRANCH   9  29
TORSDOF 4
ENDMDL
MODEL       32
REMARK 921   NORMALIZED FREE ENERGY PREDICTED BY IDOCK:   -5.59 KCAL/MOL
REMARK 922        TOTAL FREE ENERGY PREDICTED BY IDOCK:   -7.16 KCAL/MOL
REMARK 923 INTER-LIGAND FREE ENERGY PREDICTED BY IDOCK:   -6.40 KCAL/MOL
REMARK 924 INTRA-LIGAND FREE ENERGY PREDICTED BY IDOCK:   -0.75 KCAL/MOL
REMARK 927      BINDING AFFINITY PREDICTED BY RF-SCORE:    0.00 PKD
ROOT
HETATM    1  C   UNL     1     -10.595   7.044  68.771  1.00  0.00    -0.235 C  
HETATM    2  C   UNL     1      -9.495   5.962  68.921  1.00  0.00    -0.146 C  
HETATM    3  C   UNL     1      -8.715   6.302  70.175  1.00  0.00    -0.138 C  
HETATM    4  O   UNL     1      -7.758   7.325  69.899  1.00  0.00    -0.098 OA 
HETATM    5  C   UNL     1      -7.861   8.269  70.956  1.00  0.00    -0.096 C  
HETATM    6  O   UNL     1      -5.436  11.884  66.384  1.00  0.00    -0.306 OA 
HETATM    7  O   UNL     1      -8.959   7.939  71.791  1.00  0.00    -0.120 OA 
HETATM    8  C   UNL     1      -6.981  11.755  68.155  1.00  0.00    -0.076 C  
HETATM    9  C   UNL     1      -9.719   6.895  71.145  1.00  0.00    -0.173 C  
HETATM   10  C   UNL     1      -6.492  11.429  66.804  1.00  0.00    -0.140 C  
HETATM   11  C   UNL     1     -10.957   7.392  70.268  1.00  0.00    -0.272 C  
HETATM   12  C   UNL     1      -7.305  10.488  66.006  1.00  0.00    -0.137 C  
HETATM   13  C   UNL     1     -12.277   6.603  70.525  1.00  0.00    -0.209 C  
HETATM   14  C   UNL     1     -10.262  11.684  67.188  1.00  0.00    -0.240 C  
HETATM   15  C   UNL     1      -8.530  10.098  66.403  1.00  0.00    -0.133 C  
HETATM   16  C   UNL     1     -11.297   8.861  70.585  1.00  0.00    -0.299 C  
HETATM   17  C   UNL     1      -9.222  10.648  67.650  1.00  0.00    -0.153 C  
HETATM   18  C   UNL     1     -10.779   9.933  69.632  1.00  0.00    -0.252 C  
HETATM   19  C   UNL     1      -9.815   9.474  68.515  1.00  0.00    -0.172 C  
HETATM   20  C   UNL     1      -8.218  11.405  68.531  1.00  0.00    -0.153 C  
HETATM   21  O   UNL     1     -11.939  10.565  69.082  1.00  0.00    -0.504 OA 
HETATM   22  C   UNL     1     -10.384   8.247  67.789  1.00  0.00    -0.296 C  
HETATM   23  H   UNL     1     -11.617  11.233  68.488  1.00  0.00     0.000 HD 
HETATM   24  C   UNL     1      -9.560   7.860  66.548  1.00  0.00    -0.281 C  
HETATM   25  C   UNL     1      -9.292   9.050  65.635  1.00  0.00    -0.289 C  
ENDROOT
BRANCH   5  26
HETATM   26  C   UNL     1      -6.524   8.427  71.657  1.00  0.00    -0.061 C  
BRANCH  26  27
HETATM   27  C   UNL     1      -6.631   8.204  73.163  1.00  0.00    -0.106 C  
HETATM   28  C   UNL     1      -6.126   6.820  73.538  1.00  0.00    -0.062 C  
ENDBRANCH  26  27
ENDBRANCH   5  26
BRANCH   9  29
HETATM   29  C   UNL     1     -10.070   5.912  72.276  1.00  0.00    -0.182 C  
HETATM   30  O   UNL     1     -10.215   4.694  72.084  1.00  0.00    -0.187 OA 
BRANCH  29  31
HETATM   31  C   UNL     1     -10.296   6.506  73.668  1.00  0.00    -0.304 C  
HETATM   32  O   UNL     1     -11.258   7.553  73.684  1.00  0.00    -0.583 OA 
HETATM   33  H   UNL     1     -11.398   7.922  74.549  1.00  0.00     0.000 HD 
ENDBRANCH  29  31
ENDBRANCH   9  29
TORSDOF 4
ENDMDL
MODEL       33
REMARK 921   NORMALIZED FREE ENERGY PREDICTED BY IDOCK:   -5.55 KCAL/MOL
REMARK 922        TOTAL FREE ENERGY PREDICTED BY IDOCK:   -7.12 KCAL/MOL
REMARK 923 INTER-LIGAND FREE ENERGY PREDICTED BY IDOCK:   -6.18 KCAL/MOL
REMARK 924 INTRA-LIGAND FREE ENERGY PREDICTED BY IDOCK:   -0.93 KCAL/MOL
REMARK 927      BINDING AFFINITY PREDICTED BY RF-SCORE:    0.00 PKD
ROOT
HETATM    1  C   UNL     1     -10.301  11.514  66.307  1.00  0.00    -0.280 C  
HETATM    2  C   UNL     1      -8.988  11.115  65.589  1.00  0.00    -0.195 C  
HETATM    3  C   UNL     1      -7.946  10.905  66.669  1.00  0.00    -0.148 C  
HETATM    4  O   UNL     1      -7.408  12.159  67.087  1.00  0.00    -0.148 OA 
HETATM    5  C   UNL     1      -7.382  12.134  68.508  1.00  0.00    -0.105 C  
HETATM    6  O   UNL     1      -7.536  18.355  67.447  1.00  0.00    -0.216 OA 
HETATM    7  O   UNL     1      -8.032  10.965  68.980  1.00  0.00    -0.136 OA 
HETATM    8  C   UNL     1      -8.335  16.583  68.774  1.00  0.00    -0.248 C  
HETATM    9  C   UNL     1      -8.687  10.330  67.861  1.00  0.00    -0.122 C  
HETATM   10  C   UNL     1      -8.253  17.366  67.528  1.00  0.00    -0.201 C  
HETATM   11  C   UNL     1     -10.225  10.709  67.663  1.00  0.00    -0.229 C  
HETATM   12  C   UNL     1      -9.032  16.873  66.373  1.00  0.00    -0.317 C  
HETATM   13  C   UNL     1     -11.157   9.483  67.420  1.00  0.00     0.063 C  
HETATM   14  C   UNL     1     -11.633  15.809  68.290  1.00  0.00    -0.302 C  
HETATM   15  C   UNL     1      -9.927  15.876  66.497  1.00  0.00    -0.286 C  
HETATM   16  C   UNL     1     -10.785  11.398  68.922  1.00  0.00    -0.248 C  
HETATM   17  C   UNL     1     -10.282  15.229  67.835  1.00  0.00    -0.235 C  
HETATM   18  C   UNL     1     -10.882  12.919  68.917  1.00  0.00    -0.200 C  
HETATM   19  C   UNL     1     -10.257  13.660  67.712  1.00  0.00    -0.242 C  
HETATM   20  C   UNL     1      -9.257  15.621  68.909  1.00  0.00    -0.226 C  
HETATM   21  O   UNL     1     -12.274  13.226  69.043  1.00  0.00    -0.277 OA 
HETATM   22  C   UNL     1     -10.720  13.022  66.395  1.00  0.00    -0.295 C  
HETATM   23  H   UNL     1     -12.335  14.174  69.040  1.00  0.00     0.000 HD 
HETATM   24  C   UNL     1     -10.282  13.831  65.162  1.00  0.00    -0.367 C  
HETATM   25  C   UNL     1     -10.623  15.311  65.287  1.00  0.00    -0.438 C  
ENDROOT
BRANCH   5  26
HETATM   26  C   UNL     1      -5.969  12.353  69.016  1.00  0.00    -0.071 C  
BRANCH  26  27
HETATM   27  C   UNL     1      -5.743  13.784  69.495  1.00  0.00    -0.095 C  
HETATM   28  C   UNL     1      -5.225  14.656  68.363  1.00  0.00    -0.105 C  
ENDBRANCH  26  27
ENDBRANCH   5  26
BRANCH   9  29
HETATM   29  C   UNL     1      -8.400   8.829  68.042  1.00  0.00    -0.119 C  
HETATM   30  O   UNL     1      -8.324   8.041  67.086  1.00  0.00    -0.118 OA 
BRANCH  29  31
HETATM   31  C   UNL     1      -8.265   8.315  69.478  1.00  0.00    -0.119 C  
HETATM   32  O   UNL     1      -9.310   8.757  70.334  1.00  0.00    -0.161 OA 
HETATM   33  H   UNL     1      -9.226   8.438  71.226  1.00  0.00     0.000 HD 
ENDBRANCH  29  31
ENDBRANCH   9  29
TORSDOF 4
ENDMDL
MODEL       34
REMARK 921   NORMALIZED FREE ENERGY PREDICTED BY IDOCK:   -5.53 KCAL/MOL
REMARK 922        TOTAL FREE ENERGY PREDICTED BY IDOCK:   -7.09 KCAL/MOL
REMARK 923 INTER-LIGAND FREE ENERGY PREDICTED BY IDOCK:   -6.40 KCAL/MOL
REMARK 924 INTRA-LIGAND FREE ENERGY PREDICTED BY IDOCK:   -0.70 KCAL/MOL
REMARK 927      BINDING AFFINITY PREDICTED BY RF-SCORE:    0.00 PKD
ROOT
HETATM    1  C   UNL     1      -9.036   5.410  68.571  1.00  0.00    -0.121 C  
HETATM    2  C   UNL     1     -10.092   5.219  67.453  1.00  0.00    -0.228 C  
HETATM    3  C   UNL     1     -10.047   6.467  66.593  1.00  0.00    -0.137 C  
HETATM    4  O   UNL     1     -10.796   7.517  67.206  1.00  0.00    -0.299 OA 
HETATM    5  C   UNL     1      -9.993   8.686  67.123  1.00  0.00    -0.231 C  
HETATM    6  O   UNL     1     -13.655  10.125  72.059  1.00  0.00    -0.358 OA 
HETATM    7  O   UNL     1      -8.710   8.354  66.617  1.00  0.00    -0.122 OA 
HETATM    8  C   UNL     1     -11.484  10.203  71.154  1.00  0.00    -0.387 C  
HETATM    9  C   UNL     1      -8.598   6.915  66.580  1.00  0.00    -0.129 C  
HETATM   10  C   UNL     1     -12.643   9.513  71.748  1.00  0.00    -0.405 C  
HETATM   11  C   UNL     1      -7.906   6.250  67.855  1.00  0.00    -0.103 C  
HETATM   12  C   UNL     1     -12.543   8.046  71.900  1.00  0.00    -0.359 C  
HETATM   13  C   UNL     1      -6.818   5.189  67.508  1.00  0.00    -0.057 C  
HETATM   14  C   UNL     1      -9.230   8.120  72.665  1.00  0.00    -0.332 C  
HETATM   15  C   UNL     1     -11.387   7.389  71.694  1.00  0.00    -0.286 C  
HETATM   16  C   UNL     1      -7.179   7.312  68.700  1.00  0.00    -0.090 C  
HETATM   17  C   UNL     1     -10.068   8.094  71.376  1.00  0.00    -0.248 C  
HETATM   18  C   UNL     1      -7.892   7.848  69.937  1.00  0.00    -0.103 C  
HETATM   19  C   UNL     1      -9.357   7.404  70.152  1.00  0.00    -0.158 C  
HETATM   20  C   UNL     1     -10.321   9.559  70.992  1.00  0.00    -0.353 C  
HETATM   21  O   UNL     1      -7.075   7.483  71.053  1.00  0.00    -0.057 OA 
HETATM   22  C   UNL     1      -9.481   5.882  69.998  1.00  0.00    -0.189 C  
HETATM   23  H   UNL     1      -7.518   7.817  71.824  1.00  0.00     0.000 HD 
HETATM   24  C   UNL     1     -10.876   5.361  70.385  1.00  0.00    -0.208 C  
HETATM   25  C   UNL     1     -11.336   5.885  71.740  1.00  0.00    -0.289 C  
ENDROOT
BRANCH   5  26
HETATM   26  C   UNL     1     -10.731   9.783  66.378  1.00  0.00    -0.013 C  
BRANCH  26  27
HETATM   27  C   UNL     1     -10.022  10.186  65.089  1.00  0.00    -0.379 C  
HETATM   28  C   UNL     1     -10.826  11.234  64.337  1.00  0.00    -0.373 C  
ENDBRANCH  26  27
ENDBRANCH   5  26
BRANCH   9  29
HETATM   29  C   UNL     1      -7.919   6.612  65.233  1.00  0.00    -0.123 C  
HETATM   30  O   UNL     1      -8.244   5.649  64.520  1.00  0.00    -0.125 OA 
BRANCH  29  31
HETATM   31  C   UNL     1      -6.763   7.525  64.816  1.00  0.00    -0.047 C  
HETATM   32  O   UNL     1      -7.157   8.567  63.935  1.00  0.00    -0.088 OA 
HETATM   33  H   UNL     1      -6.439   9.134  63.676  1.00  0.00     0.000 HD 
ENDBRANCH  29  31
ENDBRANCH   9  29
TORSDOF 4
ENDMDL
MODEL       35
REMARK 921   NORMALIZED FREE ENERGY PREDICTED BY IDOCK:   -5.52 KCAL/MOL
REMARK 922        TOTAL FREE ENERGY PREDICTED BY IDOCK:   -7.08 KCAL/MOL
REMARK 923 INTER-LIGAND FREE ENERGY PREDICTED BY IDOCK:   -6.20 KCAL/MOL
REMARK 924 INTRA-LIGAND FREE ENERGY PREDICTED BY IDOCK:   -0.88 KCAL/MOL
REMARK 927      BINDING AFFINITY PREDICTED BY RF-SCORE:    0.00 PKD
ROOT
HETATM    1  C   UNL     1      -9.789   8.753  67.738  1.00  0.00    -0.217 C  
HETATM    2  C   UNL     1      -8.325   8.432  67.343  1.00  0.00    -0.124 C  
HETATM    3  C   UNL     1      -7.444   8.982  68.448  1.00  0.00    -0.082 C  
HETATM    4  O   UNL     1      -7.249  10.385  68.271  1.00  0.00    -0.080 OA 
HETATM    5  C   UNL     1      -7.442  10.982  69.547  1.00  0.00    -0.026 C  
HETATM    6  O   UNL     1      -8.709  15.870  65.757  1.00  0.00    -0.192 OA 
HETATM    7  O   UNL     1      -7.902  10.008  70.469  1.00  0.00    -0.247 OA 
HETATM    8  C   UNL     1      -9.322  14.704  67.708  1.00  0.00    -0.197 C  
HETATM    9  C   UNL     1      -8.228   8.809  69.734  1.00  0.00    -0.117 C  
HETATM   10  C   UNL     1      -9.210  14.867  66.248  1.00  0.00    -0.265 C  
HETATM   11  C   UNL     1      -9.761   8.660  69.314  1.00  0.00    -0.173 C  
HETATM   12  C   UNL     1      -9.679  13.743  65.410  1.00  0.00    -0.073 C  
HETATM   13  C   UNL     1     -10.370   7.256  69.614  1.00  0.00    -0.227 C  
HETATM   14  C   UNL     1     -12.272  12.985  67.478  1.00  0.00    -0.127 C  
HETATM   15  C   UNL     1     -10.357  12.705  65.933  1.00  0.00    -0.295 C  
HETATM   16  C   UNL     1     -10.641   9.656  70.092  1.00  0.00    -0.320 C  
HETATM   17  C   UNL     1     -10.776  12.632  67.401  1.00  0.00    -0.251 C  
HETATM   18  C   UNL     1     -11.049  10.946  69.389  1.00  0.00    -0.260 C  
HETATM   19  C   UNL     1     -10.409  11.227  68.010  1.00  0.00    -0.204 C  
HETATM   20  C   UNL     1     -10.036  13.696  68.224  1.00  0.00    -0.236 C  
HETATM   21  O   UNL     1     -12.476  10.911  69.296  1.00  0.00    -0.617 OA 
HETATM   22  C   UNL     1     -10.518   9.989  67.109  1.00  0.00    -0.305 C  
HETATM   23  H   UNL     1     -12.730  11.715  68.858  1.00  0.00     0.000 HD 
HETATM   24  C   UNL     1     -10.069  10.269  65.664  1.00  0.00    -0.341 C  
HETATM   25  C   UNL     1     -10.723  11.517  65.084  1.00  0.00    -0.348 C  
ENDROOT
BRANCH   5  26
HETATM   26  C   UNL     1      -6.202  11.752  69.964  1.00  0.00    -0.136 C  
BRANCH  26  27
HETATM   27  C   UNL     1      -6.339  13.250  69.711  1.00  0.00    -0.073 C  
HETATM   28  C   UNL     1      -5.771  13.621  68.351  1.00  0.00    -0.099 C  
ENDBRANCH  26  27
ENDBRANCH   5  26
BRANCH   9  29
HETATM   29  C   UNL     1      -7.669   7.661  70.594  1.00  0.00    -0.088 C  
HETATM   30  O   UNL     1      -7.295   6.582  70.108  1.00  0.00    -0.084 OA 
BRANCH  29  31
HETATM   31  C   UNL     1      -7.643   7.877  72.109  1.00  0.00    -0.089 C  
HETATM   32  O   UNL     1      -8.771   8.592  72.596  1.00  0.00    -0.305 OA 
HETATM   33  H   UNL     1      -8.754   8.726  73.537  1.00  0.00     0.000 HD 
ENDBRANCH  29  31
ENDBRANCH   9  29
TORSDOF 4
ENDMDL
MODEL       36
REMARK 921   NORMALIZED FREE ENERGY PREDICTED BY IDOCK:   -5.47 KCAL/MOL
REMARK 922        TOTAL FREE ENERGY PREDICTED BY IDOCK:   -7.02 KCAL/MOL
REMARK 923 INTER-LIGAND FREE ENERGY PREDICTED BY IDOCK:   -6.06 KCAL/MOL
REMARK 924 INTRA-LIGAND FREE ENERGY PREDICTED BY IDOCK:   -0.95 KCAL/MOL
REMARK 927      BINDING AFFINITY PREDICTED BY RF-SCORE:    0.00 PKD
ROOT
HETATM    1  C   UNL     1      -8.153  10.295  68.228  1.00  0.00    -0.107 C  
HETATM    2  C   UNL     1      -6.780   9.655  67.906  1.00  0.00    -0.066 C  
HETATM    3  C   UNL     1      -7.022   8.627  66.819  1.00  0.00    -0.077 C  
HETATM    4  O   UNL     1      -7.522   7.416  67.386  1.00  0.00    -0.098 OA 
HETATM    5  C   UNL     1      -8.614   7.010  66.572  1.00  0.00    -0.129 C  
HETATM    6  O   UNL     1     -10.074   4.150  72.007  1.00  0.00    -0.175 OA 
HETATM    7  O   UNL     1      -8.899   8.016  65.613  1.00  0.00    -0.156 OA 
HETATM    8  C   UNL     1     -10.890   5.353  70.156  1.00  0.00    -0.215 C  
HETATM    9  C   UNL     1      -8.129   9.190  65.948  1.00  0.00    -0.111 C  
HETATM   10  C   UNL     1     -10.151   5.223  71.424  1.00  0.00    -0.203 C  
HETATM   11  C   UNL     1      -8.891  10.279  66.832  1.00  0.00    -0.141 C  
HETATM   12  C   UNL     1      -9.466   6.432  71.928  1.00  0.00    -0.157 C  
HETATM   13  C   UNL     1      -8.738  11.741  66.314  1.00  0.00    -0.106 C  
HETATM   14  C   UNL     1     -11.913   8.541  70.862  1.00  0.00    -0.204 C  
HETATM   15  C   UNL     1      -9.663   7.641  71.371  1.00  0.00    -0.183 C  
HETATM   16  C   UNL     1     -10.408  10.010  66.843  1.00  0.00    -0.297 C  
HETATM   17  C   UNL     1     -10.663   7.891  70.243  1.00  0.00    -0.236 C  
HETATM   18  C   UNL     1     -10.995   9.288  68.050  1.00  0.00    -0.015 C  
HETATM   19  C   UNL     1      -9.996   8.734  69.092  1.00  0.00    -0.193 C  
HETATM   20  C   UNL     1     -11.124   6.561  69.629  1.00  0.00    -0.435 C  
HETATM   21  O   UNL     1     -11.910  10.206  68.654  1.00  0.00    -0.616 OA 
HETATM   22  C   UNL     1      -8.972   9.811  69.474  1.00  0.00    -0.215 C  
HETATM   23  H   UNL     1     -12.276   9.756  69.406  1.00  0.00     0.000 HD 
HETATM   24  C   UNL     1      -8.069   9.379  70.643  1.00  0.00    -0.197 C  
HETATM   25  C   UNL     1      -8.867   8.836  71.823  1.00  0.00    -0.256 C  
ENDROOT
BRANCH   5  26
HETATM   26  C   UNL     1      -8.372   5.619  66.017  1.00  0.00    -0.124 C  
BRANCH  26  27
HETATM   27  C   UNL     1      -9.347   4.592  66.586  1.00  0.00    -0.156 C  
HETATM   28  C   UNL     1     -10.784   5.041  66.379  1.00  0.00    -0.242 C  
ENDBRANCH  26  27
ENDBRANCH   5  26
BRANCH   9  29
HETATM   29  C   UNL     1      -7.591   9.701  64.600  1.00  0.00    -0.126 C  
HETATM   30  O   UNL     1      -6.530  10.337  64.499  1.00  0.00    -0.129 OA 
BRANCH  29  31
HETATM   31  C   UNL     1      -8.457   9.443  63.364  1.00  0.00    -0.202 C  
HETATM   32  O   UNL     1      -9.793   9.906  63.505  1.00  0.00    -0.495 OA 
HETATM   33  H   UNL     1     -10.330   9.746  62.738  1.00  0.00     0.000 HD 
ENDBRANCH  29  31
ENDBRANCH   9  29
TORSDOF 4
ENDMDL
MODEL       37
REMARK 921   NORMALIZED FREE ENERGY PREDICTED BY IDOCK:   -5.45 KCAL/MOL
REMARK 922        TOTAL FREE ENERGY PREDICTED BY IDOCK:   -6.99 KCAL/MOL
REMARK 923 INTER-LIGAND FREE ENERGY PREDICTED BY IDOCK:   -6.89 KCAL/MOL
REMARK 924 INTRA-LIGAND FREE ENERGY PREDICTED BY IDOCK:   -0.10 KCAL/MOL
REMARK 927      BINDING AFFINITY PREDICTED BY RF-SCORE:    0.00 PKD
ROOT
HETATM    1  C   UNL     1      -9.054  14.330  66.023  1.00  0.00     0.096 C  
HETATM    2  C   UNL     1      -8.548  13.486  67.220  1.00  0.00    -0.218 C  
HETATM    3  C   UNL     1      -9.730  13.299  68.151  1.00  0.00    -0.227 C  
HETATM    4  O   UNL     1      -9.907  14.459  68.964  1.00  0.00    -0.193 OA 
HETATM    5  C   UNL     1     -11.296  14.757  68.944  1.00  0.00    -0.282 C  
HETATM    6  O   UNL     1      -8.899  20.432  70.321  1.00  0.00     1.042 OA 
HETATM    7  O   UNL     1     -11.957  13.909  68.019  1.00  0.00    -0.361 OA 
HETATM    8  C   UNL     1     -10.510  19.244  69.083  1.00  0.00     0.188 C  
HETATM    9  C   UNL     1     -10.954  13.199  67.261  1.00  0.00    -0.268 C  
HETATM   10  C   UNL     1      -9.135  19.680  69.385  1.00  0.00     0.160 C  
HETATM   11  C   UNL     1     -10.554  13.863  65.866  1.00  0.00    -0.293 C  
HETATM   12  C   UNL     1      -8.055  19.124  68.542  1.00  0.00    -0.394 C  
HETATM   13  C   UNL     1     -10.509  12.860  64.673  1.00  0.00    -0.385 C  
HETATM   14  C   UNL     1      -9.940  19.153  65.711  1.00  0.00    -0.081 C  
HETATM   15  C   UNL     1      -8.320  18.414  67.430  1.00  0.00    -0.256 C  
HETATM   16  C   UNL     1     -11.583  14.933  65.454  1.00  0.00    -0.280 C  
HETATM   17  C   UNL     1      -9.733  18.192  66.894  1.00  0.00    -0.318 C  
HETATM   18  C   UNL     1     -11.239  16.393  65.726  1.00  0.00     0.249 C  
HETATM   19  C   UNL     1      -9.957  16.673  66.543  1.00  0.00    -0.296 C  
HETATM   20  C   UNL     1     -10.776  18.577  67.953  1.00  0.00    -0.337 C  
HETATM   21  O   UNL     1     -11.181  17.030  64.446  1.00  0.00    -1.167 OA 
HETATM   22  C   UNL     1      -8.777  15.872  65.977  1.00  0.00    -0.223 C  
HETATM   23  H   UNL     1     -10.968  17.940  64.615  1.00  0.00     0.000 HD 
HETATM   24  C   UNL     1      -7.437  16.253  66.630  1.00  0.00    -0.238 C  
HETATM   25  C   UNL     1      -7.209  17.759  66.653  1.00  0.00    -0.256 C  
ENDROOT
BRANCH   5  26
HETATM   26  C   UNL     1     -11.858  14.759  70.354  1.00  0.00    -0.352 C  
BRANCH  26  27
HETATM   27  C   UNL     1     -11.473  16.018  71.127  1.00  0.00    -0.470 C  
HETATM   28  C   UNL     1     -12.006  15.959  72.550  1.00  0.00    -0.622 C  
ENDBRANCH  26  27
ENDBRANCH   5  26
BRANCH   9  29
HETATM   29  C   UNL     1     -11.480  11.756  67.174  1.00  0.00    -0.295 C  
HETATM   30  O   UNL     1     -12.033  11.305  66.158  1.00  0.00     0.028 OA 
BRANCH  29  31
HETATM   31  C   UNL     1     -11.347  10.890  68.429  1.00  0.00    -0.304 C  
HETATM   32  O   UNL     1     -12.467  10.984  69.299  1.00  0.00    -0.537 OA 
HETATM   33  H   UNL     1     -12.385  10.447  70.078  1.00  0.00     0.000 HD 
ENDBRANCH  29  31
ENDBRANCH   9  29
TORSDOF 4
ENDMDL
MODEL       38
REMARK 921   NORMALIZED FREE ENERGY PREDICTED BY IDOCK:   -5.45 KCAL/MOL
REMARK 922        TOTAL FREE ENERGY PREDICTED BY IDOCK:   -6.99 KCAL/MOL
REMARK 923 INTER-LIGAND FREE ENERGY PREDICTED BY IDOCK:   -6.49 KCAL/MOL
REMARK 924 INTRA-LIGAND FREE ENERGY PREDICTED BY IDOCK:   -0.50 KCAL/MOL
REMARK 927      BINDING AFFINITY PREDICTED BY RF-SCORE:    0.00 PKD
ROOT
HETATM    1  C   UNL     1      -8.371  10.513  68.454  1.00  0.00    -0.126 C  
HETATM    2  C   UNL     1      -7.280   9.721  67.690  1.00  0.00    -0.089 C  
HETATM    3  C   UNL     1      -8.001   8.842  66.687  1.00  0.00    -0.103 C  
HETATM    4  O   UNL     1      -8.494   7.665  67.326  1.00  0.00    -0.120 OA 
HETATM    5  C   UNL     1      -9.831   7.492  66.876  1.00  0.00    -0.226 C  
HETATM    6  O   UNL     1     -10.024   4.368  72.358  1.00  0.00    -0.159 OA 
HETATM    7  O   UNL     1     -10.226   8.612  66.101  1.00  0.00    -0.210 OA 
HETATM    8  C   UNL     1     -11.156   5.839  70.912  1.00  0.00    -0.267 C  
HETATM    9  C   UNL     1      -9.212   9.632  66.232  1.00  0.00    -0.168 C  
HETATM   10  C   UNL     1     -10.100   5.491  71.878  1.00  0.00    -0.189 C  
HETATM   11  C   UNL     1      -9.488  10.729  67.359  1.00  0.00    -0.171 C  
HETATM   12  C   UNL     1      -9.110   6.541  72.197  1.00  0.00    -0.139 C  
HETATM   13  C   UNL     1      -9.266  12.197  66.886  1.00  0.00    -0.203 C  
HETATM   14  C   UNL     1     -11.393   9.059  72.046  1.00  0.00    -0.395 C  
HETATM   15  C   UNL     1      -9.269   7.812  71.786  1.00  0.00    -0.177 C  
HETATM   16  C   UNL     1     -10.953  10.674  67.830  1.00  0.00    -0.351 C  
HETATM   17  C   UNL     1     -10.509   8.302  71.039  1.00  0.00    -0.241 C  
HETATM   18  C   UNL     1     -11.257   9.930  69.126  1.00  0.00    -0.107 C  
HETATM   19  C   UNL     1     -10.093   9.148  69.777  1.00  0.00    -0.211 C  
HETATM   20  C   UNL     1     -11.340   7.112  70.539  1.00  0.00    -0.333 C  
HETATM   21  O   UNL     1     -11.788  10.906  70.027  1.00  0.00    -0.284 OA 
HETATM   22  C   UNL     1      -8.843  10.032  69.870  1.00  0.00    -0.177 C  
HETATM   23  H   UNL     1     -11.978  10.443  70.834  1.00  0.00     0.000 HD 
HETATM   24  C   UNL     1      -7.712   9.373  70.678  1.00  0.00    -0.172 C  
HETATM   25  C   UNL     1      -8.193   8.838  72.021  1.00  0.00    -0.079 C  
ENDROOT
BRANCH   5  26
HETATM   26  C   UNL     1      -9.994   6.138  66.210  1.00  0.00    -0.058 C  
BRANCH  26  27
HETATM   27  C   UNL     1      -8.928   5.142  66.657  1.00  0.00    -0.115 C  
HETATM   28  C   UNL     1      -9.521   4.107  67.599  1.00  0.00    -0.225 C  
ENDBRANCH  26  27
ENDBRANCH   5  26
BRANCH   9  29
HETATM   29  C   UNL     1      -9.031  10.187  64.808  1.00  0.00    -0.203 C  
HETATM   30  O   UNL     1      -7.923  10.261  64.254  1.00  0.00    -0.160 OA 
BRANCH  29  31
HETATM   31  C   UNL     1     -10.284  10.710  64.102  1.00  0.00    -0.295 C  
HETATM   32  O   UNL     1     -10.262  10.512  62.695  1.00  0.00    -0.736 OA 
HETATM   33  H   UNL     1     -11.040  10.837  62.256  1.00  0.00     0.000 HD 
ENDBRANCH  29  31
ENDBRANCH   9  29
TORSDOF 4
ENDMDL
MODEL       39
REMARK 921   NORMALIZED FREE ENERGY PREDICTED BY IDOCK:   -5.41 KCAL/MOL
REMARK 922        TOTAL FREE ENERGY PREDICTED BY IDOCK:   -6.94 KCAL/MOL
REMARK 923 INTER-LIGAND FREE ENERGY PREDICTED BY IDOCK:   -6.61 KCAL/MOL
REMARK 924 INTRA-LIGAND FREE ENERGY PREDICTED BY IDOCK:   -0.33 KCAL/MOL
REMARK 927      BINDING AFFINITY PREDICTED BY RF-SCORE:    0.00 PKD
ROOT
HETATM    1  C   UNL     1     -10.006   7.643  69.553  1.00  0.00    -0.182 C  
HETATM    2  C   UNL     1     -11.064   6.537  69.310  1.00  0.00    -0.393 C  
HETATM    3  C   UNL     1     -11.649   6.188  70.664  1.00  0.00    -0.185 C  
HETATM    4  O   UNL     1     -10.783   5.292  71.361  1.00  0.00    -0.211 OA 
HETATM    5  C   UNL     1     -10.679   5.785  72.690  1.00  0.00    -0.240 C  
HETATM    6  O   UNL     1      -5.311   2.495  72.233  1.00  0.00     0.000 OA 
HETATM    7  O   UNL     1     -11.330   7.041  72.790  1.00  0.00    -0.268 OA 
HETATM    8  C   UNL     1      -6.329   4.466  73.020  1.00  0.00    -0.036 C  
HETATM    9  C   UNL     1     -11.670   7.480  71.457  1.00  0.00    -0.280 C  
HETATM   10  C   UNL     1      -5.811   3.579  71.963  1.00  0.00    -0.009 C  
HETATM   11  C   UNL     1     -10.610   8.453  70.766  1.00  0.00    -0.240 C  
HETATM   12  C   UNL     1      -5.971   4.035  70.567  1.00  0.00    -0.018 C  
HETATM   13  C   UNL     1     -11.243   9.710  70.095  1.00  0.00    -0.302 C  
HETATM   14  C   UNL     1      -5.438   7.306  71.332  1.00  0.00    -0.035 C  
HETATM   15  C   UNL     1      -6.387   5.280  70.271  1.00  0.00    -0.030 C  
HETATM   16  C   UNL     1      -9.617   9.007  71.805  1.00  0.00    -0.278 C  
HETATM   17  C   UNL     1      -6.645   6.351  71.331  1.00  0.00    -0.054 C  
HETATM   18  C   UNL     1      -8.250   8.340  71.908  1.00  0.00    -0.149 C  
HETATM   19  C   UNL     1      -8.030   7.055  71.078  1.00  0.00    -0.101 C  
HETATM   20  C   UNL     1      -6.700   5.720  72.730  1.00  0.00    -0.073 C  
HETATM   21  O   UNL     1      -7.292   9.345  71.563  1.00  0.00    -0.334 OA 
HETATM   22  C   UNL     1      -8.485   7.271  69.629  1.00  0.00    -0.133 C  
HETATM   23  H   UNL     1      -6.441   8.930  71.628  1.00  0.00     0.000 HD 
HETATM   24  C   UNL     1      -8.118   6.092  68.711  1.00  0.00    -0.105 C  
HETATM   25  C   UNL     1      -6.656   5.685  68.846  1.00  0.00    -0.048 C  
ENDROOT
BRANCH   5  26
HETATM   26  C   UNL     1     -11.129   4.729  73.683  1.00  0.00    -0.380 C  
BRANCH  26  27
HETATM   27  C   UNL     1     -10.643   3.333  73.301  1.00  0.00    -0.275 C  
HETATM   28  C   UNL     1     -10.117   2.595  74.521  1.00  0.00    -0.175 C  
ENDBRANCH  26  27
ENDBRANCH   5  26
BRANCH   9  29
HETATM   29  C   UNL     1     -13.095   8.048  71.586  1.00  0.00    -0.329 C  
HETATM   30  O   UNL     1     -14.061   7.582  70.961  1.00  0.00    -0.259 OA 
BRANCH  29  31
HETATM   31  C   UNL     1     -13.276   9.272  72.487  1.00  0.00    -0.366 C  
HETATM   32  O   UNL     1     -14.218   9.069  73.531  1.00  0.00    -1.121 OA 
HETATM   33  H   UNL     1     -14.331   9.829  74.090  1.00  0.00     0.000 HD 
ENDBRANCH  29  31
ENDBRANCH   9  29
TORSDOF 4
ENDMDL
MODEL       40
REMARK 921   NORMALIZED FREE ENERGY PREDICTED BY IDOCK:   -5.39 KCAL/MOL
REMARK 922        TOTAL FREE ENERGY PREDICTED BY IDOCK:   -6.92 KCAL/MOL
REMARK 923 INTER-LIGAND FREE ENERGY PREDICTED BY IDOCK:   -6.09 KCAL/MOL
REMARK 924 INTRA-LIGAND FREE ENERGY PREDICTED BY IDOCK:   -0.82 KCAL/MOL
REMARK 927      BINDING AFFINITY PREDICTED BY RF-SCORE:    0.00 PKD
ROOT
HETATM    1  C   UNL     1      -7.010   7.660  68.488  1.00  0.00    -0.072 C  
HETATM    2  C   UNL     1      -6.463   8.032  69.890  1.00  0.00    -0.036 C  
HETATM    3  C   UNL     1      -7.578   7.760  70.880  1.00  0.00    -0.079 C  
HETATM    4  O   UNL     1      -8.507   8.844  70.888  1.00  0.00    -0.152 OA 
HETATM    5  C   UNL     1      -9.803   8.263  70.850  1.00  0.00    -0.182 C  
HETATM    6  O   UNL     1     -11.001  13.970  68.430  1.00  0.00    -0.237 OA 
HETATM    7  O   UNL     1      -9.698   6.861  70.663  1.00  0.00    -0.175 OA 
HETATM    8  C   UNL     1     -11.436  11.661  68.289  1.00  0.00    -0.369 C  
HETATM    9  C   UNL     1      -8.323   6.550  70.350  1.00  0.00    -0.127 C  
HETATM   10  C   UNL     1     -10.589  12.856  68.133  1.00  0.00    -0.237 C  
HETATM   11  C   UNL     1      -7.981   6.453  68.794  1.00  0.00    -0.110 C  
HETATM   12  C   UNL     1      -9.208  12.641  67.653  1.00  0.00    -0.191 C  
HETATM   13  C   UNL     1      -7.147   5.196  68.402  1.00  0.00    -0.062 C  
HETATM   14  C   UNL     1     -10.088  10.117  65.549  1.00  0.00    -0.338 C  
HETATM   15  C   UNL     1      -8.797  11.446  67.192  1.00  0.00    -0.156 C  
HETATM   16  C   UNL     1      -9.270   6.360  67.955  1.00  0.00    -0.110 C  
HETATM   17  C   UNL     1      -9.725  10.242  67.040  1.00  0.00    -0.217 C  
HETATM   18  C   UNL     1      -9.784   7.634  67.295  1.00  0.00    -0.169 C  
HETATM   19  C   UNL     1      -9.063   8.953  67.656  1.00  0.00    -0.144 C  
HETATM   20  C   UNL     1     -11.044  10.482  67.788  1.00  0.00    -0.382 C  
HETATM   21  O   UNL     1      -9.741   7.394  65.885  1.00  0.00    -0.411 OA 
HETATM   22  C   UNL     1      -7.543   8.782  67.532  1.00  0.00    -0.093 C  
HETATM   23  H   UNL     1     -10.061   8.188  65.474  1.00  0.00     0.000 HD 
HETATM   24  C   UNL     1      -6.784  10.110  67.696  1.00  0.00    -0.075 C  
HETATM   25  C   UNL     1      -7.356  11.218  66.820  1.00  0.00    -0.146 C  
ENDROOT
BRANCH   5  26
HETATM   26  C   UNL     1     -10.617   8.709  72.052  1.00  0.00    -0.421 C  
BRANCH  26  27
HETATM   27  C   UNL     1     -12.119   8.637  71.791  1.00  0.00    -0.403 C  
HETATM   28  C   UNL     1     -12.665  10.005  71.415  1.00  0.00    -0.518 C  
ENDBRANCH  26  27
ENDBRANCH   5  26
BRANCH   9  29
HETATM   29  C   UNL     1      -8.014   5.285  71.169  1.00  0.00    -0.108 C  
HETATM   30  O   UNL     1      -6.872   5.009  71.570  1.00  0.00    -0.044 OA 
BRANCH  29  31
HETATM   31  C   UNL     1      -9.177   4.325  71.430  1.00  0.00    -0.134 C  
HETATM   32  O   UNL     1      -9.780   3.834  70.241  1.00  0.00    -0.194 OA 
HETATM   33  H   UNL     1     -10.503   3.238  70.404  1.00  0.00     0.000 HD 
ENDBRANCH  29  31
ENDBRANCH   9  29
TORSDOF 4
ENDMDL
MODEL       41
REMARK 921   NORMALIZED FREE ENERGY PREDICTED BY IDOCK:   -5.34 KCAL/MOL
REMARK 922        TOTAL FREE ENERGY PREDICTED BY IDOCK:   -6.86 KCAL/MOL
REMARK 923 INTER-LIGAND FREE ENERGY PREDICTED BY IDOCK:   -5.89 KCAL/MOL
REMARK 924 INTRA-LIGAND FREE ENERGY PREDICTED BY IDOCK:   -0.97 KCAL/MOL
REMARK 927      BINDING AFFINITY PREDICTED BY RF-SCORE:    0.00 PKD
ROOT
HETATM    1  C   UNL     1      -9.800  10.066  67.666  1.00  0.00    -0.194 C  
HETATM    2  C   UNL     1      -8.659  11.032  68.076  1.00  0.00    -0.134 C  
HETATM    3  C   UNL     1      -7.372  10.233  68.025  1.00  0.00    -0.086 C  
HETATM    4  O   UNL     1      -7.225   9.456  69.214  1.00  0.00    -0.062 OA 
HETATM    5  C   UNL     1      -6.831   8.155  68.799  1.00  0.00    -0.066 C  
HETATM    6  O   UNL     1      -9.441   6.862  74.399  1.00  0.00    -0.228 OA 
HETATM    7  O   UNL     1      -6.882   8.065  67.384  1.00  0.00    -0.067 OA 
HETATM    8  C   UNL     1      -9.195   6.183  72.159  1.00  0.00    -0.142 C  
HETATM    9  C   UNL     1      -7.532   9.252  66.880  1.00  0.00    -0.091 C  
HETATM   10  C   UNL     1      -9.716   7.060  73.223  1.00  0.00    -0.198 C  
HETATM   11  C   UNL     1      -9.100   9.114  66.618  1.00  0.00    -0.182 C  
HETATM   12  C   UNL     1     -10.536   8.213  72.799  1.00  0.00    -0.386 C  
HETATM   13  C   UNL     1      -9.567   9.672  65.239  1.00  0.00    -0.347 C  
HETATM   14  C   UNL     1     -12.012   6.518  70.247  1.00  0.00    -0.252 C  
HETATM   15  C   UNL     1     -10.958   8.354  71.529  1.00  0.00    -0.326 C  
HETATM   16  C   UNL     1      -9.527   7.634  66.619  1.00  0.00    -0.255 C  
HETATM   17  C   UNL     1     -10.707   7.310  70.443  1.00  0.00    -0.253 C  
HETATM   18  C   UNL     1     -10.155   7.076  67.892  1.00  0.00    -0.169 C  
HETATM   19  C   UNL     1     -10.161   7.995  69.134  1.00  0.00    -0.221 C  
HETATM   20  C   UNL     1      -9.651   6.296  70.905  1.00  0.00    -0.192 C  
HETATM   21  O   UNL     1     -11.484   6.682  67.537  1.00  0.00    -0.721 OA 
HETATM   22  C   UNL     1     -10.687   9.388  68.765  1.00  0.00    -0.200 C  
HETATM   23  H   UNL     1     -11.875   6.334  68.329  1.00  0.00     0.000 HD 
HETATM   24  C   UNL     1     -10.893  10.287  69.996  1.00  0.00    -0.364 C  
HETATM   25  C   UNL     1     -11.692   9.595  71.094  1.00  0.00    -0.450 C  
ENDROOT
BRANCH   5  26
HETATM   26  C   UNL     1      -5.508   7.774  69.436  1.00  0.00    -0.023 C  
BRANCH  26  27
HETATM   27  C   UNL     1      -5.669   6.694  70.502  1.00  0.00    -0.023 C  
HETATM   28  C   UNL     1      -6.223   5.416  69.893  1.00  0.00    -0.026 C  
ENDBRANCH  26  27
ENDBRANCH   5  26
BRANCH   9  29
HETATM   29  C   UNL     1      -6.696   9.663  65.654  1.00  0.00    -0.086 C  
HETATM   30  O   UNL     1      -6.603  10.840  65.271  1.00  0.00    -0.046 OA 
BRANCH  29  31
HETATM   31  C   UNL     1      -6.014   8.539  64.871  1.00  0.00    -0.052 C  
HETATM   32  O   UNL     1      -6.915   7.536  64.424  1.00  0.00    -0.053 OA 
HETATM   33  H   UNL     1      -6.491   6.838  63.938  1.00  0.00     0.000 HD 
ENDBRANCH  29  31
ENDBRANCH   9  29
TORSDOF 4
ENDMDL
MODEL       42
REMARK 921   NORMALIZED FREE ENERGY PREDICTED BY IDOCK:   -5.21 KCAL/MOL
REMARK 922        TOTAL FREE ENERGY PREDICTED BY IDOCK:   -6.69 KCAL/MOL
REMARK 923 INTER-LIGAND FREE ENERGY PREDICTED BY IDOCK:   -6.02 KCAL/MOL
REMARK 924 INTRA-LIGAND FREE ENERGY PREDICTED BY IDOCK:   -0.67 KCAL/MOL
REMARK 927      BINDING AFFINITY PREDICTED BY RF-SCORE:    0.00 PKD
ROOT
HETATM    1  C   UNL     1      -8.123   6.080  70.544  1.00  0.00    -0.112 C  
HETATM    2  C   UNL     1      -7.936   6.705  71.950  1.00  0.00    -0.102 C  
HETATM    3  C   UNL     1      -9.321   6.868  72.543  1.00  0.00    -0.139 C  
HETATM    4  O   UNL     1      -9.940   8.049  72.034  1.00  0.00    -0.183 OA 
HETATM    5  C   UNL     1     -11.267   7.686  71.677  1.00  0.00    -0.247 C  
HETATM    6  O   UNL     1     -10.382  12.709  67.956  1.00  0.00    -0.215 OA 
HETATM    7  O   UNL     1     -11.434   6.284  71.806  1.00  0.00    -0.280 OA 
HETATM    8  C   UNL     1     -11.271  10.536  68.120  1.00  0.00    -0.357 C  
HETATM    9  C   UNL     1     -10.136   5.695  72.036  1.00  0.00    -0.185 C  
HETATM   10  C   UNL     1     -10.166  11.506  68.031  1.00  0.00    -0.191 C  
HETATM   11  C   UNL     1      -9.390   5.155  70.731  1.00  0.00    -0.210 C  
HETATM   12  C   UNL     1      -8.792  10.965  68.091  1.00  0.00    -0.137 C  
HETATM   13  C   UNL     1      -8.786   3.726  70.888  1.00  0.00    -0.135 C  
HETATM   14  C   UNL     1      -9.576   8.159  66.335  1.00  0.00    -0.286 C  
HETATM   15  C   UNL     1      -8.548   9.644  68.030  1.00  0.00    -0.119 C  
HETATM   16  C   UNL     1     -10.366   5.053  69.545  1.00  0.00    -0.231 C  
HETATM   17  C   UNL     1      -9.642   8.599  67.808  1.00  0.00    -0.178 C  
HETATM   18  C   UNL     1     -10.363   6.183  68.521  1.00  0.00    -0.207 C  
HETATM   19  C   UNL     1      -9.497   7.422  68.844  1.00  0.00    -0.144 C  
HETATM   20  C   UNL     1     -11.030   9.223  68.013  1.00  0.00    -0.076 C  
HETATM   21  O   UNL     1      -9.970   5.590  67.280  1.00  0.00    -0.138 OA 
HETATM   22  C   UNL     1      -8.087   6.991  69.269  1.00  0.00    -0.120 C  
HETATM   23  H   UNL     1      -9.968   6.294  66.642  1.00  0.00     0.000 HD 
HETATM   24  C   UNL     1      -7.127   8.183  69.421  1.00  0.00    -0.055 C  
HETATM   25  C   UNL     1      -7.153   9.109  68.211  1.00  0.00    -0.077 C  
ENDROOT
BRANCH   5  26
HETATM   26  C   UNL     1     -12.270   8.542  72.429  1.00  0.00    -0.432 C  
BRANCH  26  27
HETATM   27  C   UNL     1     -13.225   9.274  71.490  1.00  0.00    -0.433 C  
HETATM   28  C   UNL     1     -12.782  10.714  71.290  1.00  0.00    -0.537 C  
ENDBRANCH  26  27
ENDBRANCH   5  26
BRANCH   9  29
HETATM   29  C   UNL     1     -10.373   4.645  73.136  1.00  0.00    -0.180 C  
HETATM   30  O   UNL     1     -11.240   3.761  73.043  1.00  0.00    -0.093 OA 
BRANCH  29  31
HETATM   31  C   UNL     1      -9.524   4.764  74.404  1.00  0.00    -0.126 C  
HETATM   32  O   UNL     1      -8.367   3.940  74.388  1.00  0.00    -0.088 OA 
HETATM   33  H   UNL     1      -7.841   4.014  75.175  1.00  0.00     0.000 HD 
ENDBRANCH  29  31
ENDBRANCH   9  29
TORSDOF 4
ENDMDL
MODEL       43
REMARK 921   NORMALIZED FREE ENERGY PREDICTED BY IDOCK:   -5.20 KCAL/MOL
REMARK 922        TOTAL FREE ENERGY PREDICTED BY IDOCK:   -6.68 KCAL/MOL
REMARK 923 INTER-LIGAND FREE ENERGY PREDICTED BY IDOCK:   -5.82 KCAL/MOL
REMARK 924 INTRA-LIGAND FREE ENERGY PREDICTED BY IDOCK:   -0.86 KCAL/MOL
REMARK 927      BINDING AFFINITY PREDICTED BY RF-SCORE:    0.00 PKD
ROOT
HETATM    1  C   UNL     1      -7.273  10.702  66.499  1.00  0.00    -0.134 C  
HETATM    2  C   UNL     1      -6.346  10.546  67.732  1.00  0.00    -0.059 C  
HETATM    3  C   UNL     1      -6.856   9.352  68.513  1.00  0.00    -0.062 C  
HETATM    4  O   UNL     1      -7.971   9.729  69.322  1.00  0.00    -0.093 OA 
HETATM    5  C   UNL     1      -8.958   8.722  69.143  1.00  0.00    -0.137 C  
HETATM    6  O   UNL     1     -12.560  13.599  70.903  1.00  0.00    -0.341 OA 
HETATM    7  O   UNL     1      -8.546   7.819  68.130  1.00  0.00    -0.123 OA 
HETATM    8  C   UNL     1     -12.349  11.751  69.461  1.00  0.00    -0.120 C  
HETATM    9  C   UNL     1      -7.378   8.369  67.483  1.00  0.00    -0.093 C  
HETATM   10  C   UNL     1     -12.004  13.104  69.932  1.00  0.00    -0.317 C  
HETATM   11  C   UNL     1      -7.664   9.211  66.157  1.00  0.00    -0.095 C  
HETATM   12  C   UNL     1     -10.923  13.809  69.211  1.00  0.00    -0.205 C  
HETATM   13  C   UNL     1      -6.735   8.848  64.959  1.00  0.00    -0.069 C  
HETATM   14  C   UNL     1     -11.813  12.553  66.178  1.00  0.00    -0.459 C  
HETATM   15  C   UNL     1     -10.409  13.332  68.063  1.00  0.00    -0.243 C  
HETATM   16  C   UNL     1      -9.096   8.960  65.648  1.00  0.00    -0.269 C  
HETATM   17  C   UNL     1     -10.944  12.086  67.359  1.00  0.00    -0.311 C  
HETATM   18  C   UNL     1     -10.163   9.994  65.986  1.00  0.00    -0.207 C  
HETATM   19  C   UNL     1      -9.760  11.130  66.955  1.00  0.00    -0.216 C  
HETATM   20  C   UNL     1     -11.872  11.297  68.294  1.00  0.00    -0.299 C  
HETATM   21  O   UNL     1     -10.613  10.522  64.735  1.00  0.00    -0.253 OA 
HETATM   22  C   UNL     1      -8.431  11.758  66.516  1.00  0.00    -0.125 C  
HETATM   23  H   UNL     1     -11.279  11.166  64.945  1.00  0.00     0.000 HD 
HETATM   24  C   UNL     1      -8.074  13.014  67.331  1.00  0.00    -0.180 C  
HETATM   25  C   UNL     1      -9.230  14.003  67.409  1.00  0.00    -0.216 C  
ENDROOT
BRANCH   5  26
HETATM   26  C   UNL     1      -9.322   8.097  70.477  1.00  0.00    -0.159 C  
BRANCH  26  27
HETATM   27  C   UNL     1      -9.915   9.113  71.449  1.00  0.00    -0.373 C  
HETATM   28  C   UNL     1     -11.246   8.621  71.995  1.00  0.00    -0.434 C  
ENDBRANCH  26  27
ENDBRANCH   5  26
BRANCH   9  29
HETATM   29  C   UNL     1      -6.430   7.170  67.306  1.00  0.00    -0.057 C  
HETATM   30  O   UNL     1      -5.197   7.269  67.415  1.00  0.00    -0.018 OA 
BRANCH  29  31
HETATM   31  C   UNL     1      -7.066   5.831  66.925  1.00  0.00    -0.070 C  
HETATM   32  O   UNL     1      -7.619   5.134  68.034  1.00  0.00    -0.081 OA 
HETATM   33  H   UNL     1      -8.014   4.303  67.797  1.00  0.00     0.000 HD 
ENDBRANCH  29  31
ENDBRANCH   9  29
TORSDOF 4
ENDMDL
MODEL       44
REMARK 921   NORMALIZED FREE ENERGY PREDICTED BY IDOCK:   -5.18 KCAL/MOL
REMARK 922        TOTAL FREE ENERGY PREDICTED BY IDOCK:   -6.65 KCAL/MOL
REMARK 923 INTER-LIGAND FREE ENERGY PREDICTED BY IDOCK:   -5.67 KCAL/MOL
REMARK 924 INTRA-LIGAND FREE ENERGY PREDICTED BY IDOCK:   -0.98 KCAL/MOL
REMARK 927      BINDING AFFINITY PREDICTED BY RF-SCORE:    0.00 PKD
ROOT
HETATM    1  C   UNL     1      -9.379   9.104  70.846  1.00  0.00    -0.335 C  
HETATM    2  C   UNL     1      -7.851   9.314  70.701  1.00  0.00    -0.181 C  
HETATM    3  C   UNL     1      -7.400   8.449  69.542  1.00  0.00    -0.073 C  
HETATM    4  O   UNL     1      -7.235   7.097  69.969  1.00  0.00    -0.074 OA 
HETATM    5  C   UNL     1      -7.857   6.284  68.982  1.00  0.00    -0.109 C  
HETATM    6  O   UNL     1      -8.114   2.453  73.993  1.00  0.00    -0.054 OA 
HETATM    7  O   UNL     1      -8.533   7.102  68.042  1.00  0.00    -0.121 OA 
HETATM    8  C   UNL     1      -9.253   3.269  72.102  1.00  0.00    -0.167 C  
HETATM    9  C   UNL     1      -8.542   8.455  68.544  1.00  0.00    -0.136 C  
HETATM   10  C   UNL     1      -8.689   3.391  73.458  1.00  0.00    -0.081 C  
HETATM   11  C   UNL     1      -9.851   8.874  69.357  1.00  0.00    -0.183 C  
HETATM   12  C   UNL     1      -8.806   4.710  74.116  1.00  0.00    -0.109 C  
HETATM   13  C   UNL     1     -10.446  10.253  68.939  1.00  0.00    -0.231 C  
HETATM   14  C   UNL     1     -11.877   5.351  72.802  1.00  0.00    -0.162 C  
HETATM   15  C   UNL     1      -9.557   5.697  73.596  1.00  0.00    -0.141 C  
HETATM   16  C   UNL     1     -10.986   7.858  69.128  1.00  0.00     0.046 C  
HETATM   17  C   UNL     1     -10.418   5.524  72.345  1.00  0.00    -0.261 C  
HETATM   18  C   UNL     1     -11.217   6.797  70.198  1.00  0.00    -0.335 C  
HETATM   19  C   UNL     1     -10.188   6.722  71.349  1.00  0.00    -0.216 C  
HETATM   20  C   UNL     1     -10.037   4.234  71.605  1.00  0.00    -0.216 C  
HETATM   21  O   UNL     1     -12.536   7.026  70.703  1.00  0.00    -0.598 OA 
HETATM   22  C   UNL     1      -9.936   8.119  71.931  1.00  0.00    -0.277 C  
HETATM   23  H   UNL     1     -12.681   6.365  71.369  1.00  0.00     0.000 HD 
HETATM   24  C   UNL     1      -9.066   8.082  73.199  1.00  0.00    -0.341 C  
HETATM   25  C   UNL     1      -9.568   7.067  74.219  1.00  0.00    -0.265 C  
ENDROOT
BRANCH   5  26
HETATM   26  C   UNL     1      -6.858   5.299  68.402  1.00  0.00    -0.056 C  
BRANCH  26  27
HETATM   27  C   UNL     1      -7.193   3.855  68.764  1.00  0.00    -0.054 C  
HETATM   28  C   UNL     1      -8.576   3.481  68.256  1.00  0.00    -0.116 C  
ENDBRANCH  26  27
ENDBRANCH   5  26
BRANCH   9  29
HETATM   29  C   UNL     1      -8.225   9.329  67.317  1.00  0.00    -0.121 C  
HETATM   30  O   UNL     1      -7.709  10.454  67.411  1.00  0.00    -0.094 OA 
BRANCH  29  31
HETATM   31  C   UNL     1      -8.628   8.776  65.948  1.00  0.00    -0.154 C  
HETATM   32  O   UNL     1     -10.031   8.603  65.802  1.00  0.00    -0.456 OA 
HETATM   33  H   UNL     1     -10.282   8.260  64.951  1.00  0.00     0.000 HD 
ENDBRANCH  29  31
ENDBRANCH   9  29
TORSDOF 4
ENDMDL
MODEL       45
REMARK 921   NORMALIZED FREE ENERGY PREDICTED BY IDOCK:   -5.15 KCAL/MOL
REMARK 922        TOTAL FREE ENERGY PREDICTED BY IDOCK:   -6.62 KCAL/MOL
REMARK 923 INTER-LIGAND FREE ENERGY PREDICTED BY IDOCK:   -5.82 KCAL/MOL
REMARK 924 INTRA-LIGAND FREE ENERGY PREDICTED BY IDOCK:   -0.81 KCAL/MOL
REMARK 927      BINDING AFFINITY PREDICTED BY RF-SCORE:    0.00 PKD
ROOT
HETATM    1  C   UNL     1      -7.782   7.221  68.731  1.00  0.00    -0.119 C  
HETATM    2  C   UNL     1      -8.437   7.262  67.327  1.00  0.00    -0.118 C  
HETATM    3  C   UNL     1      -8.644   8.724  66.985  1.00  0.00    -0.116 C  
HETATM    4  O   UNL     1      -9.825   9.217  67.618  1.00  0.00    -0.161 OA 
HETATM    5  C   UNL     1      -9.480  10.472  68.190  1.00  0.00    -0.151 C  
HETATM    6  O   UNL     1     -14.389   8.837  71.807  1.00  0.00    -0.387 OA 
HETATM    7  O   UNL     1      -8.085  10.692  68.062  1.00  0.00    -0.108 OA 
HETATM    8  C   UNL     1     -12.240   9.794  71.754  1.00  0.00    -0.449 C  
HETATM    9  C   UNL     1      -7.475   9.468  67.600  1.00  0.00    -0.091 C  
HETATM   10  C   UNL     1     -13.185   8.667  71.671  1.00  0.00    -0.346 C  
HETATM   11  C   UNL     1      -6.888   8.522  68.745  1.00  0.00    -0.062 C  
HETATM   12  C   UNL     1     -12.617   7.337  71.364  1.00  0.00    -0.423 C  
HETATM   13  C   UNL     1      -5.451   7.990  68.457  1.00  0.00    -0.032 C  
HETATM   14  C   UNL     1      -9.785   7.876  73.169  1.00  0.00    -0.353 C  
HETATM   15  C   UNL     1     -11.290   7.119  71.355  1.00  0.00    -0.288 C  
HETATM   16  C   UNL     1      -6.777   9.283  70.080  1.00  0.00    -0.054 C  
HETATM   17  C   UNL     1     -10.263   8.184  71.739  1.00  0.00    -0.275 C  
HETATM   18  C   UNL     1      -7.881   9.076  71.111  1.00  0.00    -0.116 C  
HETATM   19  C   UNL     1      -9.109   8.249  70.670  1.00  0.00    -0.164 C  
HETATM   20  C   UNL     1     -10.920   9.570  71.790  1.00  0.00    -0.156 C  
HETATM   21  O   UNL     1      -7.249   8.490  72.253  1.00  0.00    -0.141 OA 
HETATM   22  C   UNL     1      -8.660   6.943  69.999  1.00  0.00    -0.141 C  
HETATM   23  H   UNL     1      -7.936   8.362  72.896  1.00  0.00     0.000 HD 
HETATM   24  C   UNL     1      -9.835   5.994  69.709  1.00  0.00    -0.208 C  
HETATM   25  C   UNL     1     -10.730   5.789  70.925  1.00  0.00    -0.333 C  
ENDROOT
BRANCH   5  26
HETATM   26  C   UNL     1     -10.375  11.568  67.640  1.00  0.00    -0.209 C  
BRANCH  26  27
HETATM   27  C   UNL     1     -10.345  12.826  68.504  1.00  0.00    -0.231 C  
HETATM   28  C   UNL     1     -11.494  12.822  69.499  1.00  0.00    -0.293 C  
ENDBRANCH  26  27
ENDBRANCH   5  26
BRANCH   9  29
HETATM   29  C   UNL     1      -6.459   9.917  66.536  1.00  0.00    -0.071 C  
HETATM   30  O   UNL     1      -6.125   9.195  65.582  1.00  0.00    -0.054 OA 
BRANCH  29  31
HETATM   31  C   UNL     1      -5.814  11.292  66.726  1.00  0.00    -0.121 C  
HETATM   32  O   UNL     1      -6.621  12.362  66.256  1.00  0.00    -0.045 OA 
HETATM   33  H   UNL     1      -6.220  13.216  66.374  1.00  0.00     0.000 HD 
ENDBRANCH  29  31
ENDBRANCH   9  29
TORSDOF 4
ENDMDL
MODEL       46
REMARK 921   NORMALIZED FREE ENERGY PREDICTED BY IDOCK:   -4.99 KCAL/MOL
REMARK 922        TOTAL FREE ENERGY PREDICTED BY IDOCK:   -6.42 KCAL/MOL
REMARK 923 INTER-LIGAND FREE ENERGY PREDICTED BY IDOCK:   -5.80 KCAL/MOL
REMARK 924 INTRA-LIGAND FREE ENERGY PREDICTED BY IDOCK:   -0.62 KCAL/MOL
REMARK 927      BINDING AFFINITY PREDICTED BY RF-SCORE:    0.00 PKD
ROOT
HETATM    1  C   UNL     1     -11.045   5.968  69.726  1.00  0.00    -0.476 C  
HETATM    2  C   UNL     1     -10.226   4.795  70.322  1.00  0.00    -0.262 C  
HETATM    3  C   UNL     1      -9.227   5.405  71.285  1.00  0.00    -0.146 C  
HETATM    4  O   UNL     1      -8.099   5.911  70.572  1.00  0.00    -0.107 OA 
HETATM    5  C   UNL     1      -7.832   7.202  71.105  1.00  0.00    -0.098 C  
HETATM    6  O   UNL     1      -5.245   7.740  65.372  1.00  0.00    -0.028 OA 
HETATM    7  O   UNL     1      -8.856   7.568  72.016  1.00  0.00    -0.115 OA 
HETATM    8  C   UNL     1      -6.525   8.796  67.040  1.00  0.00    -0.061 C  
HETATM    9  C   UNL     1      -9.922   6.600  71.908  1.00  0.00    -0.177 C  
HETATM   10  C   UNL     1      -6.313   7.811  65.965  1.00  0.00    -0.042 C  
HETATM   11  C   UNL     1     -11.111   6.999  70.920  1.00  0.00    -0.300 C  
HETATM   12  C   UNL     1      -7.427   6.884  65.676  1.00  0.00    -0.085 C  
HETATM   13  C   UNL     1     -12.534   6.785  71.518  1.00  0.00    -0.390 C  
HETATM   14  C   UNL     1      -9.827   9.223  66.252  1.00  0.00    -0.361 C  
HETATM   15  C   UNL     1      -8.645   7.048  66.222  1.00  0.00    -0.142 C  
HETATM   16  C   UNL     1     -11.044   8.495  70.561  1.00  0.00    -0.265 C  
HETATM   17  C   UNL     1      -9.013   8.238  67.108  1.00  0.00    -0.154 C  
HETATM   18  C   UNL     1     -10.418   8.880  69.225  1.00  0.00    -0.224 C  
HETATM   19  C   UNL     1      -9.748   7.749  68.412  1.00  0.00    -0.167 C  
HETATM   20  C   UNL     1      -7.749   8.989  67.550  1.00  0.00    -0.096 C  
HETATM   21  O   UNL     1     -11.455   9.512  68.469  1.00  0.00    -0.450 OA 
HETATM   22  C   UNL     1     -10.685   6.537  68.311  1.00  0.00    -0.341 C  
HETATM   23  H   UNL     1     -11.065   9.752  67.637  1.00  0.00     0.000 HD 
HETATM   24  C   UNL     1     -10.151   5.455  67.356  1.00  0.00    -0.223 C  
HETATM   25  C   UNL     1      -9.730   6.027  66.008  1.00  0.00     0.013 C  
ENDROOT
BRANCH   5  26
HETATM   26  C   UNL     1      -6.415   7.268  71.644  1.00  0.00    -0.040 C  
BRANCH  26  27
HETATM   27  C   UNL     1      -5.964   8.702  71.908  1.00  0.00    -0.059 C  
HETATM   28  C   UNL     1      -6.510   9.642  70.846  1.00  0.00    -0.083 C  
ENDBRANCH  26  27
ENDBRANCH   5  26
BRANCH   9  29
HETATM   29  C   UNL     1     -10.343   6.322  73.362  1.00  0.00    -0.242 C  
HETATM   30  O   UNL     1     -10.552   7.228  74.184  1.00  0.00    -0.253 OA 
BRANCH  29  31
HETATM   31  C   UNL     1     -10.444   4.855  73.788  1.00  0.00    -0.253 C  
HETATM   32  O   UNL     1     -11.783   4.397  73.919  1.00  0.00    -0.178 OA 
HETATM   33  H   UNL     1     -11.846   3.487  74.184  1.00  0.00     0.000 HD 
ENDBRANCH  29  31
ENDBRANCH   9  29
TORSDOF 4
ENDMDL
MODEL       47
REMARK 921   NORMALIZED FREE ENERGY PREDICTED BY IDOCK:   -4.98 KCAL/MOL
REMARK 922        TOTAL FREE ENERGY PREDICTED BY IDOCK:   -6.41 KCAL/MOL
REMARK 923 INTER-LIGAND FREE ENERGY PREDICTED BY IDOCK:   -5.84 KCAL/MOL
REMARK 924 INTRA-LIGAND FREE ENERGY PREDICTED BY IDOCK:   -0.57 KCAL/MOL
REMARK 927      BINDING AFFINITY PREDICTED BY RF-SCORE:    0.00 PKD
ROOT
HETATM    1  C   UNL     1      -9.197  11.893  68.442  1.00  0.00    -0.173 C  
HETATM    2  C   UNL     1      -8.316  12.650  67.417  1.00  0.00    -0.184 C  
HETATM    3  C   UNL     1      -8.850  12.302  66.042  1.00  0.00     0.154 C  
HETATM    4  O   UNL     1      -8.350  11.032  65.624  1.00  0.00    -0.149 OA 
HETATM    5  C   UNL     1      -9.459  10.316  65.096  1.00  0.00    -0.252 C  
HETATM    6  O   UNL     1      -5.653   5.550  66.725  1.00  0.00    -0.015 OA 
HETATM    7  O   UNL     1     -10.653  11.048  65.318  1.00  0.00    -0.268 OA 
HETATM    8  C   UNL     1      -7.866   6.348  66.674  1.00  0.00    -0.104 C  
HETATM    9  C   UNL     1     -10.350  12.150  66.200  1.00  0.00    -0.234 C  
HETATM   10  C   UNL     1      -6.482   6.329  67.177  1.00  0.00    -0.053 C  
HETATM   11  C   UNL     1     -10.617  11.879  67.751  1.00  0.00    -0.233 C  
HETATM   12  C   UNL     1      -6.130   7.324  68.212  1.00  0.00    -0.031 C  
HETATM   13  C   UNL     1     -11.393  13.021  68.473  1.00  0.00    -0.323 C  
HETATM   14  C   UNL     1      -9.166   7.152  69.736  1.00  0.00    -0.143 C  
HETATM   15  C   UNL     1      -7.066   8.082  68.812  1.00  0.00    -0.071 C  
HETATM   16  C   UNL     1     -11.480  10.618  67.945  1.00  0.00    -0.261 C  
HETATM   17  C   UNL     1      -8.563   7.928  68.551  1.00  0.00    -0.128 C  
HETATM   18  C   UNL     1     -10.771   9.319  68.309  1.00  0.00    -0.145 C  
HETATM   19  C   UNL     1      -9.225   9.332  68.291  1.00  0.00    -0.134 C  
HETATM   20  C   UNL     1      -8.805   7.068  67.302  1.00  0.00    -0.119 C  
HETATM   21  O   UNL     1     -11.267   8.945  69.598  1.00  0.00    -0.425 OA 
HETATM   22  C   UNL     1      -8.693  10.546  69.066  1.00  0.00    -0.160 C  
HETATM   23  H   UNL     1     -10.825   8.136  69.825  1.00  0.00     0.000 HD 
HETATM   24  C   UNL     1      -7.166  10.510  69.242  1.00  0.00    -0.103 C  
HETATM   25  C   UNL     1      -6.673   9.171  69.776  1.00  0.00    -0.050 C  
ENDROOT
BRANCH   5  26
HETATM   26  C   UNL     1      -9.191   9.911  63.658  1.00  0.00    -0.283 C  
BRANCH  26  27
HETATM   27  C   UNL     1      -8.012   8.949  63.539  1.00  0.00    -0.158 C  
HETATM   28  C   UNL     1      -6.836   9.622  62.851  1.00  0.00    -0.104 C  
ENDBRANCH  26  27
ENDBRANCH   5  26
BRANCH   9  29
HETATM   29  C   UNL     1     -11.112  13.347  65.604  1.00  0.00    -0.285 C  
HETATM   30  O   UNL     1     -10.607  14.476  65.495  1.00  0.00    -0.310 OA 
BRANCH  29  31
HETATM   31  C   UNL     1     -12.567  13.110  65.193  1.00  0.00    -0.465 C  
HETATM   32  O   UNL     1     -12.800  13.310  63.805  1.00  0.00    -0.625 OA 
HETATM   33  H   UNL     1     -13.704  13.163  63.550  1.00  0.00     0.000 HD 
ENDBRANCH  29  31
ENDBRANCH   9  29
TORSDOF 4
ENDMDL
MODEL       48
REMARK 921   NORMALIZED FREE ENERGY PREDICTED BY IDOCK:   -4.98 KCAL/MOL
REMARK 922        TOTAL FREE ENERGY PREDICTED BY IDOCK:   -6.41 KCAL/MOL
REMARK 923 INTER-LIGAND FREE ENERGY PREDICTED BY IDOCK:   -5.44 KCAL/MOL
REMARK 924 INTRA-LIGAND FREE ENERGY PREDICTED BY IDOCK:   -0.97 KCAL/MOL
REMARK 927      BINDING AFFINITY PREDICTED BY RF-SCORE:    0.00 PKD
ROOT
HETATM    1  C   UNL     1      -8.226  10.148  69.531  1.00  0.00    -0.176 C  
HETATM    2  C   UNL     1      -6.872   9.596  69.017  1.00  0.00    -0.050 C  
HETATM    3  C   UNL     1      -7.181   8.745  67.801  1.00  0.00    -0.084 C  
HETATM    4  O   UNL     1      -7.625   7.450  68.204  1.00  0.00    -0.108 OA 
HETATM    5  C   UNL     1      -8.768   7.153  67.414  1.00  0.00    -0.120 C  
HETATM    6  O   UNL     1      -9.802   3.445  72.418  1.00  0.00    -0.141 OA 
HETATM    7  O   UNL     1      -9.132   8.289  66.647  1.00  0.00    -0.148 OA 
HETATM    8  C   UNL     1     -10.763   4.905  70.840  1.00  0.00     0.039 C  
HETATM    9  C   UNL     1      -8.353   9.413  67.109  1.00  0.00    -0.124 C  
HETATM   10  C   UNL     1      -9.933   4.595  72.018  1.00  0.00    -0.189 C  
HETATM   11  C   UNL     1      -9.062  10.333  68.204  1.00  0.00    -0.136 C  
HETATM   12  C   UNL     1      -9.227   5.725  72.657  1.00  0.00    -0.139 C  
HETATM   13  C   UNL     1      -8.963  11.861  67.913  1.00  0.00    -0.179 C  
HETATM   14  C   UNL     1     -11.767   7.920  72.108  1.00  0.00    -0.385 C  
HETATM   15  C   UNL     1      -9.477   7.002  72.313  1.00  0.00    -0.154 C  
HETATM   16  C   UNL     1     -10.571  10.033  68.277  1.00  0.00    -0.264 C  
HETATM   17  C   UNL     1     -10.558   7.403  71.309  1.00  0.00    -0.231 C  
HETATM   18  C   UNL     1     -11.061   9.117  69.393  1.00  0.00    -0.008 C  
HETATM   19  C   UNL     1      -9.984   8.430  70.263  1.00  0.00    -0.193 C  
HETATM   20  C   UNL     1     -11.047   6.175  70.527  1.00  0.00    -0.405 C  
HETATM   21  O   UNL     1     -11.942   9.910  70.196  1.00  0.00    -0.422 OA 
HETATM   22  C   UNL     1      -8.948   9.456  70.738  1.00  0.00    -0.254 C  
HETATM   23  H   UNL     1     -12.248   9.339  70.891  1.00  0.00     0.000 HD 
HETATM   24  C   UNL     1      -7.959   8.867  71.759  1.00  0.00    -0.031 C  
HETATM   25  C   UNL     1      -8.664   8.129  72.891  1.00  0.00    -0.290 C  
ENDROOT
BRANCH   5  26
HETATM   26  C   UNL     1      -8.551   5.871  66.631  1.00  0.00    -0.119 C  
BRANCH  26  27
HETATM   27  C   UNL     1      -9.301   4.688  67.238  1.00  0.00    -0.159 C  
HETATM   28  C   UNL     1      -8.417   3.937  68.220  1.00  0.00    -0.107 C  
ENDBRANCH  26  27
ENDBRANCH   5  26
BRANCH   9  29
HETATM   29  C   UNL     1      -7.919  10.140  65.824  1.00  0.00    -0.140 C  
HETATM   30  O   UNL     1      -6.791  10.641  65.685  1.00  0.00    -0.131 OA 
BRANCH  29  31
HETATM   31  C   UNL     1      -8.967  10.280  64.717  1.00  0.00    -0.203 C  
HETATM   32  O   UNL     1      -9.177   9.080  63.985  1.00  0.00    -0.387 OA 
HETATM   33  H   UNL     1      -9.828   9.167  63.298  1.00  0.00     0.000 HD 
ENDBRANCH  29  31
ENDBRANCH   9  29
TORSDOF 4
ENDMDL
MODEL       49
REMARK 921   NORMALIZED FREE ENERGY PREDICTED BY IDOCK:   -4.93 KCAL/MOL
REMARK 922        TOTAL FREE ENERGY PREDICTED BY IDOCK:   -6.35 KCAL/MOL
REMARK 923 INTER-LIGAND FREE ENERGY PREDICTED BY IDOCK:   -5.48 KCAL/MOL
REMARK 924 INTRA-LIGAND FREE ENERGY PREDICTED BY IDOCK:   -0.87 KCAL/MOL
REMARK 927      BINDING AFFINITY PREDICTED BY RF-SCORE:    0.00 PKD
ROOT
HETATM    1  C   UNL     1     -10.904   7.807  69.935  1.00  0.00    -0.228 C  
HETATM    2  C   UNL     1     -11.414   6.353  69.772  1.00  0.00    -0.468 C  
HETATM    3  C   UNL     1     -10.447   5.464  70.528  1.00  0.00    -0.265 C  
HETATM    4  O   UNL     1      -9.286   5.211  69.737  1.00  0.00    -0.116 OA 
HETATM    5  C   UNL     1      -8.167   5.394  70.594  1.00  0.00    -0.114 C  
HETATM    6  O   UNL     1      -5.513   6.423  64.959  1.00  0.00    -0.017 OA 
HETATM    7  O   UNL     1      -8.598   5.903  71.846  1.00  0.00    -0.135 OA 
HETATM    8  C   UNL     1      -5.640   7.104  67.209  1.00  0.00    -0.024 C  
HETATM    9  C   UNL     1      -9.990   6.268  71.729  1.00  0.00    -0.171 C  
HETATM   10  C   UNL     1      -6.166   6.969  65.839  1.00  0.00    -0.036 C  
HETATM   11  C   UNL     1     -10.268   7.801  71.381  1.00  0.00    -0.211 C  
HETATM   12  C   UNL     1      -7.533   7.473  65.593  1.00  0.00    -0.083 C  
HETATM   13  C   UNL     1     -11.360   8.469  72.270  1.00  0.00    -0.441 C  
HETATM   14  C   UNL     1      -7.184  10.117  67.705  1.00  0.00    -0.088 C  
HETATM   15  C   UNL     1      -8.197   8.198  66.512  1.00  0.00    -0.107 C  
HETATM   16  C   UNL     1      -9.000   8.649  71.594  1.00  0.00    -0.305 C  
HETATM   17  C   UNL     1      -7.579   8.636  67.840  1.00  0.00    -0.098 C  
HETATM   18  C   UNL     1      -8.162   8.997  70.368  1.00  0.00    -0.151 C  
HETATM   19  C   UNL     1      -8.561   8.332  69.032  1.00  0.00    -0.135 C  
HETATM   20  C   UNL     1      -6.280   7.863  68.108  1.00  0.00    -0.046 C  
HETATM   21  O   UNL     1      -8.192  10.424  70.261  1.00  0.00    -0.375 OA 
HETATM   22  C   UNL     1     -10.070   8.480  68.791  1.00  0.00    -0.210 C  
HETATM   23  H   UNL     1      -7.670  10.641  69.498  1.00  0.00     0.000 HD 
HETATM   24  C   UNL     1     -10.494   8.003  67.391  1.00  0.00    -0.357 C  
HETATM   25  C   UNL     1      -9.630   8.601  66.288  1.00  0.00    -0.322 C  
ENDROOT
BRANCH   5  26
HETATM   26  C   UNL     1      -7.330   4.129  70.649  1.00  0.00    -0.041 C  
BRANCH  26  27
HETATM   27  C   UNL     1      -5.840   4.415  70.492  1.00  0.00    -0.013 C  
HETATM   28  C   UNL     1      -5.308   3.805  69.205  1.00  0.00    -0.012 C  
ENDBRANCH  26  27
ENDBRANCH   5  26
BRANCH   9  29
HETATM   29  C   UNL     1     -10.635   5.765  73.033  1.00  0.00    -0.242 C  
HETATM   30  O   UNL     1     -11.752   5.225  73.063  1.00  0.00    -0.294 OA 
BRANCH  29  31
HETATM   31  C   UNL     1      -9.862   6.011  74.331  1.00  0.00    -0.264 C  
HETATM   32  O   UNL     1      -8.837   5.055  74.566  1.00  0.00    -0.111 OA 
HETATM   33  H   UNL     1      -8.357   5.207  75.372  1.00  0.00     0.000 HD 
ENDBRANCH  29  31
ENDBRANCH   9  29
TORSDOF 4
ENDMDL
MODEL       50
REMARK 921   NORMALIZED FREE ENERGY PREDICTED BY IDOCK:   -4.87 KCAL/MOL
REMARK 922        TOTAL FREE ENERGY PREDICTED BY IDOCK:   -6.27 KCAL/MOL
REMARK 923 INTER-LIGAND FREE ENERGY PREDICTED BY IDOCK:   -5.84 KCAL/MOL
REMARK 924 INTRA-LIGAND FREE ENERGY PREDICTED BY IDOCK:   -0.44 KCAL/MOL
REMARK 927      BINDING AFFINITY PREDICTED BY RF-SCORE:    0.00 PKD
ROOT
HETATM    1  C   UNL     1     -11.088  10.187  66.993  1.00  0.00    -0.061 C  
HETATM    2  C   UNL     1     -11.135  10.477  68.515  1.00  0.00    -0.329 C  
HETATM    3  C   UNL     1     -10.014  11.454  68.807  1.00  0.00    -0.177 C  
HETATM    4  O   UNL     1      -8.770  10.761  68.915  1.00  0.00    -0.153 OA 
HETATM    5  C   UNL     1      -7.826  11.508  68.159  1.00  0.00    -0.128 C  
HETATM    6  O   UNL     1      -5.149   5.791  68.062  1.00  0.00    -0.003 OA 
HETATM    7  O   UNL     1      -8.486  12.553  67.463  1.00  0.00    -0.157 OA 
HETATM    8  C   UNL     1      -5.650   7.731  66.827  1.00  0.00    -0.028 C  
HETATM    9  C   UNL     1      -9.910  12.350  67.588  1.00  0.00    -0.198 C  
HETATM   10  C   UNL     1      -6.002   6.473  67.509  1.00  0.00    -0.017 C  
HETATM   11  C   UNL     1     -10.596  11.559  66.384  1.00  0.00    -0.304 C  
HETATM   12  C   UNL     1      -7.433   6.104  67.538  1.00  0.00    -0.082 C  
HETATM   13  C   UNL     1     -11.904  12.219  65.851  1.00  0.00    -0.420 C  
HETATM   14  C   UNL     1      -8.044   7.315  64.418  1.00  0.00    -0.065 C  
HETATM   15  C   UNL     1      -8.351   6.771  66.814  1.00  0.00    -0.115 C  
HETATM   16  C   UNL     1      -9.654  11.489  65.167  1.00  0.00    -0.235 C  
HETATM   17  C   UNL     1      -7.996   7.896  65.843  1.00  0.00    -0.106 C  
HETATM   18  C   UNL     1      -8.860  10.205  64.954  1.00  0.00    -0.190 C  
HETATM   19  C   UNL     1      -8.939   9.137  66.069  1.00  0.00    -0.221 C  
HETATM   20  C   UNL     1      -6.553   8.368  66.071  1.00  0.00    -0.053 C  
HETATM   21  O   UNL     1      -9.299   9.672  63.701  1.00  0.00    -0.403 OA 
HETATM   22  C   UNL     1     -10.400   8.883  66.463  1.00  0.00    -0.267 C  
HETATM   23  H   UNL     1      -8.804   8.873  63.568  1.00  0.00     0.000 HD 
HETATM   24  C   UNL     1     -10.553   7.698  67.432  1.00  0.00    -0.356 C  
HETATM   25  C   UNL     1      -9.816   6.454  66.949  1.00  0.00    -0.202 C  
ENDROOT
BRANCH   5  26
HETATM   26  C   UNL     1      -6.662  11.931  69.036  1.00  0.00    -0.099 C  
BRANCH  26  27
HETATM   27  C   UNL     1      -6.496  13.448  69.083  1.00  0.00    -0.105 C  
HETATM   28  C   UNL     1      -5.369  13.894  68.166  1.00  0.00    -0.119 C  
ENDBRANCH  26  27
ENDBRANCH   5  26
BRANCH   9  29
HETATM   29  C   UNL     1     -10.481  13.753  67.861  1.00  0.00    -0.246 C  
HETATM   30  O   UNL     1     -10.147  14.751  67.202  1.00  0.00    -0.238 OA 
BRANCH  29  31
HETATM   31  C   UNL     1     -11.453  13.892  69.034  1.00  0.00    -0.299 C  
HETATM   32  O   UNL     1     -10.891  14.558  70.156  1.00  0.00    -0.462 OA 
HETATM   33  H   UNL     1     -11.495  14.644  70.885  1.00  0.00     0.000 HD 
ENDBRANCH  29  31
ENDBRANCH   9  29
TORSDOF 4
ENDMDL
MODEL       51
REMARK 921   NORMALIZED FREE ENERGY PREDICTED BY IDOCK:   -4.81 KCAL/MOL
REMARK 922        TOTAL FREE ENERGY PREDICTED BY IDOCK:   -6.21 KCAL/MOL
REMARK 923 INTER-LIGAND FREE ENERGY PREDICTED BY IDOCK:   -5.49 KCAL/MOL
REMARK 924 INTRA-LIGAND FREE ENERGY PREDICTED BY IDOCK:   -0.71 KCAL/MOL
REMARK 927      BINDING AFFINITY PREDICTED BY RF-SCORE:    0.00 PKD
ROOT
HETATM    1  C   UNL     1      -8.920   8.205  68.699  1.00  0.00    -0.137 C  
HETATM    2  C   UNL     1      -7.401   8.110  68.403  1.00  0.00    -0.094 C  
HETATM    3  C   UNL     1      -7.165   6.755  67.766  1.00  0.00    -0.091 C  
HETATM    4  O   UNL     1      -7.094   5.743  68.771  1.00  0.00    -0.068 OA 
HETATM    5  C   UNL     1      -7.895   4.663  68.311  1.00  0.00    -0.081 C  
HETATM    6  O   UNL     1      -8.011   3.645  74.541  1.00  0.00    -0.072 OA 
HETATM    7  O   UNL     1      -8.580   5.040  67.129  1.00  0.00    -0.106 OA 
HETATM    8  C   UNL     1      -9.254   3.649  72.542  1.00  0.00    -0.145 C  
HETATM    9  C   UNL     1      -8.399   6.460  66.936  1.00  0.00    -0.110 C  
HETATM   10  C   UNL     1      -8.542   4.302  73.655  1.00  0.00    -0.092 C  
HETATM   11  C   UNL     1      -9.566   7.383  67.515  1.00  0.00    -0.171 C  
HETATM   12  C   UNL     1      -8.454   5.777  73.620  1.00  0.00    -0.116 C  
HETATM   13  C   UNL     1     -10.059   8.482  66.526  1.00  0.00    -0.328 C  
HETATM   14  C   UNL     1     -11.565   6.160  72.300  1.00  0.00    -0.362 C  
HETATM   15  C   UNL     1      -9.152   6.507  72.732  1.00  0.00    -0.142 C  
HETATM   16  C   UNL     1     -10.815   6.544  67.843  1.00  0.00    -0.383 C  
HETATM   17  C   UNL     1     -10.152   5.899  71.749  1.00  0.00    -0.228 C  
HETATM   18  C   UNL     1     -11.040   6.138  69.295  1.00  0.00    -0.393 C  
HETATM   19  C   UNL     1      -9.908   6.459  70.298  1.00  0.00    -0.192 C  
HETATM   20  C   UNL     1      -9.985   4.375  71.686  1.00  0.00    -0.256 C  
HETATM   21  O   UNL     1     -12.268   6.754  69.692  1.00  0.00    -0.504 OA 
HETATM   22  C   UNL     1      -9.457   7.918  70.143  1.00  0.00    -0.160 C  
HETATM   23  H   UNL     1     -12.409   6.501  70.597  1.00  0.00     0.000 HD 
HETATM   24  C   UNL     1      -8.466   8.348  71.239  1.00  0.00    -0.183 C  
HETATM   25  C   UNL     1      -8.958   7.997  72.638  1.00  0.00    -0.280 C  
ENDROOT
BRANCH   5  26
HETATM   26  C   UNL     1      -7.067   3.394  68.217  1.00  0.00    -0.050 C  
BRANCH  26  27
HETATM   27  C   UNL     1      -7.345   2.436  69.373  1.00  0.00    -0.044 C  
HETATM   28  C   UNL     1      -6.148   2.360  70.307  1.00  0.00    -0.023 C  
ENDBRANCH  26  27
ENDBRANCH   5  26
BRANCH   9  29
HETATM   29  C   UNL     1      -8.125   6.617  65.430  1.00  0.00    -0.129 C  
HETATM   30  O   UNL     1      -7.718   7.678  64.930  1.00  0.00    -0.093 OA 
BRANCH  29  31
HETATM   31  C   UNL     1      -8.434   5.412  64.538  1.00  0.00    -0.117 C  
HETATM   32  O   UNL     1      -9.810   5.057  64.527  1.00  0.00    -0.344 OA 
HETATM   33  H   UNL     1     -10.002   4.309  63.974  1.00  0.00     0.000 HD 
ENDBRANCH  29  31
ENDBRANCH   9  29
TORSDOF 4
ENDMDL
MODEL       52
REMARK 921   NORMALIZED FREE ENERGY PREDICTED BY IDOCK:   -4.80 KCAL/MOL
REMARK 922        TOTAL FREE ENERGY PREDICTED BY IDOCK:   -6.19 KCAL/MOL
REMARK 923 INTER-LIGAND FREE ENERGY PREDICTED BY IDOCK:   -5.72 KCAL/MOL
REMARK 924 INTRA-LIGAND FREE ENERGY PREDICTED BY IDOCK:   -0.47 KCAL/MOL
REMARK 927      BINDING AFFINITY PREDICTED BY RF-SCORE:    0.00 PKD
ROOT
HETATM    1  C   UNL     1      -9.015   7.519  67.086  1.00  0.00    -0.136 C  
HETATM    2  C   UNL     1     -10.531   7.841  67.086  1.00  0.00    -0.413 C  
HETATM    3  C   UNL     1     -10.773   8.801  68.233  1.00  0.00    -0.067 C  
HETATM    4  O   UNL     1     -10.862   8.087  69.466  1.00  0.00    -0.218 OA 
HETATM    5  C   UNL     1     -10.065   8.799  70.403  1.00  0.00    -0.192 C  
HETATM    6  O   UNL     1     -10.019   3.031  72.968  1.00  0.00    -0.112 OA 
HETATM    7  O   UNL     1      -9.365   9.842  69.745  1.00  0.00    -0.207 OA 
HETATM    8  C   UNL     1      -8.757   4.954  72.471  1.00  0.00    -0.121 C  
HETATM    9  C   UNL     1      -9.533   9.670  68.321  1.00  0.00    -0.136 C  
HETATM   10  C   UNL     1      -9.475   3.718  72.114  1.00  0.00    -0.133 C  
HETATM   11  C   UNL     1      -8.364   8.867  67.588  1.00  0.00    -0.110 C  
HETATM   12  C   UNL     1      -9.550   3.378  70.678  1.00  0.00    -0.238 C  
HETATM   13  C   UNL     1      -7.852   9.542  66.279  1.00  0.00    -0.100 C  
HETATM   14  C   UNL     1      -6.423   4.534  70.005  1.00  0.00    -0.032 C  
HETATM   15  C   UNL     1      -8.837   4.046  69.753  1.00  0.00    -0.143 C  
HETATM   16  C   UNL     1      -7.125   8.754  68.495  1.00  0.00    -0.073 C  
HETATM   17  C   UNL     1      -7.832   5.144  70.102  1.00  0.00    -0.078 C  
HETATM   18  C   UNL     1      -6.918   7.450  69.258  1.00  0.00    -0.065 C  
HETATM   19  C   UNL     1      -8.057   6.407  69.190  1.00  0.00    -0.111 C  
HETATM   20  C   UNL     1      -8.012   5.592  71.559  1.00  0.00    -0.117 C  
HETATM   21  O   UNL     1      -5.689   6.900  68.776  1.00  0.00    -0.017 OA 
HETATM   22  C   UNL     1      -8.495   6.190  67.735  1.00  0.00    -0.115 C  
HETATM   23  H   UNL     1      -5.559   6.089  69.252  1.00  0.00     0.000 HD 
HETATM   24  C   UNL     1      -9.493   5.029  67.586  1.00  0.00    -0.154 C  
HETATM   25  C   UNL     1      -9.018   3.761  68.286  1.00  0.00    -0.168 C  
ENDROOT
BRANCH   5  26
HETATM   26  C   UNL     1     -10.902   9.218  71.598  1.00  0.00    -0.418 C  
BRANCH  26  27
HETATM   27  C   UNL     1     -12.088   8.286  71.829  1.00  0.00    -0.364 C  
HETATM   28  C   UNL     1     -13.377   9.080  71.964  1.00  0.00    -0.494 C  
ENDBRANCH  26  27
ENDBRANCH   5  26
BRANCH   9  29
HETATM   29  C   UNL     1      -9.790  11.089  67.784  1.00  0.00    -0.173 C  
HETATM   30  O   UNL     1      -9.056  12.052  68.057  1.00  0.00    -0.175 OA 
BRANCH  29  31
HETATM   31  C   UNL     1     -11.043  11.292  66.929  1.00  0.00    -0.275 C  
HETATM   32  O   UNL     1     -12.110  11.915  67.632  1.00  0.00    -0.568 OA 
HETATM   33  H   UNL     1     -12.888  12.041  67.101  1.00  0.00     0.000 HD 
ENDBRANCH  29  31
ENDBRANCH   9  29
TORSDOF 4
ENDMDL
MODEL       53
REMARK 921   NORMALIZED FREE ENERGY PREDICTED BY IDOCK:   -4.75 KCAL/MOL
REMARK 922        TOTAL FREE ENERGY PREDICTED BY IDOCK:   -6.12 KCAL/MOL
REMARK 923 INTER-LIGAND FREE ENERGY PREDICTED BY IDOCK:   -5.43 KCAL/MOL
REMARK 924 INTRA-LIGAND FREE ENERGY PREDICTED BY IDOCK:   -0.70 KCAL/MOL
REMARK 927      BINDING AFFINITY PREDICTED BY RF-SCORE:    0.00 PKD
ROOT
HETATM    1  C   UNL     1      -6.945   8.023  67.556  1.00  0.00    -0.075 C  
HETATM    2  C   UNL     1      -6.699   7.826  69.073  1.00  0.00    -0.049 C  
HETATM    3  C   UNL     1      -7.924   7.124  69.626  1.00  0.00    -0.124 C  
HETATM    4  O   UNL     1      -8.971   8.066  69.856  1.00  0.00    -0.143 OA 
HETATM    5  C   UNL     1     -10.157   7.486  69.328  1.00  0.00    -0.188 C  
HETATM    6  O   UNL     1     -11.643  13.617  69.097  1.00  0.00    -0.266 OA 
HETATM    7  O   UNL     1      -9.842   6.285  68.643  1.00  0.00    -0.131 OA 
HETATM    8  C   UNL     1     -11.748  11.542  67.991  1.00  0.00    -0.343 C  
HETATM    9  C   UNL     1      -8.405   6.195  68.529  1.00  0.00    -0.114 C  
HETATM   10  C   UNL     1     -11.047  12.740  68.487  1.00  0.00    -0.266 C  
HETATM   11  C   UNL     1      -7.792   6.749  67.163  1.00  0.00    -0.112 C  
HETATM   12  C   UNL     1      -9.587  12.804  68.261  1.00  0.00    -0.211 C  
HETATM   13  C   UNL     1      -6.748   5.799  66.502  1.00  0.00    -0.057 C  
HETATM   14  C   UNL     1      -9.762  11.300  65.215  1.00  0.00    -0.280 C  
HETATM   15  C   UNL     1      -8.953  11.917  67.473  1.00  0.00    -0.171 C  
HETATM   16  C   UNL     1      -8.894   6.937  66.104  1.00  0.00    -0.163 C  
HETATM   17  C   UNL     1      -9.680  10.832  66.679  1.00  0.00    -0.227 C  
HETATM   18  C   UNL     1      -9.447   8.343  65.894  1.00  0.00    -0.099 C  
HETATM   19  C   UNL     1      -8.973   9.438  66.876  1.00  0.00    -0.148 C  
HETATM   20  C   UNL     1     -11.127  10.686  67.169  1.00  0.00    -0.267 C  
HETATM   21  O   UNL     1      -9.131   8.693  64.543  1.00  0.00    -0.405 OA 
HETATM   22  C   UNL     1      -7.446   9.407  67.015  1.00  0.00    -0.091 C  
HETATM   23  H   UNL     1      -9.476   9.568  64.411  1.00  0.00     0.000 HD 
HETATM   24  C   UNL     1      -6.902  10.592  67.832  1.00  0.00    -0.073 C  
HETATM   25  C   UNL     1      -7.453  11.929  67.351  1.00  0.00    -0.148 C  
ENDROOT
BRANCH   5  26
HETATM   26  C   UNL     1     -11.216   7.370  70.410  1.00  0.00    -0.284 C  
BRANCH  26  27
HETATM   27  C   UNL     1     -10.637   6.880  71.735  1.00  0.00    -0.235 C  
HETATM   28  C   UNL     1     -10.580   5.362  71.768  1.00  0.00    -0.286 C  
ENDBRANCH  26  27
ENDBRANCH   5  26
BRANCH   9  29
HETATM   29  C   UNL     1      -8.082   4.723  68.843  1.00  0.00    -0.082 C  
HETATM   30  O   UNL     1      -6.992   4.363  69.316  1.00  0.00    -0.048 OA 
BRANCH  29  31
HETATM   31  C   UNL     1      -9.151   3.686  68.492  1.00  0.00    -0.147 C  
HETATM   32  O   UNL     1      -9.521   3.701  67.120  1.00  0.00    -0.191 OA 
HETATM   33  H   UNL     1     -10.185   3.057  66.901  1.00  0.00     0.000 HD 
ENDBRANCH  29  31
ENDBRANCH   9  29
TORSDOF 4
ENDMDL
MODEL       54
REMARK 921   NORMALIZED FREE ENERGY PREDICTED BY IDOCK:   -4.72 KCAL/MOL
REMARK 922        TOTAL FREE ENERGY PREDICTED BY IDOCK:   -6.09 KCAL/MOL
REMARK 923 INTER-LIGAND FREE ENERGY PREDICTED BY IDOCK:   -5.74 KCAL/MOL
REMARK 924 INTRA-LIGAND FREE ENERGY PREDICTED BY IDOCK:   -0.35 KCAL/MOL
REMARK 927      BINDING AFFINITY PREDICTED BY RF-SCORE:    0.00 PKD
ROOT
HETATM    1  C   UNL     1     -10.831   6.058  67.784  1.00  0.00    -0.380 C  
HETATM    2  C   UNL     1     -10.697   7.486  67.197  1.00  0.00    -0.379 C  
HETATM    3  C   UNL     1      -9.220   7.721  66.953  1.00  0.00    -0.152 C  
HETATM    4  O   UNL     1      -8.571   8.094  68.169  1.00  0.00    -0.128 OA 
HETATM    5  C   UNL     1      -7.377   7.326  68.239  1.00  0.00    -0.100 C  
HETATM    6  O   UNL     1      -8.332   8.577  74.353  1.00  0.00    -0.205 OA 
HETATM    7  O   UNL     1      -7.348   6.382  67.182  1.00  0.00    -0.080 OA 
HETATM    8  C   UNL     1      -7.678   6.960  72.772  1.00  0.00    -0.093 C  
HETATM    9  C   UNL     1      -8.644   6.380  66.544  1.00  0.00    -0.125 C  
HETATM   10  C   UNL     1      -8.665   7.816  73.454  1.00  0.00    -0.227 C  
HETATM   11  C   UNL     1      -9.663   5.270  67.070  1.00  0.00    -0.167 C  
HETATM   12  C   UNL     1     -10.059   7.749  72.968  1.00  0.00    -0.382 C  
HETATM   13  C   UNL     1     -10.386   4.480  65.937  1.00  0.00    -0.289 C  
HETATM   14  C   UNL     1      -9.917   4.412  72.323  1.00  0.00    -0.239 C  
HETATM   15  C   UNL     1     -10.457   6.817  72.083  1.00  0.00    -0.231 C  
HETATM   16  C   UNL     1      -8.928   4.201  67.901  1.00  0.00    -0.146 C  
HETATM   17  C   UNL     1      -9.544   5.703  71.572  1.00  0.00    -0.184 C  
HETATM   18  C   UNL     1      -8.984   4.317  69.420  1.00  0.00    -0.101 C  
HETATM   19  C   UNL     1      -9.635   5.591  70.004  1.00  0.00    -0.218 C  
HETATM   20  C   UNL     1      -8.080   6.003  71.926  1.00  0.00    -0.107 C  
HETATM   21  O   UNL     1      -9.653   3.140  69.882  1.00  0.00    -0.157 OA 
HETATM   22  C   UNL     1     -10.988   5.856  69.330  1.00  0.00    -0.421 C  
HETATM   23  H   UNL     1      -9.688   3.211  70.828  1.00  0.00     0.000 HD 
HETATM   24  C   UNL     1     -11.767   7.001  70.000  1.00  0.00    -0.185 C  
HETATM   25  C   UNL     1     -11.850   6.840  71.513  1.00  0.00    -0.378 C  
ENDROOT
BRANCH   5  26
HETATM   26  C   UNL     1      -6.167   8.238  68.341  1.00  0.00    -0.050 C  
BRANCH  26  27
HETATM   27  C   UNL     1      -6.514   9.592  68.955  1.00  0.00    -0.046 C  
HETATM   28  C   UNL     1      -6.457   9.525  70.473  1.00  0.00    -0.086 C  
ENDBRANCH  26  27
ENDBRANCH   5  26
BRANCH   9  29
HETATM   29  C   UNL     1      -8.336   6.325  65.037  1.00  0.00    -0.099 C  
HETATM   30  O   UNL     1      -8.011   5.277  64.457  1.00  0.00    -0.099 OA 
BRANCH  29  31
HETATM   31  C   UNL     1      -8.389   7.648  64.269  1.00  0.00     0.082 C  
HETATM   32  O   UNL     1      -8.512   7.478  62.863  1.00  0.00    -0.370 OA 
HETATM   33  H   UNL     1      -8.545   8.300  62.386  1.00  0.00     0.000 HD 
ENDBRANCH  29  31
ENDBRANCH   9  29
TORSDOF 4
ENDMDL
MODEL       55
REMARK 921   NORMALIZED FREE ENERGY PREDICTED BY IDOCK:   -4.67 KCAL/MOL
REMARK 922        TOTAL FREE ENERGY PREDICTED BY IDOCK:   -6.02 KCAL/MOL
REMARK 923 INTER-LIGAND FREE ENERGY PREDICTED BY IDOCK:   -5.29 KCAL/MOL
REMARK 924 INTRA-LIGAND FREE ENERGY PREDICTED BY IDOCK:   -0.73 KCAL/MOL
REMARK 927      BINDING AFFINITY PREDICTED BY RF-SCORE:    0.00 PKD
ROOT
HETATM    1  C   UNL     1      -6.921   7.498  70.204  1.00  0.00    -0.059 C  
HETATM    2  C   UNL     1      -7.012   8.764  71.093  1.00  0.00    -0.082 C  
HETATM    3  C   UNL     1      -8.483   8.994  71.377  1.00  0.00    -0.080 C  
HETATM    4  O   UNL     1      -9.103   9.651  70.272  1.00  0.00    -0.235 OA 
HETATM    5  C   UNL     1     -10.323   8.963  70.028  1.00  0.00    -0.204 C  
HETATM    6  O   UNL     1      -9.248  11.505  64.350  1.00  0.00    -0.070 OA 
HETATM    7  O   UNL     1     -10.397   7.809  70.848  1.00  0.00    -0.200 OA 
HETATM    8  C   UNL     1      -9.978   9.603  65.528  1.00  0.00    -0.279 C  
HETATM    9  C   UNL     1      -9.111   7.617  71.475  1.00  0.00    -0.132 C  
HETATM   10  C   UNL     1      -8.953  10.551  65.058  1.00  0.00    -0.201 C  
HETATM   11  C   UNL     1      -8.125   6.614  70.719  1.00  0.00    -0.119 C  
HETATM   12  C   UNL     1      -7.569  10.326  65.523  1.00  0.00    -0.149 C  
HETATM   13  C   UNL     1      -7.444   5.567  71.651  1.00  0.00    -0.093 C  
HETATM   14  C   UNL     1      -7.836   6.938  65.409  1.00  0.00    -0.115 C  
HETATM   15  C   UNL     1      -7.215   9.207  66.180  1.00  0.00    -0.090 C  
HETATM   16  C   UNL     1      -8.887   5.785  69.668  1.00  0.00    -0.124 C  
HETATM   17  C   UNL     1      -8.173   8.042  66.426  1.00  0.00    -0.113 C  
HETATM   18  C   UNL     1      -8.808   6.234  68.213  1.00  0.00    -0.114 C  
HETATM   19  C   UNL     1      -8.105   7.581  67.930  1.00  0.00    -0.119 C  
HETATM   20  C   UNL     1      -9.620   8.468  66.142  1.00  0.00    -0.276 C  
HETATM   21  O   UNL     1      -8.175   5.165  67.504  1.00  0.00    -0.103 OA 
HETATM   22  C   UNL     1      -6.752   7.639  68.652  1.00  0.00    -0.054 C  
HETATM   23  H   UNL     1      -8.126   5.444  66.598  1.00  0.00     0.000 HD 
HETATM   24  C   UNL     1      -5.925   8.875  68.257  1.00  0.00    -0.042 C  
HETATM   25  C   UNL     1      -5.829   9.051  66.747  1.00  0.00    -0.052 C  
ENDROOT
BRANCH   5  26
HETATM   26  C   UNL     1     -11.498   9.919  70.126  1.00  0.00    -0.309 C  
BRANCH  26  27
HETATM   27  C   UNL     1     -11.152  11.314  69.612  1.00  0.00    -0.273 C  
HETATM   28  C   UNL     1     -11.562  11.467  68.156  1.00  0.00    -0.378 C  
ENDBRANCH  26  27
ENDBRANCH   5  26
BRANCH   9  29
HETATM   29  C   UNL     1      -9.439   7.240  72.930  1.00  0.00    -0.159 C  
HETATM   30  O   UNL     1      -8.592   7.272  73.838  1.00  0.00    -0.148 OA 
BRANCH  29  31
HETATM   31  C   UNL     1     -10.862   6.758  73.219  1.00  0.00    -0.272 C  
HETATM   32  O   UNL     1     -11.809   7.815  73.301  1.00  0.00    -0.651 OA 
HETATM   33  H   UNL     1     -12.693   7.515  73.481  1.00  0.00     0.000 HD 
ENDBRANCH  29  31
ENDBRANCH   9  29
TORSDOF 4
ENDMDL
MODEL       56
REMARK 921   NORMALIZED FREE ENERGY PREDICTED BY IDOCK:   -4.58 KCAL/MOL
REMARK 922        TOTAL FREE ENERGY PREDICTED BY IDOCK:   -5.92 KCAL/MOL
REMARK 923 INTER-LIGAND FREE ENERGY PREDICTED BY IDOCK:   -5.11 KCAL/MOL
REMARK 924 INTRA-LIGAND FREE ENERGY PREDICTED BY IDOCK:   -0.81 KCAL/MOL
REMARK 927      BINDING AFFINITY PREDICTED BY RF-SCORE:    0.00 PKD
ROOT
HETATM    1  C   UNL     1      -8.116   5.386  68.504  1.00  0.00    -0.095 C  
HETATM    2  C   UNL     1      -6.909   5.434  69.474  1.00  0.00    -0.057 C  
HETATM    3  C   UNL     1      -7.456   5.831  70.831  1.00  0.00    -0.090 C  
HETATM    4  O   UNL     1      -7.642   7.245  70.895  1.00  0.00    -0.082 OA 
HETATM    5  C   UNL     1      -8.924   7.456  71.471  1.00  0.00    -0.125 C  
HETATM    6  O   UNL     1      -8.168  12.848  68.276  1.00  0.00    -0.150 OA 
HETATM    7  O   UNL     1      -9.595   6.216  71.620  1.00  0.00    -0.152 OA 
HETATM    8  C   UNL     1      -9.664  11.138  68.889  1.00  0.00    -0.163 C  
HETATM    9  C   UNL     1      -8.833   5.204  70.927  1.00  0.00    -0.134 C  
HETATM   10  C   UNL     1      -8.516  11.682  68.144  1.00  0.00    -0.156 C  
HETATM   11  C   UNL     1      -9.299   4.903  69.431  1.00  0.00    -0.186 C  
HETATM   12  C   UNL     1      -7.776  10.744  67.275  1.00  0.00    -0.109 C  
HETATM   13  C   UNL     1      -9.435   3.385  69.099  1.00  0.00    -0.211 C  
HETATM   14  C   UNL     1     -10.571   9.049  66.336  1.00  0.00     0.043 C  
HETATM   15  C   UNL     1      -8.235   9.506  67.016  1.00  0.00    -0.113 C  
HETATM   16  C   UNL     1     -10.692   5.501  69.160  1.00  0.00    -0.260 C  
HETATM   17  C   UNL     1      -9.585   8.992  67.515  1.00  0.00    -0.182 C  
HETATM   18  C   UNL     1     -10.764   6.836  68.427  1.00  0.00    -0.232 C  
HETATM   19  C   UNL     1      -9.426   7.564  68.160  1.00  0.00    -0.147 C  
HETATM   20  C   UNL     1     -10.147   9.924  68.598  1.00  0.00    -0.191 C  
HETATM   21  O   UNL     1     -11.462   6.579  67.205  1.00  0.00    -0.768 OA 
HETATM   22  C   UNL     1      -8.404   6.596  67.549  1.00  0.00    -0.121 C  
HETATM   23  H   UNL     1     -11.507   7.411  66.748  1.00  0.00     0.000 HD 
HETATM   24  C   UNL     1      -7.120   7.306  67.089  1.00  0.00    -0.087 C  
HETATM   25  C   UNL     1      -7.409   8.527  66.225  1.00  0.00    -0.079 C  
ENDROOT
BRANCH   5  26
HETATM   26  C   UNL     1      -8.806   8.298  72.729  1.00  0.00    -0.310 C  
BRANCH  26  27
HETATM   27  C   UNL     1      -9.064   7.485  73.995  1.00  0.00    -0.295 C  
HETATM   28  C   UNL     1      -7.771   6.880  74.517  1.00  0.00    -0.132 C  
ENDBRANCH  26  27
ENDBRANCH   5  26
BRANCH   9  29
HETATM   29  C   UNL     1      -8.844   3.991  71.874  1.00  0.00    -0.113 C  
HETATM   30  O   UNL     1      -7.824   3.333  72.133  1.00  0.00    -0.056 OA 
BRANCH  29  31
HETATM   31  C   UNL     1     -10.198   3.576  72.456  1.00  0.00    -0.157 C  
HETATM   32  O   UNL     1     -10.742   4.533  73.355  1.00  0.00    -0.197 OA 
HETATM   33  H   UNL     1     -11.582   4.275  73.717  1.00  0.00     0.000 HD 
ENDBRANCH  29  31
ENDBRANCH   9  29
TORSDOF 4
ENDMDL
MODEL       57
REMARK 921   NORMALIZED FREE ENERGY PREDICTED BY IDOCK:   -4.49 KCAL/MOL
REMARK 922        TOTAL FREE ENERGY PREDICTED BY IDOCK:   -5.81 KCAL/MOL
REMARK 923 INTER-LIGAND FREE ENERGY PREDICTED BY IDOCK:   -5.54 KCAL/MOL
REMARK 924 INTRA-LIGAND FREE ENERGY PREDICTED BY IDOCK:   -0.27 KCAL/MOL
REMARK 927      BINDING AFFINITY PREDICTED BY RF-SCORE:    0.00 PKD
ROOT
HETATM    1  C   UNL     1     -11.155  15.314  67.505  1.00  0.00    -0.324 C  
HETATM    2  C   UNL     1     -11.041  15.651  69.014  1.00  0.00    -0.279 C  
HETATM    3  C   UNL     1      -9.568  15.862  69.303  1.00  0.00    -0.266 C  
HETATM    4  O   UNL     1      -8.912  14.605  69.471  1.00  0.00     0.042 OA 
HETATM    5  C   UNL     1      -7.710  14.674  68.716  1.00  0.00    -0.137 C  
HETATM    6  O   UNL     1      -8.626   8.430  68.905  1.00  0.00    -0.132 OA 
HETATM    7  O   UNL     1      -7.681  15.875  67.964  1.00  0.00    -0.128 OA 
HETATM    8  C   UNL     1      -7.970  10.266  67.586  1.00  0.00    -0.102 C  
HETATM    9  C   UNL     1      -8.982  16.496  68.055  1.00  0.00    -0.204 C  
HETATM   10  C   UNL     1      -8.959   9.442  68.303  1.00  0.00    -0.128 C  
HETATM   11  C   UNL     1      -9.986  16.158  66.861  1.00  0.00    -0.258 C  
HETATM   12  C   UNL     1     -10.357   9.924  68.304  1.00  0.00    -0.232 C  
HETATM   13  C   UNL     1     -10.711  17.404  66.267  1.00  0.00    -0.082 C  
HETATM   14  C   UNL     1     -10.187  11.125  65.126  1.00  0.00    -0.347 C  
HETATM   15  C   UNL     1     -10.753  10.951  67.530  1.00  0.00    -0.299 C  
HETATM   16  C   UNL     1      -9.234  15.525  65.676  1.00  0.00    -0.085 C  
HETATM   17  C   UNL     1      -9.833  11.649  66.529  1.00  0.00    -0.228 C  
HETATM   18  C   UNL     1      -9.278  14.008  65.533  1.00  0.00     0.579 C  
HETATM   19  C   UNL     1      -9.937  13.212  66.683  1.00  0.00    -0.270 C  
HETATM   20  C   UNL     1      -8.370  11.259  66.781  1.00  0.00    -0.156 C  
HETATM   21  O   UNL     1      -9.932  13.747  64.287  1.00  0.00    -0.742 OA 
HETATM   22  C   UNL     1     -11.297  13.823  67.043  1.00  0.00    -0.345 C  
HETATM   23  H   UNL     1      -9.960  12.802  64.198  1.00  0.00     0.000 HD 
HETATM   24  C   UNL     1     -12.082  12.964  68.050  1.00  0.00    -0.202 C  
HETATM   25  C   UNL     1     -12.151  11.500  67.635  1.00  0.00     0.180 C  
ENDROOT
BRANCH   5  26
HETATM   26  C   UNL     1      -6.509  14.427  69.611  1.00  0.00    -0.145 C  
BRANCH  26  27
HETATM   27  C   UNL     1      -5.414  15.470  69.409  1.00  0.00    -0.107 C  
HETATM   28  C   UNL     1      -5.534  16.582  70.438  1.00  0.00    -0.181 C  
ENDBRANCH  26  27
ENDBRANCH   5  26
BRANCH   9  29
HETATM   29  C   UNL     1      -8.686  17.992  68.260  1.00  0.00    -0.283 C  
HETATM   30  O   UNL     1      -9.303  18.691  69.079  1.00  0.00    -0.263 OA 
BRANCH  29  31
HETATM   31  C   UNL     1      -7.621  18.620  67.357  1.00  0.00    -0.227 C  
HETATM   32  O   UNL     1      -6.954  17.674  66.532  1.00  0.00    -0.193 OA 
HETATM   33  H   UNL     1      -6.293  18.064  65.972  1.00  0.00     0.000 HD 
ENDBRANCH  29  31
ENDBRANCH   9  29
TORSDOF 4
ENDMDL
MODEL       58
REMARK 921   NORMALIZED FREE ENERGY PREDICTED BY IDOCK:   -4.43 KCAL/MOL
REMARK 922        TOTAL FREE ENERGY PREDICTED BY IDOCK:   -5.73 KCAL/MOL
REMARK 923 INTER-LIGAND FREE ENERGY PREDICTED BY IDOCK:   -5.19 KCAL/MOL
REMARK 924 INTRA-LIGAND FREE ENERGY PREDICTED BY IDOCK:   -0.54 KCAL/MOL
REMARK 927      BINDING AFFINITY PREDICTED BY RF-SCORE:    0.00 PKD
ROOT
HETATM    1  C   UNL     1     -10.222   7.679  68.346  1.00  0.00    -0.226 C  
HETATM    2  C   UNL     1     -11.361   6.649  68.553  1.00  0.00    -0.128 C  
HETATM    3  C   UNL     1     -11.202   6.099  69.957  1.00  0.00    -0.401 C  
HETATM    4  O   UNL     1     -10.198   5.085  69.979  1.00  0.00    -0.257 OA 
HETATM    5  C   UNL     1      -9.378   5.355  71.109  1.00  0.00    -0.150 C  
HETATM    6  O   UNL     1      -5.369   2.069  67.505  1.00  0.00    -0.015 OA 
HETATM    7  O   UNL     1      -9.753   6.592  71.691  1.00  0.00    -0.164 OA 
HETATM    8  C   UNL     1      -5.634   3.908  68.949  1.00  0.00    -0.017 C  
HETATM    9  C   UNL     1     -10.682   7.247  70.800  1.00  0.00    -0.231 C  
HETATM   10  C   UNL     1      -5.823   3.192  67.675  1.00  0.00    -0.023 C  
HETATM   11  C   UNL     1     -10.033   8.296  69.787  1.00  0.00    -0.191 C  
HETATM   12  C   UNL     1      -6.629   3.870  66.639  1.00  0.00    -0.045 C  
HETATM   13  C   UNL     1     -10.788   9.658  69.711  1.00  0.00    -0.274 C  
HETATM   14  C   UNL     1      -5.450   6.964  67.420  1.00  0.00    -0.013 C  
HETATM   15  C   UNL     1      -7.008   5.155  66.764  1.00  0.00    -0.064 C  
HETATM   16  C   UNL     1      -8.598   8.654  70.215  1.00  0.00    -0.144 C  
HETATM   17  C   UNL     1      -6.576   6.046  67.928  1.00  0.00    -0.056 C  
HETATM   18  C   UNL     1      -7.447   7.950  69.505  1.00  0.00    -0.093 C  
HETATM   19  C   UNL     1      -7.816   6.811  68.527  1.00  0.00    -0.118 C  
HETATM   20  C   UNL     1      -5.971   5.200  69.057  1.00  0.00    -0.021 C  
HETATM   21  O   UNL     1      -6.705   8.977  68.841  1.00  0.00    -0.052 OA 
HETATM   22  C   UNL     1      -8.924   7.268  67.569  1.00  0.00    -0.122 C  
HETATM   23  H   UNL     1      -5.987   8.539  68.399  1.00  0.00     0.000 HD 
HETATM   24  C   UNL     1      -9.201   6.244  66.455  1.00  0.00    -0.173 C  
HETATM   25  C   UNL     1      -7.927   5.790  65.754  1.00  0.00    -0.110 C  
ENDROOT
BRANCH   5  26
HETATM   26  C   UNL     1      -9.360   4.162  72.047  1.00  0.00    -0.184 C  
BRANCH  26  27
HETATM   27  C   UNL     1      -8.573   2.987  71.473  1.00  0.00    -0.102 C  
HETATM   28  C   UNL     1      -9.514   1.924  70.931  1.00  0.00    -0.199 C  
ENDBRANCH  26  27
ENDBRANCH   5  26
BRANCH   9  29
HETATM   29  C   UNL     1     -11.773   7.817  71.725  1.00  0.00    -0.284 C  
HETATM   30  O   UNL     1     -11.517   8.570  72.677  1.00  0.00    -0.351 OA 
BRANCH  29  31
HETATM   31  C   UNL     1     -13.212   7.368  71.460  1.00  0.00    -0.372 C  
HETATM   32  O   UNL     1     -14.097   8.445  71.188  1.00  0.00    -0.607 OA 
HETATM   33  H   UNL     1     -14.991   8.166  71.024  1.00  0.00     0.000 HD 
ENDBRANCH  29  31
ENDBRANCH   9  29
TORSDOF 4
ENDMDL
MODEL       59
REMARK 921   NORMALIZED FREE ENERGY PREDICTED BY IDOCK:   -4.42 KCAL/MOL
REMARK 922        TOTAL FREE ENERGY PREDICTED BY IDOCK:   -5.71 KCAL/MOL
REMARK 923 INTER-LIGAND FREE ENERGY PREDICTED BY IDOCK:   -5.36 KCAL/MOL
REMARK 924 INTRA-LIGAND FREE ENERGY PREDICTED BY IDOCK:   -0.36 KCAL/MOL
REMARK 927      BINDING AFFINITY PREDICTED BY RF-SCORE:    0.00 PKD
ROOT
HETATM    1  C   UNL     1     -10.425   6.808  68.798  1.00  0.00    -0.231 C  
HETATM    2  C   UNL     1     -11.585   6.513  69.783  1.00  0.00    -0.392 C  
HETATM    3  C   UNL     1     -11.290   7.289  71.051  1.00  0.00    -0.274 C  
HETATM    4  O   UNL     1     -10.345   6.582  71.854  1.00  0.00    -0.198 OA 
HETATM    5  C   UNL     1      -9.384   7.538  72.281  1.00  0.00    -0.145 C  
HETATM    6  O   UNL     1      -6.014   2.216  72.695  1.00  0.00    -0.008 OA 
HETATM    7  O   UNL     1      -9.621   8.779  71.637  1.00  0.00    -0.245 OA 
HETATM    8  C   UNL     1      -6.006   4.485  72.071  1.00  0.00    -0.016 C  
HETATM    9  C   UNL     1     -10.613   8.572  70.609  1.00  0.00    -0.209 C  
HETATM   10  C   UNL     1      -6.384   3.071  71.901  1.00  0.00    -0.015 C  
HETATM   11  C   UNL     1     -10.034   8.298  69.146  1.00  0.00    -0.196 C  
HETATM   12  C   UNL     1      -7.270   2.745  70.764  1.00  0.00    -0.033 C  
HETATM   13  C   UNL     1     -10.718   9.135  68.023  1.00  0.00    -0.205 C  
HETATM   14  C   UNL     1      -5.842   5.040  68.698  1.00  0.00    -0.021 C  
HETATM   15  C   UNL     1      -7.562   3.650  69.812  1.00  0.00    -0.051 C  
HETATM   16  C   UNL     1      -8.540   8.667  69.071  1.00  0.00    -0.129 C  
HETATM   17  C   UNL     1      -6.947   5.049  69.769  1.00  0.00    -0.053 C  
HETATM   18  C   UNL     1      -7.521   7.539  69.188  1.00  0.00    -0.098 C  
HETATM   19  C   UNL     1      -8.064   6.135  69.539  1.00  0.00    -0.112 C  
HETATM   20  C   UNL     1      -6.258   5.374  71.102  1.00  0.00    -0.033 C  
HETATM   21  O   UNL     1      -6.809   7.519  67.947  1.00  0.00    -0.066 OA 
HETATM   22  C   UNL     1      -9.253   5.781  68.636  1.00  0.00    -0.125 C  
HETATM   23  H   UNL     1      -6.174   6.817  68.020  1.00  0.00     0.000 HD 
HETATM   24  C   UNL     1      -9.714   4.324  68.811  1.00  0.00    -0.184 C  
HETATM   25  C   UNL     1      -8.558   3.335  68.729  1.00  0.00    -0.120 C  
ENDROOT
BRANCH   5  26
HETATM   26  C   UNL     1      -9.319   7.582  73.797  1.00  0.00    -0.331 C  
BRANCH  26  27
HETATM   27  C   UNL     1      -7.883   7.616  74.313  1.00  0.00    -0.217 C  
HETATM   28  C   UNL     1      -6.969   8.306  73.313  1.00  0.00    -0.142 C  
ENDBRANCH  26  27
ENDBRANCH   5  26
BRANCH   9  29
HETATM   29  C   UNL     1     -11.554   9.784  70.724  1.00  0.00    -0.339 C  
HETATM   30  O   UNL     1     -11.261  10.905  70.278  1.00  0.00    -0.283 OA 
BRANCH  29  31
HETATM   31  C   UNL     1     -12.870   9.573  71.477  1.00  0.00    -0.377 C  
HETATM   32  O   UNL     1     -14.001   9.494  70.621  1.00  0.00    -0.508 OA 
HETATM   33  H   UNL     1     -14.819   9.363  71.088  1.00  0.00     0.000 HD 
ENDBRANCH  29  31
ENDBRANCH   9  29
TORSDOF 4
ENDMDL
MODEL       60
REMARK 921   NORMALIZED FREE ENERGY PREDICTED BY IDOCK:   -4.36 KCAL/MOL
REMARK 922        TOTAL FREE ENERGY PREDICTED BY IDOCK:   -5.65 KCAL/MOL
REMARK 923 INTER-LIGAND FREE ENERGY PREDICTED BY IDOCK:   -4.81 KCAL/MOL
REMARK 924 INTRA-LIGAND FREE ENERGY PREDICTED BY IDOCK:   -0.85 KCAL/MOL
REMARK 927      BINDING AFFINITY PREDICTED BY RF-SCORE:    0.00 PKD
ROOT
HETATM    1  C   UNL     1     -10.367   7.637  72.105  1.00  0.00    -0.270 C  
HETATM    2  C   UNL     1     -11.497   6.794  71.461  1.00  0.00    -0.329 C  
HETATM    3  C   UNL     1     -10.852   5.526  70.938  1.00  0.00    -0.176 C  
HETATM    4  O   UNL     1     -10.232   5.771  69.676  1.00  0.00    -0.190 OA 
HETATM    5  C   UNL     1      -8.947   5.165  69.734  1.00  0.00    -0.110 C  
HETATM    6  O   UNL     1      -7.980   9.547  65.294  1.00  0.00    -0.106 OA 
HETATM    7  O   UNL     1      -8.698   4.689  71.047  1.00  0.00    -0.110 OA 
HETATM    8  C   UNL     1      -7.094   8.454  67.180  1.00  0.00    -0.079 C  
HETATM    9  C   UNL     1      -9.740   5.189  71.913  1.00  0.00    -0.161 C  
HETATM   10  C   UNL     1      -8.015   9.386  66.507  1.00  0.00    -0.108 C  
HETATM   11  C   UNL     1      -9.393   6.540  72.690  1.00  0.00    -0.145 C  
HETATM   12  C   UNL     1      -9.013  10.071  67.354  1.00  0.00    -0.139 C  
HETATM   13  C   UNL     1      -9.740   6.507  74.209  1.00  0.00    -0.309 C  
HETATM   14  C   UNL     1      -6.890  10.392  69.992  1.00  0.00    -0.151 C  
HETATM   15  C   UNL     1      -8.965  10.008  68.697  1.00  0.00    -0.136 C  
HETATM   16  C   UNL     1      -7.883   6.836  72.627  1.00  0.00    -0.100 C  
HETATM   17  C   UNL     1      -7.844   9.307  69.463  1.00  0.00    -0.086 C  
HETATM   18  C   UNL     1      -7.398   7.846  71.592  1.00  0.00    -0.070 C  
HETATM   19  C   UNL     1      -8.441   8.368  70.578  1.00  0.00    -0.133 C  
HETATM   20  C   UNL     1      -7.016   8.426  68.517  1.00  0.00    -0.069 C  
HETATM   21  O   UNL     1      -6.818   8.923  72.334  1.00  0.00    -0.287 OA 
HETATM   22  C   UNL     1      -9.715   8.817  71.305  1.00  0.00    -0.335 C  
HETATM   23  H   UNL     1      -6.515   9.552  71.690  1.00  0.00     0.000 HD 
HETATM   24  C   UNL     1     -10.713   9.519  70.369  1.00  0.00    -0.341 C  
HETATM   25  C   UNL     1     -10.058  10.615  69.537  1.00  0.00    -0.164 C  
ENDROOT
BRANCH   5  26
HETATM   26  C   UNL     1      -8.793   4.144  68.622  1.00  0.00    -0.141 C  
BRANCH  26  27
HETATM   27  C   UNL     1      -7.457   4.276  67.896  1.00  0.00    -0.068 C  
HETATM   28  C   UNL     1      -6.428   4.956  68.785  1.00  0.00    -0.037 C  
ENDBRANCH  26  27
ENDBRANCH   5  26
BRANCH   9  29
HETATM   29  C   UNL     1     -10.108   3.993  72.809  1.00  0.00    -0.159 C  
HETATM   30  O   UNL     1     -11.274   3.756  73.163  1.00  0.00    -0.151 OA 
BRANCH  29  31
HETATM   31  C   UNL     1      -8.955   3.119  73.309  1.00  0.00    -0.086 C  
HETATM   32  O   UNL     1      -8.570   2.112  72.383  1.00  0.00    -0.061 OA 
HETATM   33  H   UNL     1      -7.855   1.568  72.693  1.00  0.00     0.000 HD 
ENDBRANCH  29  31
ENDBRANCH   9  29
TORSDOF 4
ENDMDL
MODEL       61
REMARK 921   NORMALIZED FREE ENERGY PREDICTED BY IDOCK:   -4.34 KCAL/MOL
REMARK 922        TOTAL FREE ENERGY PREDICTED BY IDOCK:   -5.63 KCAL/MOL
REMARK 923 INTER-LIGAND FREE ENERGY PREDICTED BY IDOCK:   -5.90 KCAL/MOL
REMARK 924 INTRA-LIGAND FREE ENERGY PREDICTED BY IDOCK:    0.28 KCAL/MOL
REMARK 927      BINDING AFFINITY PREDICTED BY RF-SCORE:    0.00 PKD
ROOT
HETATM    1  C   UNL     1      -8.511  10.888  68.164  1.00  0.00    -0.131 C  
HETATM    2  C   UNL     1      -7.456  10.338  67.171  1.00  0.00    -0.092 C  
HETATM    3  C   UNL     1      -8.170   9.333  66.289  1.00  0.00    -0.107 C  
HETATM    4  O   UNL     1      -8.282   8.078  66.960  1.00  0.00    -0.113 OA 
HETATM    5  C   UNL     1      -9.620   7.637  66.768  1.00  0.00    -0.209 C  
HETATM    6  O   UNL     1      -8.103   4.524  72.046  1.00  0.00    -0.096 OA 
HETATM    7  O   UNL     1     -10.376   8.654  66.132  1.00  0.00    -0.123 OA 
HETATM    8  C   UNL     1      -9.768   5.737  70.908  1.00  0.00    -0.218 C  
HETATM    9  C   UNL     1      -9.581   9.859  66.109  1.00  0.00    -0.218 C  
HETATM   10  C   UNL     1      -8.494   5.609  71.638  1.00  0.00    -0.131 C  
HETATM   11  C   UNL     1      -9.842  10.874  67.314  1.00  0.00    -0.202 C  
HETATM   12  C   UNL     1      -7.691   6.839  71.806  1.00  0.00    -0.096 C  
HETATM   13  C   UNL     1     -10.015  12.358  66.870  1.00  0.00    -0.223 C  
HETATM   14  C   UNL     1     -10.415   8.837  72.203  1.00  0.00    -0.384 C  
HETATM   15  C   UNL     1      -8.179   8.052  71.487  1.00  0.00    -0.135 C  
HETATM   16  C   UNL     1     -11.145  10.519  68.055  1.00  0.00    -0.361 C  
HETATM   17  C   UNL     1      -9.613   8.280  71.014  1.00  0.00    -0.197 C  
HETATM   18  C   UNL     1     -11.033   9.725  69.351  1.00  0.00    -0.212 C  
HETATM   19  C   UNL     1      -9.632   9.196  69.733  1.00  0.00    -0.191 C  
HETATM   20  C   UNL     1     -10.272   6.947  70.633  1.00  0.00    -0.212 C  
HETATM   21  O   UNL     1     -11.561  10.570  70.379  1.00  0.00    -0.293 OA 
HETATM   22  C   UNL     1      -8.590  10.317  69.622  1.00  0.00    -0.126 C  
HETATM   23  H   UNL     1     -11.492  10.076  71.186  1.00  0.00     0.000 HD 
HETATM   24  C   UNL     1      -7.213   9.901  70.168  1.00  0.00    -0.159 C  
HETATM   25  C   UNL     1      -7.304   9.275  71.555  1.00  0.00     0.134 C  
ENDROOT
BRANCH   5  26
HETATM   26  C   UNL     1      -9.637   6.280  66.088  1.00  0.00    -0.059 C  
BRANCH  26  27
HETATM   27  C   UNL     1     -10.652   5.330  66.718  1.00  0.00    -0.309 C  
HETATM   28  C   UNL     1      -9.948   4.225  67.488  1.00  0.00    -0.100 C  
ENDBRANCH  26  27
ENDBRANCH   5  26
BRANCH   9  29
HETATM   29  C   UNL     1      -9.798  10.443  64.702  1.00  0.00    -0.338 C  
HETATM   30  O   UNL     1      -9.036  10.202  63.751  1.00  0.00    -0.219 OA 
BRANCH  29  31
HETATM   31  C   UNL     1     -10.978  11.400  64.521  1.00  0.00    -0.277 C  
HETATM   32  O   UNL     1     -10.811  12.303  63.437  1.00  0.00    -0.506 OA 
HETATM   33  H   UNL     1     -11.544  12.898  63.325  1.00  0.00     0.000 HD 
ENDBRANCH  29  31
ENDBRANCH   9  29
TORSDOF 4
ENDMDL
MODEL       62
REMARK 921   NORMALIZED FREE ENERGY PREDICTED BY IDOCK:   -4.25 KCAL/MOL
REMARK 922        TOTAL FREE ENERGY PREDICTED BY IDOCK:   -5.52 KCAL/MOL
REMARK 923 INTER-LIGAND FREE ENERGY PREDICTED BY IDOCK:   -5.41 KCAL/MOL
REMARK 924 INTRA-LIGAND FREE ENERGY PREDICTED BY IDOCK:   -0.11 KCAL/MOL
REMARK 927      BINDING AFFINITY PREDICTED BY RF-SCORE:    0.00 PKD
ROOT
HETATM    1  C   UNL     1     -10.999   6.078  70.500  1.00  0.00    -0.388 C  
HETATM    2  C   UNL     1     -10.116   4.854  70.147  1.00  0.00    -0.332 C  
HETATM    3  C   UNL     1      -8.898   4.920  71.046  1.00  0.00    -0.126 C  
HETATM    4  O   UNL     1      -7.942   5.839  70.518  1.00  0.00    -0.101 OA 
HETATM    5  C   UNL     1      -7.505   6.638  71.610  1.00  0.00    -0.088 C  
HETATM    6  O   UNL     1      -6.280  10.496  66.766  1.00  0.00    -0.061 OA 
HETATM    7  O   UNL     1      -8.277   6.341  72.762  1.00  0.00    -0.112 OA 
HETATM    8  C   UNL     1      -7.098  10.328  68.966  1.00  0.00    -0.072 C  
HETATM    9  C   UNL     1      -9.380   5.499  72.362  1.00  0.00    -0.143 C  
HETATM   10  C   UNL     1      -7.179  10.127  67.509  1.00  0.00    -0.088 C  
HETATM   11  C   UNL     1     -10.745   6.265  72.048  1.00  0.00    -0.268 C  
HETATM   12  C   UNL     1      -8.368   9.414  66.996  1.00  0.00    -0.127 C  
HETATM   13  C   UNL     1     -12.002   5.623  72.711  1.00  0.00    -0.088 C  
HETATM   14  C   UNL     1     -10.471  10.808  69.278  1.00  0.00    -0.243 C  
HETATM   15  C   UNL     1      -9.421   9.134  67.786  1.00  0.00    -0.160 C  
HETATM   16  C   UNL     1     -10.699   7.708  72.582  1.00  0.00    -0.377 C  
HETATM   17  C   UNL     1      -9.525   9.595  69.239  1.00  0.00    -0.184 C  
HETATM   18  C   UNL     1     -10.379   8.824  71.593  1.00  0.00    -0.321 C  
HETATM   19  C   UNL     1      -9.963   8.400  70.166  1.00  0.00    -0.190 C  
HETATM   20  C   UNL     1      -8.162  10.091  69.744  1.00  0.00    -0.191 C  
HETATM   21  O   UNL     1     -11.534   9.668  71.563  1.00  0.00    -0.377 OA 
HETATM   22  C   UNL     1     -10.949   7.365  69.608  1.00  0.00    -0.186 C  
HETATM   23  H   UNL     1     -11.334  10.363  70.947  1.00  0.00     0.000 HD 
HETATM   24  C   UNL     1     -10.694   7.047  68.125  1.00  0.00    -0.242 C  
HETATM   25  C   UNL     1     -10.569   8.306  67.274  1.00  0.00    -0.335 C  
ENDROOT
BRANCH   5  26
HETATM   26  C   UNL     1      -6.001   6.527  71.777  1.00  0.00    -0.037 C  
BRANCH  26  27
HETATM   27  C   UNL     1      -5.435   7.633  72.664  1.00  0.00    -0.036 C  
HETATM   28  C   UNL     1      -5.706   9.000  72.057  1.00  0.00    -0.069 C  
ENDBRANCH  26  27
ENDBRANCH   5  26
BRANCH   9  29
HETATM   29  C   UNL     1      -9.469   4.426  73.461  1.00  0.00    -0.117 C  
HETATM   30  O   UNL     1     -10.168   4.564  74.478  1.00  0.00    -0.199 OA 
BRANCH  29  31
HETATM   31  C   UNL     1      -8.602   3.177  73.284  1.00  0.00    -0.081 C  
HETATM   32  O   UNL     1      -9.342   1.965  73.339  1.00  0.00    -0.071 OA 
HETATM   33  H   UNL     1      -8.804   1.189  73.229  1.00  0.00     0.000 HD 
ENDBRANCH  29  31
ENDBRANCH   9  29
TORSDOF 4
ENDMDL
MODEL       63
REMARK 921   NORMALIZED FREE ENERGY PREDICTED BY IDOCK:   -4.20 KCAL/MOL
REMARK 922        TOTAL FREE ENERGY PREDICTED BY IDOCK:   -5.45 KCAL/MOL
REMARK 923 INTER-LIGAND FREE ENERGY PREDICTED BY IDOCK:   -5.55 KCAL/MOL
REMARK 924 INTRA-LIGAND FREE ENERGY PREDICTED BY IDOCK:    0.10 KCAL/MOL
REMARK 927      BINDING AFFINITY PREDICTED BY RF-SCORE:    0.00 PKD
ROOT
HETATM    1  C   UNL     1      -9.057   6.292  69.485  1.00  0.00    -0.137 C  
HETATM    2  C   UNL     1      -8.274   7.386  70.254  1.00  0.00    -0.132 C  
HETATM    3  C   UNL     1      -8.904   8.714  69.885  1.00  0.00    -0.144 C  
HETATM    4  O   UNL     1      -8.411   9.162  68.622  1.00  0.00    -0.124 OA 
HETATM    5  C   UNL     1      -9.542   9.598  67.880  1.00  0.00    -0.139 C  
HETATM    6  O   UNL     1      -5.521   8.242  63.206  1.00  0.00    -0.061 OA 
HETATM    7  O   UNL     1     -10.731   9.289  68.588  1.00  0.00    -0.209 OA 
HETATM    8  C   UNL     1      -7.748   8.126  63.957  1.00  0.00    -0.137 C  
HETATM    9  C   UNL     1     -10.385   8.440  69.703  1.00  0.00    -0.218 C  
HETATM   10  C   UNL     1      -6.329   7.731  63.970  1.00  0.00    -0.057 C  
HETATM   11  C   UNL     1     -10.525   6.872  69.437  1.00  0.00    -0.237 C  
HETATM   12  C   UNL     1      -5.920   6.733  64.980  1.00  0.00    -0.035 C  
HETATM   13  C   UNL     1     -11.268   6.098  70.568  1.00  0.00    -0.403 C  
HETATM   14  C   UNL     1      -8.825   4.978  64.756  1.00  0.00    -0.128 C  
HETATM   15  C   UNL     1      -6.823   6.066  65.723  1.00  0.00    -0.056 C  
HETATM   16  C   UNL     1     -11.344   6.604  68.160  1.00  0.00    -0.079 C  
HETATM   17  C   UNL     1      -8.332   6.210  65.535  1.00  0.00    -0.147 C  
HETATM   18  C   UNL     1     -10.581   6.289  66.878  1.00  0.00    -0.305 C  
HETATM   19  C   UNL     1      -9.042   6.426  66.924  1.00  0.00    -0.138 C  
HETATM   20  C   UNL     1      -8.651   7.432  64.662  1.00  0.00     0.236 C  
HETATM   21  O   UNL     1     -10.968   4.963  66.504  1.00  0.00    -0.411 OA 
HETATM   22  C   UNL     1      -8.478   5.702  68.154  1.00  0.00    -0.098 C  
HETATM   23  H   UNL     1     -10.493   4.767  65.705  1.00  0.00     0.000 HD 
HETATM   24  C   UNL     1      -6.941   5.643  68.151  1.00  0.00    -0.065 C  
HETATM   25  C   UNL     1      -6.381   5.142  66.826  1.00  0.00    -0.040 C  
ENDROOT
BRANCH   5  26
HETATM   26  C   UNL     1      -9.377  11.051  67.470  1.00  0.00    -0.167 C  
BRANCH  26  27
HETATM   27  C   UNL     1     -10.714  11.720  67.162  1.00  0.00    -0.283 C  
HETATM   28  C   UNL     1     -10.936  11.811  65.661  1.00  0.00    -0.348 C  
ENDBRANCH  26  27
ENDBRANCH   5  26
BRANCH   9  29
HETATM   29  C   UNL     1     -11.215   8.982  70.879  1.00  0.00    -0.287 C  
HETATM   30  O   UNL     1     -12.206   9.713  70.719  1.00  0.00    -0.284 OA 
BRANCH  29  31
HETATM   31  C   UNL     1     -10.736   8.630  72.289  1.00  0.00    -0.313 C  
HETATM   32  O   UNL     1     -11.719   7.961  73.068  1.00  0.00    -0.604 OA 
HETATM   33  H   UNL     1     -11.421   7.743  73.944  1.00  0.00     0.000 HD 
ENDBRANCH  29  31
ENDBRANCH   9  29
TORSDOF 4
ENDMDL
MODEL       64
REMARK 921   NORMALIZED FREE ENERGY PREDICTED BY IDOCK:   -4.18 KCAL/MOL
REMARK 922        TOTAL FREE ENERGY PREDICTED BY IDOCK:   -5.42 KCAL/MOL
REMARK 923 INTER-LIGAND FREE ENERGY PREDICTED BY IDOCK:   -4.74 KCAL/MOL
REMARK 924 INTRA-LIGAND FREE ENERGY PREDICTED BY IDOCK:   -0.68 KCAL/MOL
REMARK 927      BINDING AFFINITY PREDICTED BY RF-SCORE:    0.00 PKD
ROOT
HETATM    1  C   UNL     1      -9.524   9.598  69.774  1.00  0.00    -0.242 C  
HETATM    2  C   UNL     1      -8.166  10.335  69.651  1.00  0.00    -0.146 C  
HETATM    3  C   UNL     1      -7.492   9.801  68.402  1.00  0.00    -0.083 C  
HETATM    4  O   UNL     1      -6.859   8.552  68.678  1.00  0.00    -0.061 OA 
HETATM    5  C   UNL     1      -7.203   7.681  67.609  1.00  0.00    -0.087 C  
HETATM    6  O   UNL     1      -5.940   3.502  72.169  1.00  0.00    -0.008 OA 
HETATM    7  O   UNL     1      -8.155   8.308  66.765  1.00  0.00    -0.100 OA 
HETATM    8  C   UNL     1      -7.363   4.067  70.381  1.00  0.00    -0.042 C  
HETATM    9  C   UNL     1      -8.606   9.517  67.413  1.00  0.00    -0.125 C  
HETATM   10  C   UNL     1      -6.822   4.235  71.741  1.00  0.00    -0.034 C  
HETATM   11  C   UNL     1      -9.946   9.375  68.269  1.00  0.00    -0.197 C  
HETATM   12  C   UNL     1      -7.356   5.358  72.540  1.00  0.00    -0.095 C  
HETATM   13  C   UNL     1     -10.992  10.500  68.005  1.00  0.00    -0.345 C  
HETATM   14  C   UNL     1     -10.510   5.035  71.308  1.00  0.00    -0.213 C  
HETATM   15  C   UNL     1      -8.420   6.074  72.133  1.00  0.00    -0.124 C  
HETATM   16  C   UNL     1     -10.674   8.060  67.931  1.00  0.00    -0.139 C  
HETATM   17  C   UNL     1      -9.217   5.746  70.871  1.00  0.00    -0.174 C  
HETATM   18  C   UNL     1     -10.487   6.879  68.878  1.00  0.00    -0.208 C  
HETATM   19  C   UNL     1      -9.450   7.045  70.012  1.00  0.00    -0.161 C  
HETATM   20  C   UNL     1      -8.449   4.748  69.994  1.00  0.00    -0.087 C  
HETATM   21  O   UNL     1     -11.784   6.588  69.407  1.00  0.00    -0.649 OA 
HETATM   22  C   UNL     1      -9.668   8.376  70.745  1.00  0.00    -0.207 C  
HETATM   23  H   UNL     1     -11.668   5.852  69.997  1.00  0.00     0.000 HD 
HETATM   24  C   UNL     1      -8.789   8.511  72.000  1.00  0.00    -0.286 C  
HETATM   25  C   UNL     1      -8.873   7.286  72.903  1.00  0.00    -0.163 C  
ENDROOT
BRANCH   5  26
HETATM   26  C   UNL     1      -5.952   7.165  66.923  1.00  0.00    -0.034 C  
BRANCH  26  27
HETATM   27  C   UNL     1      -6.210   5.880  66.140  1.00  0.00    -0.040 C  
HETATM   28  C   UNL     1      -5.330   5.819  64.902  1.00  0.00    -0.010 C  
ENDBRANCH  26  27
ENDBRANCH   5  26
BRANCH   9  29
HETATM   29  C   UNL     1      -8.654  10.567  66.289  1.00  0.00    -0.147 C  
HETATM   30  O   UNL     1      -8.415  11.770  66.485  1.00  0.00    -0.179 OA 
BRANCH  29  31
HETATM   31  C   UNL     1      -9.073  10.080  64.900  1.00  0.00    -0.221 C  
HETATM   32  O   UNL     1      -7.984   9.617  64.114  1.00  0.00    -0.127 OA 
HETATM   33  H   UNL     1      -8.244   9.315  63.251  1.00  0.00     0.000 HD 
ENDBRANCH  29  31
ENDBRANCH   9  29
TORSDOF 4
ENDMDL
MODEL       65
REMARK 921   NORMALIZED FREE ENERGY PREDICTED BY IDOCK:   -4.09 KCAL/MOL
REMARK 922        TOTAL FREE ENERGY PREDICTED BY IDOCK:   -5.32 KCAL/MOL
REMARK 923 INTER-LIGAND FREE ENERGY PREDICTED BY IDOCK:   -4.83 KCAL/MOL
REMARK 924 INTRA-LIGAND FREE ENERGY PREDICTED BY IDOCK:   -0.49 KCAL/MOL
REMARK 927      BINDING AFFINITY PREDICTED BY RF-SCORE:    0.00 PKD
ROOT
HETATM    1  C   UNL     1     -10.138   8.455  70.972  1.00  0.00    -0.242 C  
HETATM    2  C   UNL     1     -10.839   7.098  70.709  1.00  0.00    -0.267 C  
HETATM    3  C   UNL     1      -9.743   6.064  70.550  1.00  0.00    -0.174 C  
HETATM    4  O   UNL     1      -9.206   6.113  69.228  1.00  0.00    -0.131 OA 
HETATM    5  C   UNL     1      -7.792   6.076  69.367  1.00  0.00    -0.099 C  
HETATM    6  O   UNL     1      -8.348   8.877  63.737  1.00  0.00    -0.173 OA 
HETATM    7  O   UNL     1      -7.440   6.163  70.738  1.00  0.00    -0.086 OA 
HETATM    8  C   UNL     1      -7.199   8.839  65.790  1.00  0.00    -0.084 C  
HETATM    9  C   UNL     1      -8.629   6.485  71.489  1.00  0.00    -0.129 C  
HETATM   10  C   UNL     1      -8.373   9.102  64.939  1.00  0.00    -0.162 C  
HETATM   11  C   UNL     1      -8.850   8.038  71.786  1.00  0.00    -0.184 C  
HETATM   12  C   UNL     1      -9.592   9.598  65.613  1.00  0.00    -0.338 C  
HETATM   13  C   UNL     1      -9.226   8.357  73.265  1.00  0.00    -0.170 C  
HETATM   14  C   UNL     1      -7.862  11.490  67.849  1.00  0.00    -0.123 C  
HETATM   15  C   UNL     1      -9.582   9.981  66.903  1.00  0.00    -0.219 C  
HETATM   16  C   UNL     1      -7.561   8.836  71.515  1.00  0.00    -0.130 C  
HETATM   17  C   UNL     1      -8.314  10.022  67.755  1.00  0.00    -0.114 C  
HETATM   18  C   UNL     1      -7.446   9.575  70.187  1.00  0.00    -0.135 C  
HETATM   19  C   UNL     1      -8.563   9.329  69.147  1.00  0.00    -0.134 C  
HETATM   20  C   UNL     1      -7.176   9.261  67.061  1.00  0.00    -0.087 C  
HETATM   21  O   UNL     1      -7.346  10.964  70.514  1.00  0.00    -0.340 OA 
HETATM   22  C   UNL     1      -9.943   9.478  69.801  1.00  0.00    -0.234 C  
HETATM   23  H   UNL     1      -7.273  11.424  69.687  1.00  0.00     0.000 HD 
HETATM   24  C   UNL     1     -11.090   9.430  68.777  1.00  0.00     0.009 C  
HETATM   25  C   UNL     1     -10.858  10.370  67.600  1.00  0.00    -0.361 C  
ENDROOT
BRANCH   5  26
HETATM   26  C   UNL     1      -7.217   4.891  68.612  1.00  0.00    -0.058 C  
BRANCH  26  27
HETATM   27  C   UNL     1      -6.863   5.241  67.169  1.00  0.00    -0.060 C  
HETATM   28  C   UNL     1      -8.103   5.218  66.291  1.00  0.00    -0.109 C  
ENDBRANCH  26  27
ENDBRANCH   5  26
BRANCH   9  29
HETATM   29  C   UNL     1      -8.560   5.584  72.734  1.00  0.00    -0.120 C  
HETATM   30  O   UNL     1      -7.523   5.439  73.400  1.00  0.00    -0.093 OA 
BRANCH  29  31
HETATM   31  C   UNL     1      -9.828   4.807  73.101  1.00  0.00    -0.146 C  
HETATM   32  O   UNL     1      -9.909   3.535  72.475  1.00  0.00    -0.139 OA 
HETATM   33  H   UNL     1     -10.696   3.053  72.703  1.00  0.00     0.000 HD 
ENDBRANCH  29  31
ENDBRANCH   9  29
TORSDOF 4
ENDMDL
MODEL       66
REMARK 921   NORMALIZED FREE ENERGY PREDICTED BY IDOCK:   -4.06 KCAL/MOL
REMARK 922        TOTAL FREE ENERGY PREDICTED BY IDOCK:   -5.28 KCAL/MOL
REMARK 923 INTER-LIGAND FREE ENERGY PREDICTED BY IDOCK:   -4.61 KCAL/MOL
REMARK 924 INTRA-LIGAND FREE ENERGY PREDICTED BY IDOCK:   -0.66 KCAL/MOL
REMARK 927      BINDING AFFINITY PREDICTED BY RF-SCORE:    0.00 PKD
ROOT
HETATM    1  C   UNL     1     -10.780   7.215  68.751  1.00  0.00    -0.199 C  
HETATM    2  C   UNL     1     -11.583   6.225  69.632  1.00  0.00    -0.287 C  
HETATM    3  C   UNL     1     -10.695   5.868  70.808  1.00  0.00    -0.277 C  
HETATM    4  O   UNL     1      -9.754   4.863  70.430  1.00  0.00    -0.178 OA 
HETATM    5  C   UNL     1      -8.494   5.280  70.938  1.00  0.00    -0.121 C  
HETATM    6  O   UNL     1      -6.668   1.530  66.199  1.00  0.00    -0.026 OA 
HETATM    7  O   UNL     1      -8.602   6.585  71.482  1.00  0.00    -0.128 OA 
HETATM    8  C   UNL     1      -6.283   3.547  67.348  1.00  0.00    -0.036 C  
HETATM    9  C   UNL     1      -9.896   7.117  71.125  1.00  0.00    -0.179 C  
HETATM   10  C   UNL     1      -7.047   2.667  66.446  1.00  0.00    -0.053 C  
HETATM   11  C   UNL     1      -9.925   8.019  69.808  1.00  0.00    -0.191 C  
HETATM   12  C   UNL     1      -8.311   3.202  65.899  1.00  0.00    -0.097 C  
HETATM   13  C   UNL     1     -10.703   9.360  69.972  1.00  0.00    -0.270 C  
HETATM   14  C   UNL     1      -7.107   6.369  65.598  1.00  0.00    -0.065 C  
HETATM   15  C   UNL     1      -8.658   4.493  66.051  1.00  0.00    -0.114 C  
HETATM   16  C   UNL     1      -8.499   8.427  69.393  1.00  0.00    -0.125 C  
HETATM   17  C   UNL     1      -7.754   5.531  66.715  1.00  0.00    -0.100 C  
HETATM   18  C   UNL     1      -7.826   7.632  68.280  1.00  0.00    -0.121 C  
HETATM   19  C   UNL     1      -8.564   6.373  67.771  1.00  0.00    -0.116 C  
HETATM   20  C   UNL     1      -6.604   4.842  67.462  1.00  0.00    -0.047 C  
HETATM   21  O   UNL     1      -7.596   8.559  67.215  1.00  0.00    -0.094 OA 
HETATM   22  C   UNL     1     -10.034   6.700  67.473  1.00  0.00    -0.171 C  
HETATM   23  H   UNL     1      -7.176   8.063  66.522  1.00  0.00     0.000 HD 
HETATM   24  C   UNL     1     -10.770   5.537  66.786  1.00  0.00    -0.329 C  
HETATM   25  C   UNL     1     -10.003   4.989  65.589  1.00  0.00    -0.098 C  
ENDROOT
BRANCH   5  26
HETATM   26  C   UNL     1      -7.922   4.224  71.865  1.00  0.00    -0.088 C  
BRANCH  26  27
HETATM   27  C   UNL     1      -6.397   4.269  71.922  1.00  0.00    -0.018 C  
HETATM   28  C   UNL     1      -5.803   2.937  71.495  1.00  0.00    -0.013 C  
ENDBRANCH  26  27
ENDBRANCH   5  26
BRANCH   9  29
HETATM   29  C   UNL     1     -10.400   7.809  72.404  1.00  0.00    -0.253 C  
HETATM   30  O   UNL     1     -11.600   8.059  72.602  1.00  0.00    -0.388 OA 
BRANCH  29  31
HETATM   31  C   UNL     1      -9.343   8.240  73.423  1.00  0.00    -0.116 C  
HETATM   32  O   UNL     1      -9.060   7.245  74.397  1.00  0.00    -0.317 OA 
HETATM   33  H   UNL     1      -8.404   7.513  75.030  1.00  0.00     0.000 HD 
ENDBRANCH  29  31
ENDBRANCH   9  29
TORSDOF 4
ENDMDL
MODEL       67
REMARK 921   NORMALIZED FREE ENERGY PREDICTED BY IDOCK:   -4.03 KCAL/MOL
REMARK 922        TOTAL FREE ENERGY PREDICTED BY IDOCK:   -5.24 KCAL/MOL
REMARK 923 INTER-LIGAND FREE ENERGY PREDICTED BY IDOCK:   -4.45 KCAL/MOL
REMARK 924 INTRA-LIGAND FREE ENERGY PREDICTED BY IDOCK:   -0.80 KCAL/MOL
REMARK 927      BINDING AFFINITY PREDICTED BY RF-SCORE:    0.00 PKD
ROOT
HETATM    1  C   UNL     1      -9.261   8.570  71.390  1.00  0.00    -0.272 C  
HETATM    2  C   UNL     1      -8.103   9.460  70.873  1.00  0.00    -0.100 C  
HETATM    3  C   UNL     1      -8.296   9.601  69.376  1.00  0.00    -0.145 C  
HETATM    4  O   UNL     1      -7.793   8.448  68.701  1.00  0.00    -0.111 OA 
HETATM    5  C   UNL     1      -8.779   8.078  67.747  1.00  0.00    -0.127 C  
HETATM    6  O   UNL     1      -5.829   2.561  68.589  1.00  0.00    -0.022 OA 
HETATM    7  O   UNL     1      -9.940   8.874  67.920  1.00  0.00    -0.162 OA 
HETATM    8  C   UNL     1      -7.901   3.641  68.309  1.00  0.00    -0.067 C  
HETATM    9  C   UNL     1      -9.795   9.622  69.147  1.00  0.00    -0.186 C  
HETATM   10  C   UNL     1      -6.691   3.283  69.070  1.00  0.00    -0.037 C  
HETATM   11  C   UNL     1     -10.460   8.955  70.436  1.00  0.00    -0.245 C  
HETATM   12  C   UNL     1      -6.545   3.879  70.415  1.00  0.00    -0.032 C  
HETATM   13  C   UNL     1     -11.315   9.938  71.292  1.00  0.00    -0.404 C  
HETATM   14  C   UNL     1      -9.870   3.702  71.106  1.00  0.00    -0.200 C  
HETATM   15  C   UNL     1      -7.549   4.555  71.003  1.00  0.00    -0.064 C  
HETATM   16  C   UNL     1     -11.426   7.826  70.032  1.00  0.00     0.023 C  
HETATM   17  C   UNL     1      -8.940   4.694  70.386  1.00  0.00    -0.147 C  
HETATM   18  C   UNL     1     -10.918   6.390  70.116  1.00  0.00    -0.334 C  
HETATM   19  C   UNL     1      -9.420   6.192  70.441  1.00  0.00    -0.179 C  
HETATM   20  C   UNL     1      -8.917   4.274  68.910  1.00  0.00    -0.156 C  
HETATM   21  O   UNL     1     -11.745   5.735  71.082  1.00  0.00    -0.013 OA 
HETATM   22  C   UNL     1      -9.021   7.044  71.654  1.00  0.00    -0.134 C  
HETATM   23  H   UNL     1     -11.430   4.840  71.134  1.00  0.00     0.000 HD 
HETATM   24  C   UNL     1      -7.592   6.745  72.140  1.00  0.00    -0.094 C  
HETATM   25  C   UNL     1      -7.339   5.253  72.320  1.00  0.00    -0.093 C  
ENDROOT
BRANCH   5  26
HETATM   26  C   UNL     1      -8.187   8.071  66.350  1.00  0.00    -0.113 C  
BRANCH  26  27
HETATM   27  C   UNL     1      -8.662   9.257  65.514  1.00  0.00    -0.204 C  
HETATM   28  C   UNL     1      -7.662  10.399  65.583  1.00  0.00    -0.150 C  
ENDBRANCH  26  27
ENDBRANCH   5  26
BRANCH   9  29
HETATM   29  C   UNL     1     -10.302  11.034  68.805  1.00  0.00    -0.199 C  
HETATM   30  O   UNL     1      -9.733  12.064  69.201  1.00  0.00     0.128 OA 
BRANCH  29  31
HETATM   31  C   UNL     1     -11.593  11.130  67.989  1.00  0.00    -0.263 C  
HETATM   32  O   UNL     1     -11.376  11.474  66.628  1.00  0.00    -0.344 OA 
HETATM   33  H   UNL     1     -12.178  11.534  66.121  1.00  0.00     0.000 HD 
ENDBRANCH  29  31
ENDBRANCH   9  29
TORSDOF 4
ENDMDL
MODEL       68
REMARK 921   NORMALIZED FREE ENERGY PREDICTED BY IDOCK:   -3.98 KCAL/MOL
REMARK 922        TOTAL FREE ENERGY PREDICTED BY IDOCK:   -5.18 KCAL/MOL
REMARK 923 INTER-LIGAND FREE ENERGY PREDICTED BY IDOCK:   -4.75 KCAL/MOL
REMARK 924 INTRA-LIGAND FREE ENERGY PREDICTED BY IDOCK:   -0.43 KCAL/MOL
REMARK 927      BINDING AFFINITY PREDICTED BY RF-SCORE:    0.00 PKD
ROOT
HETATM    1  C   UNL     1      -6.584   8.156  69.527  1.00  0.00    -0.038 C  
HETATM    2  C   UNL     1      -6.691   8.494  71.036  1.00  0.00    -0.054 C  
HETATM    3  C   UNL     1      -8.133   8.253  71.436  1.00  0.00    -0.125 C  
HETATM    4  O   UNL     1      -8.941   9.370  71.066  1.00  0.00    -0.231 OA 
HETATM    5  C   UNL     1     -10.109   8.837  70.454  1.00  0.00    -0.192 C  
HETATM    6  O   UNL     1      -9.970  14.607  67.896  1.00  0.00    -0.218 OA 
HETATM    7  O   UNL     1      -9.972   7.435  70.297  1.00  0.00    -0.187 OA 
HETATM    8  C   UNL     1     -10.366  12.317  67.522  1.00  0.00    -0.214 C  
HETATM    9  C   UNL     1      -8.608   7.077  70.605  1.00  0.00    -0.147 C  
HETATM   10  C   UNL     1      -9.502  13.482  67.780  1.00  0.00    -0.216 C  
HETATM   11  C   UNL     1      -7.625   6.983  69.350  1.00  0.00    -0.099 C  
HETATM   12  C   UNL     1      -8.056  13.221  67.943  1.00  0.00    -0.159 C  
HETATM   13  C   UNL     1      -6.740   5.700  69.329  1.00  0.00    -0.060 C  
HETATM   14  C   UNL     1      -8.004  10.752  65.604  1.00  0.00    -0.095 C  
HETATM   15  C   UNL     1      -7.520  12.017  67.677  1.00  0.00    -0.132 C  
HETATM   16  C   UNL     1      -8.423   6.944  68.033  1.00  0.00    -0.124 C  
HETATM   17  C   UNL     1      -8.324  10.849  67.106  1.00  0.00    -0.125 C  
HETATM   18  C   UNL     1      -8.562   8.243  67.247  1.00  0.00    -0.124 C  
HETATM   19  C   UNL     1      -8.033   9.531  67.918  1.00  0.00    -0.098 C  
HETATM   20  C   UNL     1      -9.829  11.130  67.213  1.00  0.00    -0.198 C  
HETATM   21  O   UNL     1      -7.916   8.015  65.990  1.00  0.00    -0.093 OA 
HETATM   22  C   UNL     1      -6.616   9.306  68.462  1.00  0.00    -0.054 C  
HETATM   23  H   UNL     1      -8.003   8.824  65.500  1.00  0.00     0.000 HD 
HETATM   24  C   UNL     1      -5.966  10.603  68.972  1.00  0.00    -0.040 C  
HETATM   25  C   UNL     1      -6.067  11.740  67.962  1.00  0.00    -0.049 C  
ENDROOT
BRANCH   5  26
HETATM   26  C   UNL     1     -11.351   9.301  71.193  1.00  0.00    -0.412 C  
BRANCH  26  27
HETATM   27  C   UNL     1     -11.852   8.260  72.191  1.00  0.00    -0.431 C  
HETATM   28  C   UNL     1     -13.033   7.493  71.620  1.00  0.00    -0.397 C  
ENDBRANCH  26  27
ENDBRANCH   5  26
BRANCH   9  29
HETATM   29  C   UNL     1      -8.722   5.793  71.446  1.00  0.00    -0.133 C  
HETATM   30  O   UNL     1      -9.455   4.844  71.124  1.00  0.00    -0.143 OA 
BRANCH  29  31
HETATM   31  C   UNL     1      -7.927   5.745  72.753  1.00  0.00    -0.101 C  
HETATM   32  O   UNL     1      -6.603   5.254  72.589  1.00  0.00    -0.059 OA 
HETATM   33  H   UNL     1      -6.110   5.224  73.401  1.00  0.00     0.000 HD 
ENDBRANCH  29  31
ENDBRANCH   9  29
TORSDOF 4
ENDMDL
MODEL       69
REMARK 921   NORMALIZED FREE ENERGY PREDICTED BY IDOCK:   -3.94 KCAL/MOL
REMARK 922        TOTAL FREE ENERGY PREDICTED BY IDOCK:   -5.12 KCAL/MOL
REMARK 923 INTER-LIGAND FREE ENERGY PREDICTED BY IDOCK:   -4.45 KCAL/MOL
REMARK 924 INTRA-LIGAND FREE ENERGY PREDICTED BY IDOCK:   -0.68 KCAL/MOL
REMARK 927      BINDING AFFINITY PREDICTED BY RF-SCORE:    0.00 PKD
ROOT
HETATM    1  C   UNL     1      -7.766   9.772  67.359  1.00  0.00    -0.095 C  
HETATM    2  C   UNL     1      -6.365   9.441  66.784  1.00  0.00    -0.066 C  
HETATM    3  C   UNL     1      -6.591   8.603  65.542  1.00  0.00    -0.063 C  
HETATM    4  O   UNL     1      -6.833   7.243  65.900  1.00  0.00    -0.055 OA 
HETATM    5  C   UNL     1      -7.948   6.815  65.130  1.00  0.00    -0.128 C  
HETATM    6  O   UNL     1      -8.272   2.805  69.996  1.00  0.00    -0.041 OA 
HETATM    7  O   UNL     1      -8.496   7.916  64.424  1.00  0.00    -0.045 OA 
HETATM    8  C   UNL     1      -9.483   4.172  68.511  1.00  0.00    -0.216 C  
HETATM    9  C   UNL     1      -7.870   9.122  64.912  1.00  0.00    -0.117 C  
HETATM   10  C   UNL     1      -8.578   3.939  69.650  1.00  0.00    -0.069 C  
HETATM   11  C   UNL     1      -8.665   9.887  66.066  1.00  0.00    -0.152 C  
HETATM   12  C   UNL     1      -8.019   5.133  70.317  1.00  0.00    -0.082 C  
HETATM   13  C   UNL     1      -8.794  11.424  65.839  1.00  0.00    -0.149 C  
HETATM   14  C   UNL     1     -10.863   6.959  69.937  1.00  0.00    -0.294 C  
HETATM   15  C   UNL     1      -8.460   6.373  70.036  1.00  0.00    -0.135 C  
HETATM   16  C   UNL     1     -10.112   9.370  66.169  1.00  0.00    -0.324 C  
HETATM   17  C   UNL     1      -9.621   6.653  69.082  1.00  0.00    -0.136 C  
HETATM   18  C   UNL     1     -10.429   8.351  67.257  1.00  0.00    -0.303 C  
HETATM   19  C   UNL     1      -9.236   7.792  68.065  1.00  0.00    -0.140 C  
HETATM   20  C   UNL     1      -9.956   5.400  68.262  1.00  0.00    -0.212 C  
HETATM   21  O   UNL     1     -11.385   8.976  68.118  1.00  0.00    -0.322 OA 
HETATM   22  C   UNL     1      -8.340   8.937  68.556  1.00  0.00    -0.125 C  
HETATM   23  H   UNL     1     -11.583   8.341  68.796  1.00  0.00     0.000 HD 
HETATM   24  C   UNL     1      -7.243   8.457  69.522  1.00  0.00    -0.061 C  
HETATM   25  C   UNL     1      -7.796   7.582  70.640  1.00  0.00    -0.095 C  
ENDROOT
BRANCH   5  26
HETATM   26  C   UNL     1      -7.577   5.609  64.287  1.00  0.00    -0.080 C  
BRANCH  26  27
HETATM   27  C   UNL     1      -7.350   5.976  62.823  1.00  0.00    -0.057 C  
HETATM   28  C   UNL     1      -5.869   6.174  62.542  1.00  0.00    -0.026 C  
ENDBRANCH  26  27
ENDBRANCH   5  26
BRANCH   9  29
HETATM   29  C   UNL     1      -7.588   9.953  63.648  1.00  0.00    -0.134 C  
HETATM   30  O   UNL     1      -6.591  10.685  63.536  1.00  0.00    -0.014 OA 
BRANCH  29  31
HETATM   31  C   UNL     1      -8.631   9.892  62.530  1.00  0.00    -0.186 C  
HETATM   32  O   UNL     1      -9.557  10.970  62.564  1.00  0.00    -0.528 OA 
HETATM   33  H   UNL     1     -10.205  10.932  61.869  1.00  0.00     0.000 HD 
ENDBRANCH  29  31
ENDBRANCH   9  29
TORSDOF 4
ENDMDL
MODEL       70
REMARK 921   NORMALIZED FREE ENERGY PREDICTED BY IDOCK:   -3.92 KCAL/MOL
REMARK 922        TOTAL FREE ENERGY PREDICTED BY IDOCK:   -5.10 KCAL/MOL
REMARK 923 INTER-LIGAND FREE ENERGY PREDICTED BY IDOCK:   -4.39 KCAL/MOL
REMARK 924 INTRA-LIGAND FREE ENERGY PREDICTED BY IDOCK:   -0.71 KCAL/MOL
REMARK 927      BINDING AFFINITY PREDICTED BY RF-SCORE:    0.00 PKD
ROOT
HETATM    1  C   UNL     1      -9.816   6.543  67.032  1.00  0.00    -0.200 C  
HETATM    2  C   UNL     1     -10.441   7.927  66.721  1.00  0.00    -0.317 C  
HETATM    3  C   UNL     1      -9.290   8.903  66.583  1.00  0.00    -0.185 C  
HETATM    4  O   UNL     1      -8.843   9.326  67.871  1.00  0.00    -0.124 OA 
HETATM    5  C   UNL     1      -7.424   9.255  67.848  1.00  0.00    -0.084 C  
HETATM    6  O   UNL     1      -8.525   8.757  74.044  1.00  0.00    -0.228 OA 
HETATM    7  O   UNL     1      -6.991   8.654  66.638  1.00  0.00    -0.077 OA 
HETATM    8  C   UNL     1      -7.247   7.989  72.223  1.00  0.00    -0.105 C  
HETATM    9  C   UNL     1      -8.150   8.122  65.960  1.00  0.00    -0.112 C  
HETATM   10  C   UNL     1      -8.488   8.104  73.010  1.00  0.00    -0.209 C  
HETATM   11  C   UNL     1      -8.454   6.579  66.234  1.00  0.00    -0.129 C  
HETATM   12  C   UNL     1      -9.691   7.442  72.464  1.00  0.00    -0.202 C  
HETATM   13  C   UNL     1      -8.754   5.751  64.948  1.00  0.00    -0.001 C  
HETATM   14  C   UNL     1      -7.952   4.792  71.228  1.00  0.00    -0.096 C  
HETATM   15  C   UNL     1      -9.624   6.609  71.409  1.00  0.00    -0.174 C  
HETATM   16  C   UNL     1      -7.241   5.889  66.885  1.00  0.00    -0.071 C  
HETATM   17  C   UNL     1      -8.310   6.207  70.741  1.00  0.00    -0.126 C  
HETATM   18  C   UNL     1      -7.260   5.690  68.396  1.00  0.00    -0.075 C  
HETATM   19  C   UNL     1      -8.423   6.346  69.176  1.00  0.00    -0.122 C  
HETATM   20  C   UNL     1      -7.170   7.127  71.202  1.00  0.00    -0.074 C  
HETATM   21  O   UNL     1      -7.232   4.275  68.609  1.00  0.00    -0.054 OA 
HETATM   22  C   UNL     1      -9.765   6.019  68.509  1.00  0.00    -0.142 C  
HETATM   23  H   UNL     1      -7.244   4.151  69.550  1.00  0.00     0.000 HD 
HETATM   24  C   UNL     1     -10.970   6.486  69.344  1.00  0.00    -0.395 C  
HETATM   25  C   UNL     1     -10.876   6.039  70.798  1.00  0.00    -0.358 C  
ENDROOT
BRANCH   5  26
HETATM   26  C   UNL     1      -6.821  10.612  68.163  1.00  0.00    -0.068 C  
BRANCH  26  27
HETATM   27  C   UNL     1      -7.884  11.650  68.511  1.00  0.00    -0.140 C  
HETATM   28  C   UNL     1      -7.932  12.745  67.458  1.00  0.00    -0.177 C  
ENDBRANCH  26  27
ENDBRANCH   5  26
BRANCH   9  29
HETATM   29  C   UNL     1      -7.941   8.496  64.482  1.00  0.00    -0.145 C  
HETATM   30  O   UNL     1      -8.885   8.722  63.708  1.00  0.00    -0.045 OA 
BRANCH  29  31
HETATM   31  C   UNL     1      -6.499   8.525  63.969  1.00  0.00    -0.072 C  
HETATM   32  O   UNL     1      -5.844   9.765  64.200  1.00  0.00    -0.086 OA 
HETATM   33  H   UNL     1      -4.949   9.783  63.881  1.00  0.00     0.000 HD 
ENDBRANCH  29  31
ENDBRANCH   9  29
TORSDOF 4
ENDMDL
MODEL       71
REMARK 921   NORMALIZED FREE ENERGY PREDICTED BY IDOCK:   -3.90 KCAL/MOL
REMARK 922        TOTAL FREE ENERGY PREDICTED BY IDOCK:   -5.08 KCAL/MOL
REMARK 923 INTER-LIGAND FREE ENERGY PREDICTED BY IDOCK:   -4.66 KCAL/MOL
REMARK 924 INTRA-LIGAND FREE ENERGY PREDICTED BY IDOCK:   -0.42 KCAL/MOL
REMARK 927      BINDING AFFINITY PREDICTED BY RF-SCORE:    0.00 PKD
ROOT
HETATM    1  C   UNL     1     -10.006   8.676  68.003  1.00  0.00    -0.221 C  
HETATM    2  C   UNL     1      -9.858  10.025  68.752  1.00  0.00    -0.173 C  
HETATM    3  C   UNL     1      -8.372  10.277  68.908  1.00  0.00    -0.136 C  
HETATM    4  O   UNL     1      -7.859   9.536  70.015  1.00  0.00    -0.113 OA 
HETATM    5  C   UNL     1      -6.655   8.926  69.570  1.00  0.00    -0.044 C  
HETATM    6  O   UNL     1      -8.254   5.052  74.290  1.00  0.00    -0.099 OA 
HETATM    7  O   UNL     1      -6.492   9.143  68.177  1.00  0.00    -0.058 OA 
HETATM    8  C   UNL     1      -7.396   5.212  72.104  1.00  0.00    -0.091 C  
HETATM    9  C   UNL     1      -7.717   9.710  67.663  1.00  0.00    -0.095 C  
HETATM   10  C   UNL     1      -8.472   5.283  73.109  1.00  0.00    -0.114 C  
HETATM   11  C   UNL     1      -8.750   8.660  67.046  1.00  0.00    -0.135 C  
HETATM   12  C   UNL     1      -9.808   5.698  72.631  1.00  0.00    -0.182 C  
HETATM   13  C   UNL     1      -9.331   9.078  65.662  1.00  0.00    -0.289 C  
HETATM   14  C   UNL     1      -9.501   4.077  69.657  1.00  0.00    -0.262 C  
HETATM   15  C   UNL     1     -10.087   5.814  71.320  1.00  0.00    -0.253 C  
HETATM   16  C   UNL     1      -8.069   7.300  66.804  1.00  0.00    -0.119 C  
HETATM   17  C   UNL     1      -9.094   5.451  70.217  1.00  0.00    -0.166 C  
HETATM   18  C   UNL     1      -8.280   6.204  67.842  1.00  0.00    -0.117 C  
HETATM   19  C   UNL     1      -9.024   6.597  69.139  1.00  0.00    -0.131 C  
HETATM   20  C   UNL     1      -7.683   5.283  70.798  1.00  0.00    -0.088 C  
HETATM   21  O   UNL     1      -8.956   5.141  67.163  1.00  0.00    -0.113 OA 
HETATM   22  C   UNL     1     -10.311   7.364  68.804  1.00  0.00    -0.209 C  
HETATM   23  H   UNL     1      -9.087   4.458  67.809  1.00  0.00     0.000 HD 
HETATM   24  C   UNL     1     -11.187   7.616  70.042  1.00  0.00    -0.146 C  
HETATM   25  C   UNL     1     -11.416   6.351  70.860  1.00  0.00    -0.406 C  
ENDROOT
BRANCH   5  26
HETATM   26  C   UNL     1      -5.490   9.354  70.444  1.00  0.00    -0.032 C  
BRANCH  26  27
HETATM   27  C   UNL     1      -5.727  10.712  71.098  1.00  0.00     0.024 C  
HETATM   28  C   UNL     1      -5.153  11.829  70.241  1.00  0.00    -0.088 C  
ENDBRANCH  26  27
ENDBRANCH   5  26
BRANCH   9  29
HETATM   29  C   UNL     1      -7.259  10.821  66.702  1.00  0.00    -0.134 C  
HETATM   30  O   UNL     1      -6.589  10.591  65.683  1.00  0.00    -0.124 OA 
BRANCH  29  31
HETATM   31  C   UNL     1      -7.615  12.260  67.083  1.00  0.00    -0.118 C  
HETATM   32  O   UNL     1      -6.545  13.175  66.893  1.00  0.00    -0.426 OA 
HETATM   33  H   UNL     1      -6.766  14.068  67.130  1.00  0.00     0.000 HD 
ENDBRANCH  29  31
ENDBRANCH   9  29
TORSDOF 4
ENDMDL
MODEL       72
REMARK 921   NORMALIZED FREE ENERGY PREDICTED BY IDOCK:   -3.86 KCAL/MOL
REMARK 922        TOTAL FREE ENERGY PREDICTED BY IDOCK:   -5.03 KCAL/MOL
REMARK 923 INTER-LIGAND FREE ENERGY PREDICTED BY IDOCK:   -4.35 KCAL/MOL
REMARK 924 INTRA-LIGAND FREE ENERGY PREDICTED BY IDOCK:   -0.69 KCAL/MOL
REMARK 927      BINDING AFFINITY PREDICTED BY RF-SCORE:    0.00 PKD
ROOT
HETATM    1  C   UNL     1     -10.851   6.593  69.334  1.00  0.00    -0.340 C  
HETATM    2  C   UNL     1     -10.623   8.053  69.801  1.00  0.00    -0.238 C  
HETATM    3  C   UNL     1      -9.288   8.490  69.232  1.00  0.00    -0.154 C  
HETATM    4  O   UNL     1      -8.221   7.998  70.044  1.00  0.00    -0.114 OA 
HETATM    5  C   UNL     1      -7.252   7.462  69.153  1.00  0.00    -0.084 C  
HETATM    6  O   UNL     1      -5.914   4.248  74.419  1.00  0.00    -0.025 OA 
HETATM    7  O   UNL     1      -7.759   7.469  67.829  1.00  0.00    -0.110 OA 
HETATM    8  C   UNL     1      -6.149   4.147  72.079  1.00  0.00    -0.017 C  
HETATM    9  C   UNL     1      -9.162   7.806  67.885  1.00  0.00    -0.137 C  
HETATM   10  C   UNL     1      -6.667   4.260  73.454  1.00  0.00    -0.053 C  
HETATM   11  C   UNL     1     -10.163   6.562  67.913  1.00  0.00    -0.198 C  
HETATM   12  C   UNL     1      -8.125   4.441  73.608  1.00  0.00    -0.094 C  
HETATM   13  C   UNL     1     -11.358   6.684  66.918  1.00  0.00     0.052 C  
HETATM   14  C   UNL     1      -8.886   2.406  70.991  1.00  0.00    -0.132 C  
HETATM   15  C   UNL     1      -8.969   4.313  72.567  1.00  0.00    -0.126 C  
HETATM   16  C   UNL     1      -9.436   5.265  67.513  1.00  0.00    -0.136 C  
HETATM   17  C   UNL     1      -8.517   3.889  71.170  1.00  0.00    -0.099 C  
HETATM   18  C   UNL     1      -8.975   4.334  68.629  1.00  0.00    -0.114 C  
HETATM   19  C   UNL     1      -9.128   4.846  70.079  1.00  0.00    -0.157 C  
HETATM   20  C   UNL     1      -6.989   3.974  71.051  1.00  0.00    -0.033 C  
HETATM   21  O   UNL     1      -9.688   3.107  68.439  1.00  0.00    -0.118 OA 
HETATM   22  C   UNL     1     -10.541   5.401  70.303  1.00  0.00    -0.329 C  
HETATM   23  H   UNL     1      -9.401   2.527  69.134  1.00  0.00     0.000 HD 
HETATM   24  C   UNL     1     -10.811   5.751  71.777  1.00  0.00    -0.311 C  
HETATM   25  C   UNL     1     -10.435   4.617  72.722  1.00  0.00    -0.261 C  
ENDROOT
BRANCH   5  26
HETATM   26  C   UNL     1      -5.914   8.152  69.350  1.00  0.00    -0.037 C  
BRANCH  26  27
HETATM   27  C   UNL     1      -5.892   9.024  70.603  1.00  0.00    -0.035 C  
HETATM   28  C   UNL     1      -5.422   8.223  71.806  1.00  0.00    -0.036 C  
ENDBRANCH  26  27
ENDBRANCH   5  26
BRANCH   9  29
HETATM   29  C   UNL     1      -9.373   8.791  66.722  1.00  0.00    -0.179 C  
HETATM   30  O   UNL     1     -10.227   9.691  66.753  1.00  0.00    -0.227 OA 
BRANCH  29  31
HETATM   31  C   UNL     1      -8.514   8.584  65.472  1.00  0.00    -0.167 C  
HETATM   32  O   UNL     1      -8.547   7.252  64.980  1.00  0.00    -0.337 OA 
HETATM   33  H   UNL     1      -8.014   7.123  64.203  1.00  0.00     0.000 HD 
ENDBRANCH  29  31
ENDBRANCH   9  29
TORSDOF 4
ENDMDL
MODEL       73
REMARK 921   NORMALIZED FREE ENERGY PREDICTED BY IDOCK:   -3.79 KCAL/MOL
REMARK 922        TOTAL FREE ENERGY PREDICTED BY IDOCK:   -4.94 KCAL/MOL
REMARK 923 INTER-LIGAND FREE ENERGY PREDICTED BY IDOCK:   -4.41 KCAL/MOL
REMARK 924 INTRA-LIGAND FREE ENERGY PREDICTED BY IDOCK:   -0.54 KCAL/MOL
REMARK 927      BINDING AFFINITY PREDICTED BY RF-SCORE:    0.00 PKD
ROOT
HETATM    1  C   UNL     1      -7.112   8.787  69.103  1.00  0.00    -0.063 C  
HETATM    2  C   UNL     1      -6.917   8.302  67.645  1.00  0.00    -0.079 C  
HETATM    3  C   UNL     1      -8.302   8.113  67.059  1.00  0.00    -0.116 C  
HETATM    4  O   UNL     1      -8.846   6.859  67.469  1.00  0.00    -0.119 OA 
HETATM    5  C   UNL     1     -10.184   7.113  67.876  1.00  0.00    -0.187 C  
HETATM    6  O   UNL     1      -8.951   1.837  71.117  1.00  0.00    -0.060 OA 
HETATM    7  O   UNL     1     -10.430   8.510  67.876  1.00  0.00    -0.224 OA 
HETATM    8  C   UNL     1      -9.962   3.963  71.162  1.00  0.00    -0.169 C  
HETATM    9  C   UNL     1      -9.171   9.189  67.682  1.00  0.00    -0.128 C  
HETATM   10  C   UNL     1      -8.803   3.052  71.147  1.00  0.00    -0.083 C  
HETATM   11  C   UNL     1      -8.430   9.652  69.018  1.00  0.00    -0.131 C  
HETATM   12  C   UNL     1      -7.463   3.673  71.117  1.00  0.00    -0.044 C  
HETATM   13  C   UNL     1      -7.910  11.121  68.982  1.00  0.00    -0.103 C  
HETATM   14  C   UNL     1      -8.365   6.263  73.129  1.00  0.00    -0.116 C  
HETATM   15  C   UNL     1      -7.291   4.996  71.293  1.00  0.00    -0.073 C  
HETATM   16  C   UNL     1      -9.388   9.592  70.223  1.00  0.00    -0.292 C  
HETATM   17  C   UNL     1      -8.436   5.953  71.623  1.00  0.00    -0.128 C  
HETATM   18  C   UNL     1      -9.303   8.378  71.141  1.00  0.00    -0.177 C  
HETATM   19  C   UNL     1      -8.377   7.224  70.695  1.00  0.00    -0.128 C  
HETATM   20  C   UNL     1      -9.791   5.272  71.383  1.00  0.00    -0.232 C  
HETATM   21  O   UNL     1      -8.919   8.879  72.425  1.00  0.00    -0.383 OA 
HETATM   22  C   UNL     1      -7.001   7.769  70.290  1.00  0.00    -0.050 C  
HETATM   23  H   UNL     1      -8.866   8.123  72.997  1.00  0.00     0.000 HD 
HETATM   24  C   UNL     1      -5.979   6.652  70.018  1.00  0.00    -0.023 C  
HETATM   25  C   UNL     1      -5.931   5.623  71.141  1.00  0.00    -0.032 C  
ENDROOT
BRANCH   5  26
HETATM   26  C   UNL     1     -11.153   6.272  67.064  1.00  0.00    -0.379 C  
BRANCH  26  27
HETATM   27  C   UNL     1     -10.531   4.956  66.605  1.00  0.00    -0.270 C  
HETATM   28  C   UNL     1     -10.057   5.060  65.164  1.00  0.00     0.205 C  
ENDBRANCH  26  27
ENDBRANCH   5  26
BRANCH   9  29
HETATM   29  C   UNL     1      -9.487  10.317  66.684  1.00  0.00    -0.166 C  
HETATM   30  O   UNL     1      -8.648  10.756  65.881  1.00  0.00    -0.170 OA 
BRANCH  29  31
HETATM   31  C   UNL     1     -10.885  10.936  66.754  1.00  0.00    -0.224 C  
HETATM   32  O   UNL     1     -11.339  11.152  68.083  1.00  0.00    -0.264 OA 
HETATM   33  H   UNL     1     -12.208  11.536  68.127  1.00  0.00     0.000 HD 
ENDBRANCH  29  31
ENDBRANCH   9  29
TORSDOF 4
ENDMDL
MODEL       74
REMARK 921   NORMALIZED FREE ENERGY PREDICTED BY IDOCK:   -3.77 KCAL/MOL
REMARK 922        TOTAL FREE ENERGY PREDICTED BY IDOCK:   -4.92 KCAL/MOL
REMARK 923 INTER-LIGAND FREE ENERGY PREDICTED BY IDOCK:   -4.09 KCAL/MOL
REMARK 924 INTRA-LIGAND FREE ENERGY PREDICTED BY IDOCK:   -0.82 KCAL/MOL
REMARK 927      BINDING AFFINITY PREDICTED BY RF-SCORE:    0.00 PKD
ROOT
HETATM    1  C   UNL     1     -10.474   5.587  69.900  1.00  0.00    -0.386 C  
HETATM    2  C   UNL     1     -11.070   6.397  71.079  1.00  0.00    -0.349 C  
HETATM    3  C   UNL     1     -10.134   7.564  71.325  1.00  0.00    -0.187 C  
HETATM    4  O   UNL     1      -9.012   7.143  72.101  1.00  0.00    -0.129 OA 
HETATM    5  C   UNL     1      -7.860   7.693  71.475  1.00  0.00    -0.086 C  
HETATM    6  O   UNL     1      -5.315   2.774  74.505  1.00  0.00     0.000 OA 
HETATM    7  O   UNL     1      -8.225   8.310  70.252  1.00  0.00    -0.114 OA 
HETATM    8  C   UNL     1      -5.339   4.044  72.524  1.00  0.00     0.000 C  
HETATM    9  C   UNL     1      -9.597   7.964  69.964  1.00  0.00    -0.168 C  
HETATM   10  C   UNL     1      -5.911   3.080  73.481  1.00  0.00     0.000 C  
HETATM   11  C   UNL     1      -9.798   6.702  69.008  1.00  0.00    -0.149 C  
HETATM   12  C   UNL     1      -7.254   2.546  73.173  1.00  0.00    -0.040 C  
HETATM   13  C   UNL     1     -10.825   6.931  67.858  1.00  0.00    -0.287 C  
HETATM   14  C   UNL     1      -6.696   2.447  69.819  1.00  0.00    -0.033 C  
HETATM   15  C   UNL     1      -7.849   2.767  71.986  1.00  0.00    -0.054 C  
HETATM   16  C   UNL     1      -8.479   6.333  68.304  1.00  0.00    -0.114 C  
HETATM   17  C   UNL     1      -7.169   3.503  70.833  1.00  0.00    -0.033 C  
HETATM   18  C   UNL     1      -7.658   5.186  68.885  1.00  0.00    -0.081 C  
HETATM   19  C   UNL     1      -8.133   4.594  70.231  1.00  0.00    -0.067 C  
HETATM   20  C   UNL     1      -5.909   4.227  71.326  1.00  0.00    -0.013 C  
HETATM   21  O   UNL     1      -7.611   4.180  67.868  1.00  0.00    -0.067 OA 
HETATM   22  C   UNL     1      -9.637   4.293  70.181  1.00  0.00    -0.269 C  
HETATM   23  H   UNL     1      -7.100   3.466  68.230  1.00  0.00     0.000 HD 
HETATM   24  C   UNL     1     -10.127   3.529  71.423  1.00  0.00    -0.039 C  
HETATM   25  C   UNL     1      -9.263   2.314  71.738  1.00  0.00    -0.163 C  
ENDROOT
BRANCH   5  26
HETATM   26  C   UNL     1      -7.095   8.567  72.452  1.00  0.00    -0.079 C  
BRANCH  26  27
HETATM   27  C   UNL     1      -7.244   8.090  73.894  1.00  0.00    -0.180 C  
HETATM   28  C   UNL     1      -5.947   7.477  74.395  1.00  0.00    -0.080 C  
ENDBRANCH  26  27
ENDBRANCH   5  26
BRANCH   9  29
HETATM   29  C   UNL     1     -10.232   9.274  69.462  1.00  0.00    -0.207 C  
HETATM   30  O   UNL     1     -11.381   9.624  69.775  1.00  0.00    -0.213 OA 
BRANCH  29  31
HETATM   31  C   UNL     1      -9.402  10.122  68.495  1.00  0.00    -0.151 C  
HETATM   32  O   UNL     1      -8.659  11.147  69.140  1.00  0.00    -0.352 OA 
HETATM   33  H   UNL     1      -8.144  11.674  68.540  1.00  0.00     0.000 HD 
ENDBRANCH  29  31
ENDBRANCH   9  29
TORSDOF 4
ENDMDL
MODEL       75
REMARK 921   NORMALIZED FREE ENERGY PREDICTED BY IDOCK:   -3.76 KCAL/MOL
REMARK 922        TOTAL FREE ENERGY PREDICTED BY IDOCK:   -4.91 KCAL/MOL
REMARK 923 INTER-LIGAND FREE ENERGY PREDICTED BY IDOCK:   -4.23 KCAL/MOL
REMARK 924 INTRA-LIGAND FREE ENERGY PREDICTED BY IDOCK:   -0.67 KCAL/MOL
REMARK 927      BINDING AFFINITY PREDICTED BY RF-SCORE:    0.00 PKD
ROOT
HETATM    1  C   UNL     1     -10.556   8.492  67.247  1.00  0.00    -0.315 C  
HETATM    2  C   UNL     1     -10.609   8.608  68.791  1.00  0.00    -0.169 C  
HETATM    3  C   UNL     1      -9.331   9.302  69.220  1.00  0.00    -0.160 C  
HETATM    4  O   UNL     1      -8.253   8.368  69.266  1.00  0.00    -0.113 OA 
HETATM    5  C   UNL     1      -7.150   8.993  68.624  1.00  0.00    -0.071 C  
HETATM    6  O   UNL     1      -5.642   2.908  67.885  1.00  0.00    -0.017 OA 
HETATM    7  O   UNL     1      -7.563  10.222  68.048  1.00  0.00    -0.087 OA 
HETATM    8  C   UNL     1      -5.701   5.038  66.885  1.00  0.00    -0.018 C  
HETATM    9  C   UNL     1      -9.003  10.293  68.121  1.00  0.00    -0.130 C  
HETATM   10  C   UNL     1      -6.320   3.805  67.403  1.00  0.00    -0.037 C  
HETATM   11  C   UNL     1      -9.780   9.799  66.817  1.00  0.00    -0.248 C  
HETATM   12  C   UNL     1      -7.795   3.728  67.361  1.00  0.00    -0.083 C  
HETATM   13  C   UNL     1     -10.909  10.763  66.344  1.00  0.00    -0.172 C  
HETATM   14  C   UNL     1      -8.026   5.386  64.400  1.00  0.00    -0.117 C  
HETATM   15  C   UNL     1      -8.534   4.642  66.706  1.00  0.00    -0.105 C  
HETATM   16  C   UNL     1      -8.819   9.683  65.619  1.00  0.00    -0.189 C  
HETATM   17  C   UNL     1      -7.926   5.778  65.885  1.00  0.00    -0.108 C  
HETATM   18  C   UNL     1      -8.283   8.300  65.267  1.00  0.00    -0.148 C  
HETATM   19  C   UNL     1      -8.616   7.148  66.242  1.00  0.00    -0.143 C  
HETATM   20  C   UNL     1      -6.430   5.924  66.195  1.00  0.00    -0.046 C  
HETATM   21  O   UNL     1      -8.764   8.013  63.950  1.00  0.00    -0.372 OA 
HETATM   22  C   UNL     1     -10.114   7.146  66.575  1.00  0.00    -0.154 C  
HETATM   23  H   UNL     1      -8.430   7.152  63.730  1.00  0.00     0.000 HD 
HETATM   24  C   UNL     1     -10.536   5.912  67.391  1.00  0.00    -0.356 C  
HETATM   25  C   UNL     1     -10.038   4.610  66.775  1.00  0.00    -0.246 C  
ENDROOT
BRANCH   5  26
HETATM   26  C   UNL     1      -5.964   9.073  69.568  1.00  0.00    -0.036 C  
BRANCH  26  27
HETATM   27  C   UNL     1      -6.281   9.873  70.828  1.00  0.00    -0.093 C  
HETATM   28  C   UNL     1      -5.354  11.072  70.950  1.00  0.00    -0.118 C  
ENDBRANCH  26  27
ENDBRANCH   5  26
BRANCH   9  29
HETATM   29  C   UNL     1      -9.299  11.741  68.551  1.00  0.00    -0.156 C  
HETATM   30  O   UNL     1     -10.236  12.037  69.310  1.00  0.00     0.058 OA 
BRANCH  29  31
HETATM   31  C   UNL     1      -8.416  12.838  67.952  1.00  0.00    -0.173 C  
HETATM   32  O   UNL     1      -7.321  13.196  68.784  1.00  0.00    -0.112 OA 
HETATM   33  H   UNL     1      -6.772  13.878  68.412  1.00  0.00     0.000 HD 
ENDBRANCH  29  31
ENDBRANCH   9  29
TORSDOF 4
ENDMDL
MODEL       76
REMARK 921   NORMALIZED FREE ENERGY PREDICTED BY IDOCK:   -3.69 KCAL/MOL
REMARK 922        TOTAL FREE ENERGY PREDICTED BY IDOCK:   -4.81 KCAL/MOL
REMARK 923 INTER-LIGAND FREE ENERGY PREDICTED BY IDOCK:   -4.40 KCAL/MOL
REMARK 924 INTRA-LIGAND FREE ENERGY PREDICTED BY IDOCK:   -0.42 KCAL/MOL
REMARK 927      BINDING AFFINITY PREDICTED BY RF-SCORE:    0.00 PKD
ROOT
HETATM    1  C   UNL     1      -9.475   9.015  65.951  1.00  0.00    -0.317 C  
HETATM    2  C   UNL     1     -10.733   8.849  66.840  1.00  0.00    -0.153 C  
HETATM    3  C   UNL     1     -10.390   9.434  68.195  1.00  0.00    -0.211 C  
HETATM    4  O   UNL     1      -9.645   8.492  68.966  1.00  0.00    -0.163 OA 
HETATM    5  C   UNL     1      -8.558   9.208  69.538  1.00  0.00    -0.138 C  
HETATM    6  O   UNL     1      -6.237   3.337  69.558  1.00  0.00    -0.027 OA 
HETATM    7  O   UNL     1      -8.524  10.527  69.017  1.00  0.00    -0.142 OA 
HETATM    8  C   UNL     1      -5.779   5.614  69.177  1.00  0.00    -0.015 C  
HETATM    9  C   UNL     1      -9.464  10.605  67.924  1.00  0.00    -0.159 C  
HETATM   10  C   UNL     1      -6.392   4.317  68.841  1.00  0.00    -0.032 C  
HETATM   11  C   UNL     1      -8.846  10.367  66.472  1.00  0.00    -0.150 C  
HETATM   12  C   UNL     1      -7.243   4.270  67.634  1.00  0.00    -0.068 C  
HETATM   13  C   UNL     1      -9.291  11.418  65.410  1.00  0.00    -0.206 C  
HETATM   14  C   UNL     1      -5.288   6.443  65.894  1.00  0.00    -0.014 C  
HETATM   15  C   UNL     1      -7.302   5.299  66.769  1.00  0.00    -0.086 C  
HETATM   16  C   UNL     1      -7.309  10.457  66.510  1.00  0.00    -0.119 C  
HETATM   17  C   UNL     1      -6.444   6.557  66.903  1.00  0.00    -0.043 C  
HETATM   18  C   UNL     1      -6.520   9.153  66.559  1.00  0.00    -0.067 C  
HETATM   19  C   UNL     1      -7.329   7.848  66.733  1.00  0.00    -0.089 C  
HETATM   20  C   UNL     1      -5.800   6.622  68.295  1.00  0.00    -0.020 C  
HETATM   21  O   UNL     1      -5.740   9.118  65.359  1.00  0.00    -0.051 OA 
HETATM   22  C   UNL     1      -8.498   7.808  65.740  1.00  0.00    -0.155 C  
HETATM   23  H   UNL     1      -5.248   8.306  65.389  1.00  0.00     0.000 HD 
HETATM   24  C   UNL     1      -9.225   6.452  65.738  1.00  0.00     0.032 C  
HETATM   25  C   UNL     1      -8.263   5.277  65.610  1.00  0.00    -0.121 C  
ENDROOT
BRANCH   5  26
HETATM   26  C   UNL     1      -8.589   9.097  71.052  1.00  0.00    -0.236 C  
BRANCH  26  27
HETATM   27  C   UNL     1      -9.684   8.151  71.539  1.00  0.00    -0.230 C  
HETATM   28  C   UNL     1      -9.619   7.988  73.049  1.00  0.00    -0.347 C  
ENDBRANCH  26  27
ENDBRANCH   5  26
BRANCH   9  29
HETATM   29  C   UNL     1     -10.177  11.954  68.120  1.00  0.00    -0.199 C  
HETATM   30  O   UNL     1      -9.573  12.991  68.438  1.00  0.00    -0.221 OA 
BRANCH  29  31
HETATM   31  C   UNL     1     -11.700  11.965  67.962  1.00  0.00    -0.312 C  
HETATM   32  O   UNL     1     -12.167  12.974  67.077  1.00  0.00    -0.341 OA 
HETATM   33  H   UNL     1     -13.113  12.981  66.979  1.00  0.00     0.000 HD 
ENDBRANCH  29  31
ENDBRANCH   9  29
TORSDOF 4
ENDMDL
MODEL       77
REMARK 921   NORMALIZED FREE ENERGY PREDICTED BY IDOCK:   -3.66 KCAL/MOL
REMARK 922        TOTAL FREE ENERGY PREDICTED BY IDOCK:   -4.79 KCAL/MOL
REMARK 923 INTER-LIGAND FREE ENERGY PREDICTED BY IDOCK:   -4.56 KCAL/MOL
REMARK 924 INTRA-LIGAND FREE ENERGY PREDICTED BY IDOCK:   -0.22 KCAL/MOL
REMARK 927      BINDING AFFINITY PREDICTED BY RF-SCORE:    0.00 PKD
ROOT
HETATM    1  C   UNL     1      -8.224   3.999  67.256  1.00  0.00    -0.099 C  
HETATM    2  C   UNL     1      -9.523   4.041  66.412  1.00  0.00    -0.202 C  
HETATM    3  C   UNL     1      -9.637   5.447  65.858  1.00  0.00    -0.096 C  
HETATM    4  O   UNL     1     -10.177   6.326  66.845  1.00  0.00    -0.171 OA 
HETATM    5  C   UNL     1      -9.373   7.498  66.825  1.00  0.00    -0.165 C  
HETATM    6  O   UNL     1     -11.691   7.764  72.691  1.00  0.00    -0.349 OA 
HETATM    7  O   UNL     1      -8.262   7.304  65.965  1.00  0.00    -0.122 OA 
HETATM    8  C   UNL     1      -9.799   8.072  71.326  1.00  0.00    -0.200 C  
HETATM    9  C   UNL     1      -8.218   5.910  65.591  1.00  0.00    -0.134 C  
HETATM   10  C   UNL     1     -10.806   7.250  72.019  1.00  0.00    -0.233 C  
HETATM   11  C   UNL     1      -7.267   4.993  66.487  1.00  0.00    -0.077 C  
HETATM   12  C   UNL     1     -10.729   5.788  71.822  1.00  0.00    -0.305 C  
HETATM   13  C   UNL     1      -6.334   4.050  65.666  1.00  0.00    -0.032 C  
HETATM   14  C   UNL     1      -7.329   5.745  71.761  1.00  0.00    -0.093 C  
HETATM   15  C   UNL     1      -9.682   5.210  71.206  1.00  0.00    -0.228 C  
HETATM   16  C   UNL     1      -6.319   5.856  67.340  1.00  0.00    -0.042 C  
HETATM   17  C   UNL     1      -8.452   5.988  70.738  1.00  0.00    -0.130 C  
HETATM   18  C   UNL     1      -6.694   6.097  68.798  1.00  0.00    -0.061 C  
HETATM   19  C   UNL     1      -8.081   5.593  69.260  1.00  0.00    -0.096 C  
HETATM   20  C   UNL     1      -8.734   7.497  70.753  1.00  0.00    -0.140 C  
HETATM   21  O   UNL     1      -5.648   5.509  69.578  1.00  0.00    -0.007 OA 
HETATM   22  C   UNL     1      -8.296   4.141  68.815  1.00  0.00    -0.093 C  
HETATM   23  H   UNL     1      -5.881   5.659  70.486  1.00  0.00     0.000 HD 
HETATM   24  C   UNL     1      -9.576   3.526  69.406  1.00  0.00    -0.171 C  
HETATM   25  C   UNL     1      -9.679   3.734  70.912  1.00  0.00    -0.248 C  
ENDROOT
BRANCH   5  26
HETATM   26  C   UNL     1     -10.226   8.719  66.536  1.00  0.00    -0.314 C  
BRANCH  26  27
HETATM   27  C   UNL     1      -9.956   9.858  67.516  1.00  0.00    -0.229 C  
HETATM   28  C   UNL     1      -9.455  11.091  66.782  1.00  0.00    -0.203 C  
ENDBRANCH  26  27
ENDBRANCH   5  26
BRANCH   9  29
HETATM   29  C   UNL     1      -7.892   5.920  64.087  1.00  0.00    -0.119 C  
HETATM   30  O   UNL     1      -8.559   5.286  63.254  1.00  0.00    -0.122 OA 
BRANCH  29  31
HETATM   31  C   UNL     1      -6.656   6.709  63.649  1.00  0.00    -0.044 C  
HETATM   32  O   UNL     1      -6.067   7.463  64.700  1.00  0.00    -0.037 OA 
HETATM   33  H   UNL     1      -5.300   7.953  64.427  1.00  0.00     0.000 HD 
ENDBRANCH  29  31
ENDBRANCH   9  29
TORSDOF 4
ENDMDL
MODEL       78
REMARK 921   NORMALIZED FREE ENERGY PREDICTED BY IDOCK:   -3.56 KCAL/MOL
REMARK 922        TOTAL FREE ENERGY PREDICTED BY IDOCK:   -4.66 KCAL/MOL
REMARK 923 INTER-LIGAND FREE ENERGY PREDICTED BY IDOCK:   -3.97 KCAL/MOL
REMARK 924 INTRA-LIGAND FREE ENERGY PREDICTED BY IDOCK:   -0.69 KCAL/MOL
REMARK 927      BINDING AFFINITY PREDICTED BY RF-SCORE:    0.00 PKD
ROOT
HETATM    1  C   UNL     1      -7.862  13.512  66.656  1.00  0.00     0.706 C  
HETATM    2  C   UNL     1      -9.257  13.485  65.981  1.00  0.00     0.083 C  
HETATM    3  C   UNL     1     -10.275  13.748  67.073  1.00  0.00    -0.254 C  
HETATM    4  O   UNL     1     -10.537  12.549  67.802  1.00  0.00    -0.212 OA 
HETATM    5  C   UNL     1     -10.509  12.902  69.179  1.00  0.00     0.122 C  
HETATM    6  O   UNL     1      -9.172   6.741  69.516  1.00  0.00    -0.147 OA 
HETATM    7  O   UNL     1     -10.085  14.247  69.323  1.00  0.00    -0.119 OA 
HETATM    8  C   UNL     1      -8.686   8.890  70.343  1.00  0.00    -0.200 C  
HETATM    9  C   UNL     1      -9.614  14.712  68.040  1.00  0.00    -0.212 C  
HETATM   10  C   UNL     1      -8.662   7.835  69.315  1.00  0.00    -0.139 C  
HETATM   11  C   UNL     1      -8.041  14.585  67.801  1.00  0.00    -0.166 C  
HETATM   12  C   UNL     1      -8.043   8.179  68.017  1.00  0.00    -0.128 C  
HETATM   13  C   UNL     1      -7.381  15.869  67.214  1.00  0.00    -0.251 C  
HETATM   14  C   UNL     1      -5.629  10.119  69.422  1.00  0.00    -0.037 C  
HETATM   15  C   UNL     1      -7.359   9.323  67.840  1.00  0.00    -0.080 C  
HETATM   16  C   UNL     1      -7.306  14.324  69.129  1.00  0.00    -0.092 C  
HETATM   17  C   UNL     1      -7.085  10.319  68.966  1.00  0.00    -0.072 C  
HETATM   18  C   UNL     1      -6.909  12.888  69.453  1.00  0.00     0.040 C  
HETATM   19  C   UNL     1      -7.424  11.785  68.501  1.00  0.00    -0.110 C  
HETATM   20  C   UNL     1      -7.967  10.009  70.184  1.00  0.00    -0.123 C  
HETATM   21  O   UNL     1      -5.480  12.879  69.525  1.00  0.00    -0.076 OA 
HETATM   22  C   UNL     1      -7.150  12.170  67.041  1.00  0.00    -0.064 C  
HETATM   23  H   UNL     1      -5.233  11.985  69.728  1.00  0.00     0.000 HD 
HETATM   24  C   UNL     1      -7.470  11.029  66.059  1.00  0.00    -0.032 C  
HETATM   25  C   UNL     1      -6.838   9.707  66.480  1.00  0.00    -0.084 C  
ENDROOT
BRANCH   5  26
HETATM   26  C   UNL     1     -11.830  12.552  69.842  1.00  0.00    -0.373 C  
BRANCH  26  27
HETATM   27  C   UNL     1     -12.103  11.051  69.829  1.00  0.00    -0.424 C  
HETATM   28  C   UNL     1     -11.932  10.461  71.219  1.00  0.00    -0.425 C  
ENDBRANCH  26  27
ENDBRANCH   5  26
BRANCH   9  29
HETATM   29  C   UNL     1     -10.185  16.135  67.907  1.00  0.00    -0.261 C  
HETATM   30  O   UNL     1     -10.541  16.615  66.819  1.00  0.00    -0.293 OA 
BRANCH  29  31
HETATM   31  C   UNL     1     -10.247  16.980  69.182  1.00  0.00    -0.288 C  
HETATM   32  O   UNL     1      -9.639  18.257  69.041  1.00  0.00    -0.264 OA 
HETATM   33  H   UNL     1      -9.678  18.782  69.833  1.00  0.00     0.000 HD 
ENDBRANCH  29  31
ENDBRANCH   9  29
TORSDOF 4
ENDMDL
MODEL       79
REMARK 921   NORMALIZED FREE ENERGY PREDICTED BY IDOCK:   -3.54 KCAL/MOL
REMARK 922        TOTAL FREE ENERGY PREDICTED BY IDOCK:   -4.63 KCAL/MOL
REMARK 923 INTER-LIGAND FREE ENERGY PREDICTED BY IDOCK:   -4.10 KCAL/MOL
REMARK 924 INTRA-LIGAND FREE ENERGY PREDICTED BY IDOCK:   -0.53 KCAL/MOL
REMARK 927      BINDING AFFINITY PREDICTED BY RF-SCORE:    0.00 PKD
ROOT
HETATM    1  C   UNL     1      -6.911   7.436  66.512  1.00  0.00    -0.070 C  
HETATM    2  C   UNL     1      -7.915   6.782  65.529  1.00  0.00    -0.119 C  
HETATM    3  C   UNL     1      -8.673   7.914  64.864  1.00  0.00     0.157 C  
HETATM    4  O   UNL     1      -9.718   8.378  65.719  1.00  0.00    -0.075 OA 
HETATM    5  C   UNL     1      -9.652   9.797  65.702  1.00  0.00    -0.263 C  
HETATM    6  O   UNL     1     -12.522   8.820  71.239  1.00  0.00    -0.304 OA 
HETATM    7  O   UNL     1      -8.501  10.217  64.987  1.00  0.00    -0.160 OA 
HETATM    8  C   UNL     1     -10.908  10.077  70.074  1.00  0.00    -0.352 C  
HETATM    9  C   UNL     1      -7.685   9.055  64.724  1.00  0.00    -0.109 C  
HETATM   10  C   UNL     1     -11.419   8.849  70.710  1.00  0.00    -0.275 C  
HETATM   11  C   UNL     1      -6.523   8.782  65.784  1.00  0.00    -0.057 C  
HETATM   12  C   UNL     1     -10.562   7.647  70.630  1.00  0.00    -0.225 C  
HETATM   13  C   UNL     1      -5.136   8.471  65.143  1.00  0.00    -0.034 C  
HETATM   14  C   UNL     1      -7.669   9.406  70.950  1.00  0.00    -0.089 C  
HETATM   15  C   UNL     1      -9.297   7.708  70.178  1.00  0.00    -0.157 C  
HETATM   16  C   UNL     1      -6.290  10.019  66.672  1.00  0.00    -0.070 C  
HETATM   17  C   UNL     1      -8.606   9.016  69.793  1.00  0.00    -0.138 C  
HETATM   18  C   UNL     1      -6.925  10.030  68.058  1.00  0.00    -0.080 C  
HETATM   19  C   UNL     1      -7.891   8.872  68.398  1.00  0.00    -0.104 C  
HETATM   20  C   UNL     1      -9.634  10.149  69.667  1.00  0.00    -0.237 C  
HETATM   21  O   UNL     1      -5.841  10.086  68.989  1.00  0.00    -0.035 OA 
HETATM   22  C   UNL     1      -7.253   7.523  68.040  1.00  0.00    -0.090 C  
HETATM   23  H   UNL     1      -6.236  10.094  69.852  1.00  0.00     0.000 HD 
HETATM   24  C   UNL     1      -8.088   6.327  68.528  1.00  0.00    -0.109 C  
HETATM   25  C   UNL     1      -8.483   6.454  69.995  1.00  0.00    -0.135 C  
ENDROOT
BRANCH   5  26
HETATM   26  C   UNL     1     -10.971  10.383  65.232  1.00  0.00     0.470 C  
BRANCH  26  27
HETATM   27  C   UNL     1     -10.778  11.461  64.169  1.00  0.00    -0.434 C  
HETATM   28  C   UNL     1     -11.963  12.413  64.147  1.00  0.00    -0.518 C  
ENDBRANCH  26  27
ENDBRANCH   5  26
BRANCH   9  29
HETATM   29  C   UNL     1      -7.216   9.230  63.268  1.00  0.00    -0.092 C  
HETATM   30  O   UNL     1      -6.965   8.268  62.525  1.00  0.00    -0.090 OA 
BRANCH  29  31
HETATM   31  C   UNL     1      -7.010  10.663  62.772  1.00  0.00    -0.006 C  
HETATM   32  O   UNL     1      -5.644  11.054  62.733  1.00  0.00    -0.305 OA 
HETATM   33  H   UNL     1      -5.516  11.944  62.425  1.00  0.00     0.000 HD 
ENDBRANCH  29  31
ENDBRANCH   9  29
TORSDOF 4
ENDMDL
MODEL       80
REMARK 921   NORMALIZED FREE ENERGY PREDICTED BY IDOCK:   -3.09 KCAL/MOL
REMARK 922        TOTAL FREE ENERGY PREDICTED BY IDOCK:   -4.08 KCAL/MOL
REMARK 923 INTER-LIGAND FREE ENERGY PREDICTED BY IDOCK:   -4.48 KCAL/MOL
REMARK 924 INTRA-LIGAND FREE ENERGY PREDICTED BY IDOCK:    0.40 KCAL/MOL
REMARK 927      BINDING AFFINITY PREDICTED BY RF-SCORE:    0.00 PKD
ROOT
HETATM    1  C   UNL     1      -8.206   8.826  69.370  1.00  0.00    -0.108 C  
HETATM    2  C   UNL     1      -8.894   7.596  68.724  1.00  0.00    -0.131 C  
HETATM    3  C   UNL     1      -8.317   7.456  67.329  1.00  0.00    -0.119 C  
HETATM    4  O   UNL     1      -8.961   8.363  66.435  1.00  0.00    -0.150 OA 
HETATM    5  C   UNL     1      -7.930   8.981  65.676  1.00  0.00    -0.104 C  
HETATM    6  O   UNL     1     -12.483  13.330  65.229  1.00  0.00    -0.447 OA 
HETATM    7  O   UNL     1      -6.662   8.596  66.183  1.00  0.00    -0.066 OA 
HETATM    8  C   UNL     1     -10.181  12.941  65.523  1.00  0.00    -0.299 C  
HETATM    9  C   UNL     1      -6.869   7.895  67.428  1.00  0.00    -0.070 C  
HETATM   10  C   UNL     1     -11.587  12.935  65.963  1.00  0.00    -0.375 C  
HETATM   11  C   UNL     1      -6.756   8.793  68.744  1.00  0.00    -0.054 C  
HETATM   12  C   UNL     1     -11.867  12.384  67.305  1.00  0.00    -0.357 C  
HETATM   13  C   UNL     1      -5.879   8.165  69.870  1.00  0.00    -0.022 C  
HETATM   14  C   UNL     1      -9.005  13.622  68.663  1.00  0.00    -0.025 C  
HETATM   15  C   UNL     1     -10.879  12.082  68.167  1.00  0.00    -0.257 C  
HETATM   16  C   UNL     1      -6.097  10.148  68.427  1.00  0.00    -0.044 C  
HETATM   17  C   UNL     1      -9.404  12.359  67.880  1.00  0.00    -0.195 C  
HETATM   18  C   UNL     1      -7.009  11.355  68.235  1.00  0.00    -0.072 C  
HETATM   19  C   UNL     1      -8.531  11.089  68.209  1.00  0.00    -0.138 C  
HETATM   20  C   UNL     1      -9.197  12.685  66.395  1.00  0.00    -0.162 C  
HETATM   21  O   UNL     1      -6.666  12.279  69.273  1.00  0.00    -0.120 OA 
HETATM   22  C   UNL     1      -8.940  10.210  69.399  1.00  0.00    -0.205 C  
HETATM   23  H   UNL     1      -7.233  13.031  69.153  1.00  0.00     0.000 HD 
HETATM   24  C   UNL     1     -10.466  10.068  69.532  1.00  0.00    -0.260 C  
HETATM   25  C   UNL     1     -11.181  11.413  69.481  1.00  0.00    -0.322 C  
ENDROOT
BRANCH   5  26
HETATM   26  C   UNL     1      -8.148   8.740  64.193  1.00  0.00    -0.162 C  
BRANCH  26  27
HETATM   27  C   UNL     1      -6.852   8.389  63.468  1.00  0.00    -0.084 C  
HETATM   28  C   UNL     1      -6.753   6.890  63.238  1.00  0.00    -0.043 C  
ENDBRANCH  26  27
ENDBRANCH   5  26
BRANCH   9  29
HETATM   29  C   UNL     1      -5.903   6.699  67.367  1.00  0.00    -0.013 C  
HETATM   30  O   UNL     1      -5.229   6.433  66.359  1.00  0.00    -0.012 OA 
BRANCH  29  31
HETATM   31  C   UNL     1      -5.842   5.791  68.598  1.00  0.00    -0.019 C  
HETATM   32  O   UNL     1      -6.539   4.565  68.429  1.00  0.00    -0.043 OA 
HETATM   33  H   UNL     1      -6.501   4.001  69.194  1.00  0.00     0.000 HD 
ENDBRANCH  29  31
ENDBRANCH   9  29
TORSDOF 4
ENDMDL
MODEL       81
REMARK 921   NORMALIZED FREE ENERGY PREDICTED BY IDOCK:   -2.99 KCAL/MOL
REMARK 922        TOTAL FREE ENERGY PREDICTED BY IDOCK:   -3.96 KCAL/MOL
REMARK 923 INTER-LIGAND FREE ENERGY PREDICTED BY IDOCK:   -3.11 KCAL/MOL
REMARK 924 INTRA-LIGAND FREE ENERGY PREDICTED BY IDOCK:   -0.85 KCAL/MOL
REMARK 927      BINDING AFFINITY PREDICTED BY RF-SCORE:    0.00 PKD
ROOT
HETATM    1  C   UNL     1     -10.299  13.649  68.172  1.00  0.00    -0.245 C  
HETATM    2  C   UNL     1     -11.490  14.616  68.395  1.00  0.00    -0.335 C  
HETATM    3  C   UNL     1     -11.688  15.371  67.096  1.00  0.00     0.040 C  
HETATM    4  O   UNL     1     -10.754  16.445  67.001  1.00  0.00    -0.302 OA 
HETATM    5  C   UNL     1     -10.218  16.398  65.685  1.00  0.00    -0.324 C  
HETATM    6  O   UNL     1      -5.582  19.408  68.735  1.00  0.00    -0.202 OA 
HETATM    7  O   UNL     1     -10.679  15.234  65.019  1.00  0.00    -0.400 OA 
HETATM    8  C   UNL     1      -6.119  17.779  67.123  1.00  0.00    -0.171 C  
HETATM    9  C   UNL     1     -11.345  14.395  65.987  1.00  0.00    -0.335 C  
HETATM   10  C   UNL     1      -6.024  18.291  68.501  1.00  0.00    -0.187 C  
HETATM   11  C   UNL     1     -10.438  13.259  66.648  1.00  0.00    -0.279 C  
HETATM   12  C   UNL     1      -6.536  17.417  69.577  1.00  0.00    -0.172 C  
HETATM   13  C   UNL     1     -11.106  11.851  66.684  1.00  0.00    -0.360 C  
HETATM   14  C   UNL     1      -5.471  14.557  68.074  1.00  0.00    -0.122 C  
HETATM   15  C   UNL     1      -6.890  16.140  69.344  1.00  0.00    -0.214 C  
HETATM   16  C   UNL     1      -9.134  13.068  65.851  1.00  0.00     0.277 C  
HETATM   17  C   UNL     1      -6.717  15.457  67.988  1.00  0.00    -0.156 C  
HETATM   18  C   UNL     1      -7.872  13.742  66.378  1.00  0.00     1.430 C  
HETATM   19  C   UNL     1      -8.036  14.700  67.579  1.00  0.00    -0.200 C  
HETATM   20  C   UNL     1      -6.427  16.496  66.896  1.00  0.00    -0.190 C  
HETATM   21  O   UNL     1      -6.958  12.685  66.685  1.00  0.00    -0.352 OA 
HETATM   22  C   UNL     1      -8.869  14.035  68.683  1.00  0.00    -0.104 C  
HETATM   23  H   UNL     1      -6.172  13.104  67.013  1.00  0.00     0.000 HD 
HETATM   24  C   UNL     1      -8.907  14.866  69.977  1.00  0.00     0.523 C  
HETATM   25  C   UNL     1      -7.519  15.304  70.427  1.00  0.00     0.628 C  
ENDROOT
BRANCH   5  26
HETATM   26  C   UNL     1     -10.465  17.711  64.965  1.00  0.00     0.759 C  
BRANCH  26  27
HETATM   27  C   UNL     1     -10.713  18.864  65.934  1.00  0.00    -0.366 C  
HETATM   28  C   UNL     1      -9.443  19.673  66.143  1.00  0.00    -0.441 C  
ENDBRANCH  26  27
ENDBRANCH   5  26
BRANCH   9  29
HETATM   29  C   UNL     1     -12.604  13.888  65.262  1.00  0.00    -0.478 C  
HETATM   30  O   UNL     1     -13.641  13.566  65.865  1.00  0.00     0.038 OA 
BRANCH  29  31
HETATM   31  C   UNL     1     -12.516  13.735  63.742  1.00  0.00    -0.159 C  
HETATM   32  O   UNL     1     -11.446  12.900  63.321  1.00  0.00    -0.706 OA 
HETATM   33  H   UNL     1     -11.391  12.806  62.376  1.00  0.00     0.000 HD 
ENDBRANCH  29  31
ENDBRANCH   9  29
TORSDOF 4
ENDMDL
MODEL       82
REMARK 921   NORMALIZED FREE ENERGY PREDICTED BY IDOCK:   -2.86 KCAL/MOL
REMARK 922        TOTAL FREE ENERGY PREDICTED BY IDOCK:   -3.80 KCAL/MOL
REMARK 923 INTER-LIGAND FREE ENERGY PREDICTED BY IDOCK:   -3.89 KCAL/MOL
REMARK 924 INTRA-LIGAND FREE ENERGY PREDICTED BY IDOCK:    0.09 KCAL/MOL
REMARK 927      BINDING AFFINITY PREDICTED BY RF-SCORE:    0.00 PKD
ROOT
HETATM    1  C   UNL     1      -8.241  11.435  69.248  1.00  0.00     0.209 C  
HETATM    2  C   UNL     1      -6.991  11.807  68.412  1.00  0.00    -0.080 C  
HETATM    3  C   UNL     1      -7.471  12.057  66.997  1.00  0.00    -0.106 C  
HETATM    4  O   UNL     1      -7.641  10.820  66.306  1.00  0.00    -0.135 OA 
HETATM    5  C   UNL     1      -8.893  10.899  65.638  1.00  0.00    -0.190 C  
HETATM    6  O   UNL     1      -8.230   4.642  66.150  1.00  0.00    -0.106 OA 
HETATM    7  O   UNL     1      -9.569  12.085  66.023  1.00  0.00    -0.232 OA 
HETATM    8  C   UNL     1      -9.714   6.464  66.289  1.00  0.00    -0.082 C  
HETATM    9  C   UNL     1      -8.849  12.677  67.125  1.00  0.00    -0.204 C  
HETATM   10  C   UNL     1      -8.595   5.633  66.769  1.00  0.00    -0.111 C  
HETATM   11  C   UNL     1      -9.386  12.291  68.578  1.00  0.00    -0.101 C  
HETATM   12  C   UNL     1      -7.905   6.082  67.996  1.00  0.00    -0.106 C  
HETATM   13  C   UNL     1      -9.552  13.507  69.540  1.00  0.00     1.049 C  
HETATM   14  C   UNL     1     -10.757   7.219  69.459  1.00  0.00    -0.244 C  
HETATM   15  C   UNL     1      -8.388   7.083  68.754  1.00  0.00    -0.122 C  
HETATM   16  C   UNL     1     -10.784  11.651  68.493  1.00  0.00    -0.250 C  
HETATM   17  C   UNL     1      -9.718   7.781  68.473  1.00  0.00    -0.165 C  
HETATM   18  C   UNL     1     -10.876  10.130  68.556  1.00  0.00    -0.237 C  
HETATM   19  C   UNL     1      -9.545   9.344  68.534  1.00  0.00    -0.154 C  
HETATM   20  C   UNL     1     -10.222   7.430  67.066  1.00  0.00    -0.357 C  
HETATM   21  O   UNL     1     -11.631   9.828  69.733  1.00  0.00    -0.413 OA 
HETATM   22  C   UNL     1      -8.561   9.931  69.555  1.00  0.00    -0.194 C  
HETATM   23  H   UNL     1     -11.688   8.881  69.772  1.00  0.00     0.000 HD 
HETATM   24  C   UNL     1      -7.292   9.076  69.712  1.00  0.00    -0.058 C  
HETATM   25  C   UNL     1      -7.608   7.602  69.933  1.00  0.00    -0.092 C  
ENDROOT
BRANCH   5  26
HETATM   26  C   UNL     1      -8.710  10.699  64.145  1.00  0.00    -0.137 C  
BRANCH  26  27
HETATM   27  C   UNL     1      -9.136  11.924  63.341  1.00  0.00     0.320 C  
HETATM   28  C   UNL     1     -10.627  12.176  63.495  1.00  0.00    -0.501 C  
ENDBRANCH  26  27
ENDBRANCH   5  26
BRANCH   9  29
HETATM   29  C   UNL     1      -8.829  14.184  66.813  1.00  0.00    -0.167 C  
HETATM   30  O   UNL     1      -7.912  14.933  67.184  1.00  0.00    -0.200 OA 
BRANCH  29  31
HETATM   31  C   UNL     1     -10.035  14.754  66.061  1.00  0.00    -0.313 C  
HETATM   32  O   UNL     1      -9.875  16.117  65.691  1.00  0.00    -0.411 OA 
HETATM   33  H   UNL     1     -10.624  16.471  65.225  1.00  0.00     0.000 HD 
ENDBRANCH  29  31
ENDBRANCH   9  29
TORSDOF 4
ENDMDL
MODEL       83
REMARK 921   NORMALIZED FREE ENERGY PREDICTED BY IDOCK:   -2.34 KCAL/MOL
REMARK 922        TOTAL FREE ENERGY PREDICTED BY IDOCK:   -3.16 KCAL/MOL
REMARK 923 INTER-LIGAND FREE ENERGY PREDICTED BY IDOCK:   -3.29 KCAL/MOL
REMARK 924 INTRA-LIGAND FREE ENERGY PREDICTED BY IDOCK:    0.13 KCAL/MOL
REMARK 927      BINDING AFFINITY PREDICTED BY RF-SCORE:    0.00 PKD
ROOT
HETATM    1  C   UNL     1      -9.154   7.338  71.546  1.00  0.00    -0.145 C  
HETATM    2  C   UNL     1     -10.231   6.511  72.293  1.00  0.00    -0.203 C  
HETATM    3  C   UNL     1      -9.730   5.081  72.335  1.00  0.00    -0.151 C  
HETATM    4  O   UNL     1      -9.999   4.426  71.095  1.00  0.00    -0.190 OA 
HETATM    5  C   UNL     1      -8.809   3.737  70.737  1.00  0.00    -0.082 C  
HETATM    6  O   UNL     1     -11.501   4.453  65.072  1.00  0.00    -0.168 OA 
HETATM    7  O   UNL     1      -7.768   4.073  71.639  1.00  0.00    -0.062 OA 
HETATM    8  C   UNL     1      -9.493   4.512  66.298  1.00  0.00    -0.174 C  
HETATM    9  C   UNL     1      -8.222   5.168  72.464  1.00  0.00    -0.117 C  
HETATM   10  C   UNL     1     -10.812   5.035  65.900  1.00  0.00    -0.063 C  
HETATM   11  C   UNL     1      -7.807   6.624  71.956  1.00  0.00    -0.097 C  
HETATM   12  C   UNL     1     -11.283   6.258  66.583  1.00  0.00     0.039 C  
HETATM   13  C   UNL     1      -7.223   7.544  73.070  1.00  0.00    -0.087 C  
HETATM   14  C   UNL     1      -8.179   7.640  66.739  1.00  0.00    -0.124 C  
HETATM   15  C   UNL     1     -10.475   6.977  67.384  1.00  0.00    -0.343 C  
HETATM   16  C   UNL     1      -6.704   6.536  70.885  1.00  0.00    -0.054 C  
HETATM   17  C   UNL     1      -8.996   6.653  67.591  1.00  0.00    -0.111 C  
HETATM   18  C   UNL     1      -7.122   6.645  69.422  1.00  0.00    -0.080 C  
HETATM   19  C   UNL     1      -8.639   6.669  69.124  1.00  0.00    -0.130 C  
HETATM   20  C   UNL     1      -8.674   5.250  67.059  1.00  0.00    -0.107 C  
HETATM   21  O   UNL     1      -6.481   7.819  68.915  1.00  0.00    -0.039 OA 
HETATM   22  C   UNL     1      -9.345   7.687  70.030  1.00  0.00    -0.154 C  
HETATM   23  H   UNL     1      -6.740   7.887  68.004  1.00  0.00     0.000 HD 
HETATM   24  C   UNL     1     -10.822   7.890  69.650  1.00  0.00    -0.177 C  
HETATM   25  C   UNL     1     -11.008   8.151  68.161  1.00  0.00     0.148 C  
ENDROOT
BRANCH   5  26
HETATM   26  C   UNL     1      -9.086   2.253  70.574  1.00  0.00    -0.172 C  
BRANCH  26  27
HETATM   27  C   UNL     1      -8.701   1.743  69.187  1.00  0.00    -0.110 C  
HETATM   28  C   UNL     1      -7.192   1.762  69.007  1.00  0.00    -0.039 C  
ENDBRANCH  26  27
ENDBRANCH   5  26
BRANCH   9  29
HETATM   29  C   UNL     1      -7.747   4.810  73.883  1.00  0.00    -0.098 C  
HETATM   30  O   UNL     1      -6.983   5.536  74.538  1.00  0.00    -0.077 OA 
BRANCH  29  31
HETATM   31  C   UNL     1      -8.214   3.468  74.453  1.00  0.00    -0.081 C  
HETATM   32  O   UNL     1      -7.199   2.473  74.456  1.00  0.00    -0.038 OA 
HETATM   33  H   UNL     1      -7.488   1.640  74.810  1.00  0.00     0.000 HD 
ENDBRANCH  29  31
ENDBRANCH   9  29
TORSDOF 4
ENDMDL
MODEL       84
REMARK 921   NORMALIZED FREE ENERGY PREDICTED BY IDOCK:   -2.21 KCAL/MOL
REMARK 922        TOTAL FREE ENERGY PREDICTED BY IDOCK:   -3.00 KCAL/MOL
REMARK 923 INTER-LIGAND FREE ENERGY PREDICTED BY IDOCK:   -3.13 KCAL/MOL
REMARK 924 INTRA-LIGAND FREE ENERGY PREDICTED BY IDOCK:    0.13 KCAL/MOL
REMARK 927      BINDING AFFINITY PREDICTED BY RF-SCORE:    0.00 PKD
ROOT
HETATM    1  C   UNL     1      -8.835   9.794  69.620  1.00  0.00    -0.224 C  
HETATM    2  C   UNL     1     -10.184   9.047  69.771  1.00  0.00    -0.214 C  
HETATM    3  C   UNL     1      -9.867   7.565  69.761  1.00  0.00    -0.180 C  
HETATM    4  O   UNL     1      -9.693   7.106  68.420  1.00  0.00    -0.140 OA 
HETATM    5  C   UNL     1      -8.523   6.300  68.419  1.00  0.00    -0.115 C  
HETATM    6  O   UNL     1      -8.747   8.056  62.359  1.00  0.00    -0.060 OA 
HETATM    7  O   UNL     1      -7.885   6.375  69.683  1.00  0.00    -0.103 OA 
HETATM    8  C   UNL     1      -7.371   7.682  64.231  1.00  0.00    -0.093 C  
HETATM    9  C   UNL     1      -8.523   7.420  70.449  1.00  0.00    -0.142 C  
HETATM   10  C   UNL     1      -8.382   8.431  63.466  1.00  0.00    -0.051 C  
HETATM   11  C   UNL     1      -7.819   8.850  70.375  1.00  0.00    -0.104 C  
HETATM   12  C   UNL     1      -8.970   9.621  64.117  1.00  0.00    -0.269 C  
HETATM   13  C   UNL     1      -7.630   9.540  71.760  1.00  0.00     0.810 C  
HETATM   14  C   UNL     1      -6.058  10.515  65.630  1.00  0.00    -0.131 C  
HETATM   15  C   UNL     1      -8.474  10.118  65.265  1.00  0.00    -0.165 C  
HETATM   16  C   UNL     1      -6.400   8.732  69.787  1.00  0.00    -0.035 C  
HETATM   17  C   UNL     1      -7.225   9.563  65.947  1.00  0.00    -0.096 C  
HETATM   18  C   UNL     1      -6.210   9.070  68.312  1.00  0.00    -0.054 C  
HETATM   19  C   UNL     1      -7.486   9.346  67.484  1.00  0.00    -0.091 C  
HETATM   20  C   UNL     1      -6.847   8.200  65.350  1.00  0.00    -0.062 C  
HETATM   21  O   UNL     1      -5.322  10.191  68.276  1.00  0.00    -0.036 OA 
HETATM   22  C   UNL     1      -8.394  10.342  68.219  1.00  0.00    -0.116 C  
HETATM   23  H   UNL     1      -5.203  10.402  67.358  1.00  0.00     0.000 HD 
HETATM   24  C   UNL     1      -9.586  10.798  67.360  1.00  0.00    -0.179 C  
HETATM   25  C   UNL     1      -9.160  11.257  65.971  1.00  0.00    -0.221 C  
ENDROOT
BRANCH   5  26
HETATM   26  C   UNL     1      -8.845   4.901  67.925  1.00  0.00    -0.110 C  
BRANCH  26  27
HETATM   27  C   UNL     1      -9.040   3.914  69.072  1.00  0.00    -0.198 C  
HETATM   28  C   UNL     1      -7.743   3.718  69.840  1.00  0.00    -0.051 C  
ENDBRANCH  26  27
ENDBRANCH   5  26
BRANCH   9  29
HETATM   29  C   UNL     1      -8.667   6.832  71.864  1.00  0.00    -0.123 C  
HETATM   30  O   UNL     1      -7.733   6.265  72.452  1.00  0.00    -0.101 OA 
BRANCH  29  31
HETATM   31  C   UNL     1     -10.049   6.922  72.517  1.00  0.00    -0.172 C  
HETATM   32  O   UNL     1     -10.035   7.580  73.777  1.00  0.00    -0.305 OA 
HETATM   33  H   UNL     1     -10.893   7.635  74.182  1.00  0.00     0.000 HD 
ENDBRANCH  29  31
ENDBRANCH   9  29
TORSDOF 4
ENDMDL
MODEL       85
REMARK 921   NORMALIZED FREE ENERGY PREDICTED BY IDOCK:   -2.19 KCAL/MOL
REMARK 922        TOTAL FREE ENERGY PREDICTED BY IDOCK:   -2.97 KCAL/MOL
REMARK 923 INTER-LIGAND FREE ENERGY PREDICTED BY IDOCK:   -3.69 KCAL/MOL
REMARK 924 INTRA-LIGAND FREE ENERGY PREDICTED BY IDOCK:    0.72 KCAL/MOL
REMARK 927      BINDING AFFINITY PREDICTED BY RF-SCORE:    0.00 PKD
ROOT
HETATM    1  C   UNL     1     -10.863  12.213  67.701  1.00  0.00    -0.272 C  
HETATM    2  C   UNL     1     -12.286  12.471  67.144  1.00  0.00     0.087 C  
HETATM    3  C   UNL     1     -12.112  13.109  65.780  1.00  0.00    -0.447 C  
HETATM    4  O   UNL     1     -11.846  14.504  65.918  1.00  0.00    -0.369 OA 
HETATM    5  C   UNL     1     -10.764  14.797  65.044  1.00  0.00    -0.433 C  
HETATM    6  O   UNL     1     -10.195  19.490  69.227  1.00  0.00    -0.343 OA 
HETATM    7  O   UNL     1     -10.255  13.595  64.489  1.00  0.00    -0.402 OA 
HETATM    8  C   UNL     1      -9.061  17.900  67.915  1.00  0.00    -0.260 C  
HETATM    9  C   UNL     1     -10.866  12.484  65.181  1.00  0.00    -0.288 C  
HETATM   10  C   UNL     1      -9.912  18.314  69.044  1.00  0.00    -0.271 C  
HETATM   11  C   UNL     1     -10.024  11.892  66.401  1.00  0.00    -0.237 C  
HETATM   12  C   UNL     1     -10.448  17.241  69.908  1.00  0.00     0.285 C  
HETATM   13  C   UNL     1      -9.915  10.337  66.404  1.00  0.00    -0.287 C  
HETATM   14  C   UNL     1      -7.635  15.342  69.684  1.00  0.00    -0.176 C  
HETATM   15  C   UNL     1     -10.027  15.968  69.799  1.00  0.00    -0.172 C  
HETATM   16  C   UNL     1      -8.571  12.400  66.361  1.00  0.00     0.076 C  
HETATM   17  C   UNL     1      -8.913  15.532  68.848  1.00  0.00    -0.220 C  
HETATM   18  C   UNL     1      -8.199  13.568  67.268  1.00  0.00    -0.154 C  
HETATM   19  C   UNL     1      -9.351  14.257  68.034  1.00  0.00    -0.200 C  
HETATM   20  C   UNL     1      -8.607  16.642  67.834  1.00  0.00    -0.196 C  
HETATM   21  O   UNL     1      -7.209  13.067  68.171  1.00  0.00    -0.092 OA 
HETATM   22  C   UNL     1     -10.230  13.211  68.730  1.00  0.00    -0.109 C  
HETATM   23  H   UNL     1      -6.976  13.794  68.735  1.00  0.00     0.000 HD 
HETATM   24  C   UNL     1     -11.279  13.845  69.660  1.00  0.00    -0.196 C  
HETATM   25  C   UNL     1     -10.670  14.872  70.607  1.00  0.00     0.031 C  
ENDROOT
BRANCH   5  26
HETATM   26  C   UNL     1     -11.165  15.866  64.044  1.00  0.00     0.365 C  
BRANCH  26  27
HETATM   27  C   UNL     1     -10.991  17.275  64.604  1.00  0.00     0.796 C  
HETATM   28  C   UNL     1     -11.397  17.325  66.068  1.00  0.00     0.995 C  
ENDBRANCH  26  27
ENDBRANCH   5  26
BRANCH   9  29
HETATM   29  C   UNL     1     -11.210  11.475  64.071  1.00  0.00    -0.333 C  
HETATM   30  O   UNL     1     -10.408  10.614  63.677  1.00  0.00    -0.268 OA 
BRANCH  29  31
HETATM   31  C   UNL     1     -12.585  11.608  63.413  1.00  0.00    -0.186 C  
HETATM   32  O   UNL     1     -12.826  12.898  62.867  1.00  0.00    -0.418 OA 
HETATM   33  H   UNL     1     -13.681  12.981  62.459  1.00  0.00     0.000 HD 
ENDBRANCH  29  31
ENDBRANCH   9  29
TORSDOF 4
ENDMDL
MODEL       86
REMARK 921   NORMALIZED FREE ENERGY PREDICTED BY IDOCK:   -2.11 KCAL/MOL
REMARK 922        TOTAL FREE ENERGY PREDICTED BY IDOCK:   -2.87 KCAL/MOL
REMARK 923 INTER-LIGAND FREE ENERGY PREDICTED BY IDOCK:   -4.00 KCAL/MOL
REMARK 924 INTRA-LIGAND FREE ENERGY PREDICTED BY IDOCK:    1.13 KCAL/MOL
REMARK 927      BINDING AFFINITY PREDICTED BY RF-SCORE:    0.00 PKD
ROOT
HETATM    1  C   UNL     1      -8.634   8.314  69.409  1.00  0.00    -0.134 C  
HETATM    2  C   UNL     1      -7.602   9.002  68.481  1.00  0.00    -0.093 C  
HETATM    3  C   UNL     1      -8.047   8.731  67.057  1.00  0.00    -0.099 C  
HETATM    4  O   UNL     1      -7.634   7.426  66.651  1.00  0.00    -0.095 OA 
HETATM    5  C   UNL     1      -8.757   6.830  66.014  1.00  0.00    -0.146 C  
HETATM    6  O   UNL     1      -5.566   1.694  67.829  1.00  0.00    -0.017 OA 
HETATM    7  O   UNL     1      -9.892   7.668  66.155  1.00  0.00    -0.071 OA 
HETATM    8  C   UNL     1      -7.683   2.700  67.616  1.00  0.00    -0.060 C  
HETATM    9  C   UNL     1      -9.563   8.720  67.087  1.00  0.00    -0.175 C  
HETATM   10  C   UNL     1      -6.354   2.539  68.232  1.00  0.00    -0.029 C  
HETATM   11  C   UNL     1      -9.985   8.448  68.602  1.00  0.00    -0.197 C  
HETATM   12  C   UNL     1      -6.000   3.478  69.317  1.00  0.00    -0.023 C  
HETATM   13  C   UNL     1     -10.709   9.647  69.287  1.00  0.00    -0.246 C  
HETATM   14  C   UNL     1      -9.157   3.570  70.579  1.00  0.00    -0.192 C  
HETATM   15  C   UNL     1      -6.908   4.311  69.857  1.00  0.00    -0.041 C  
HETATM   16  C   UNL     1     -10.976   7.272  68.692  1.00  0.00    -0.033 C  
HETATM   17  C   UNL     1      -8.386   4.305  69.468  1.00  0.00    -0.076 C  
HETATM   18  C   UNL     1     -10.425   5.905  69.080  1.00  0.00    -0.265 C  
HETATM   19  C   UNL     1      -8.889   5.771  69.191  1.00  0.00    -0.112 C  
HETATM   20  C   UNL     1      -8.600   3.495  68.182  1.00  0.00    -0.119 C  
HETATM   21  O   UNL     1     -11.061   5.558  70.313  1.00  0.00    -0.231 OA 
HETATM   22  C   UNL     1      -8.313   6.914  70.038  1.00  0.00    -0.139 C  
HETATM   23  H   UNL     1     -10.718   4.706  70.555  1.00  0.00     0.000 HD 
HETATM   24  C   UNL     1      -6.816   6.730  70.339  1.00  0.00    -0.062 C  
HETATM   25  C   UNL     1      -6.499   5.340  70.877  1.00  0.00    -0.034 C  
ENDROOT
BRANCH   5  26
HETATM   26  C   UNL     1      -8.406   6.426  64.593  1.00  0.00    -0.010 C  
BRANCH  26  27
HETATM   27  C   UNL     1      -8.146   4.928  64.465  1.00  0.00    -0.112 C  
HETATM   28  C   UNL     1      -9.375   4.213  63.929  1.00  0.00    -0.152 C  
ENDBRANCH  26  27
ENDBRANCH   5  26
BRANCH   9  29
HETATM   29  C   UNL     1     -10.156   9.995  66.461  1.00  0.00    -0.232 C  
HETATM   30  O   UNL     1      -9.965  10.310  65.275  1.00  0.00    -0.290 OA 
BRANCH  29  31
HETATM   31  C   UNL     1     -10.960  10.913  67.384  1.00  0.00    -0.293 C  
HETATM   32  O   UNL     1     -10.752  12.295  67.125  1.00  0.00    -0.224 OA 
HETATM   33  H   UNL     1     -11.252  12.865  67.698  1.00  0.00     0.000 HD 
ENDBRANCH  29  31
ENDBRANCH   9  29
TORSDOF 4
ENDMDL
MODEL       87
REMARK 921   NORMALIZED FREE ENERGY PREDICTED BY IDOCK:   -1.46 KCAL/MOL
REMARK 922        TOTAL FREE ENERGY PREDICTED BY IDOCK:   -2.07 KCAL/MOL
REMARK 923 INTER-LIGAND FREE ENERGY PREDICTED BY IDOCK:   -1.71 KCAL/MOL
REMARK 924 INTRA-LIGAND FREE ENERGY PREDICTED BY IDOCK:   -0.35 KCAL/MOL
REMARK 927      BINDING AFFINITY PREDICTED BY RF-SCORE:    0.00 PKD
ROOT
HETATM    1  C   UNL     1      -6.979  15.601  67.712  1.00  0.00    -0.179 C  
HETATM    2  C   UNL     1      -7.484  15.807  66.261  1.00  0.00     0.790 C  
HETATM    3  C   UNL     1      -8.991  15.646  66.297  1.00  0.00    -0.342 C  
HETATM    4  O   UNL     1      -9.341  14.263  66.287  1.00  0.00    -0.272 OA 
HETATM    5  C   UNL     1     -10.340  14.093  67.285  1.00  0.00    -0.267 C  
HETATM    6  O   UNL     1      -7.992   8.242  66.966  1.00  0.00    -0.099 OA 
HETATM    7  O   UNL     1     -10.502  15.299  68.013  1.00  0.00    -0.241 OA 
HETATM    8  C   UNL     1      -8.786   9.950  68.377  1.00  0.00    -0.120 C  
HETATM    9  C   UNL     1      -9.440  16.201  67.634  1.00  0.00    -0.220 C  
HETATM   10  C   UNL     1      -7.797   9.339  67.471  1.00  0.00    -0.096 C  
HETATM   11  C   UNL     1      -8.158  16.185  68.585  1.00  0.00    -0.203 C  
HETATM   12  C   UNL     1      -6.591  10.135  67.161  1.00  0.00    -0.069 C  
HETATM   13  C   UNL     1      -7.651  17.601  68.995  1.00  0.00    -0.155 C  
HETATM   14  C   UNL     1      -6.381  11.459  70.287  1.00  0.00    -0.043 C  
HETATM   15  C   UNL     1      -6.304  11.273  67.819  1.00  0.00    -0.056 C  
HETATM   16  C   UNL     1      -8.470  15.468  69.912  1.00  0.00     0.196 C  
HETATM   17  C   UNL     1      -7.137  11.796  68.989  1.00  0.00    -0.100 C  
HETATM   18  C   UNL     1      -8.029  14.016  70.058  1.00  0.00     1.261 C  
HETATM   19  C   UNL     1      -7.451  13.327  68.801  1.00  0.00    -0.053 C  
HETATM   20  C   UNL     1      -8.481  11.057  69.065  1.00  0.00    -0.082 C  
HETATM   21  O   UNL     1      -7.086  13.995  71.134  1.00  0.00     0.381 OA 
HETATM   22  C   UNL     1      -6.386  14.217  68.147  1.00  0.00    -0.132 C  
HETATM   23  H   UNL     1      -6.812  13.090  71.226  1.00  0.00     0.000 HD 
HETATM   24  C   UNL     1      -5.643  13.505  67.003  1.00  0.00     0.981 C  
HETATM   25  C   UNL     1      -5.135  12.127  67.408  1.00  0.00    -0.101 C  
ENDROOT
BRANCH   5  26
HETATM   26  C   UNL     1     -11.604  13.515  66.675  1.00  0.00    -0.396 C  
BRANCH  26  27
HETATM   27  C   UNL     1     -11.570  13.533  65.149  1.00  0.00    -0.333 C  
HETATM   28  C   UNL     1     -11.459  12.121  64.598  1.00  0.00    -0.388 C  
ENDBRANCH  26  27
ENDBRANCH   5  26
BRANCH   9  29
HETATM   29  C   UNL     1     -10.127  17.570  67.484  1.00  0.00    -0.326 C  
HETATM   30  O   UNL     1     -10.994  17.976  68.275  1.00  0.00    -0.177 OA 
BRANCH  29  31
HETATM   31  C   UNL     1      -9.738  18.412  66.266  1.00  0.00    -0.294 C  
HETATM   32  O   UNL     1     -10.774  18.515  65.299  1.00  0.00    -0.578 OA 
HETATM   33  H   UNL     1     -10.533  19.038  64.543  1.00  0.00     0.000 HD 
ENDBRANCH  29  31
ENDBRANCH   9  29
TORSDOF 4
ENDMDL
MODEL       88
REMARK 921   NORMALIZED FREE ENERGY PREDICTED BY IDOCK:   -1.35 KCAL/MOL
REMARK 922        TOTAL FREE ENERGY PREDICTED BY IDOCK:   -1.93 KCAL/MOL
REMARK 923 INTER-LIGAND FREE ENERGY PREDICTED BY IDOCK:   -2.02 KCAL/MOL
REMARK 924 INTRA-LIGAND FREE ENERGY PREDICTED BY IDOCK:    0.09 KCAL/MOL
REMARK 927      BINDING AFFINITY PREDICTED BY RF-SCORE:    0.00 PKD
ROOT
HETATM    1  C   UNL     1     -10.017   5.646  71.879  1.00  0.00    -0.223 C  
HETATM    2  C   UNL     1     -11.045   5.362  70.755  1.00  0.00     0.008 C  
HETATM    3  C   UNL     1     -10.299   4.631  69.657  1.00  0.00     0.111 C  
HETATM    4  O   UNL     1      -9.578   5.558  68.846  1.00  0.00    -0.123 OA 
HETATM    5  C   UNL     1      -8.279   5.011  68.666  1.00  0.00    -0.085 C  
HETATM    6  O   UNL     1      -7.104  11.146  67.755  1.00  0.00    -0.082 OA 
HETATM    7  O   UNL     1      -8.130   3.851  69.469  1.00  0.00    -0.055 OA 
HETATM    8  C   UNL     1      -6.346   9.138  68.721  1.00  0.00    -0.048 C  
HETATM    9  C   UNL     1      -9.267   3.766  70.354  1.00  0.00    -0.143 C  
HETATM   10  C   UNL     1      -7.242  10.304  68.632  1.00  0.00    -0.081 C  
HETATM   11  C   UNL     1      -9.053   4.397  71.805  1.00  0.00    -0.167 C  
HETATM   12  C   UNL     1      -8.343  10.380  69.616  1.00  0.00    -0.085 C  
HETATM   13  C   UNL     1      -9.536   3.486  72.974  1.00  0.00    -0.142 C  
HETATM   14  C   UNL     1      -6.486   9.054  72.139  1.00  0.00     0.044 C  
HETATM   15  C   UNL     1      -8.415   9.540  70.665  1.00  0.00    -0.166 C  
HETATM   16  C   UNL     1      -7.558   4.647  72.078  1.00  0.00    -0.089 C  
HETATM   17  C   UNL     1      -7.338   8.503  70.982  1.00  0.00    -0.074 C  
HETATM   18  C   UNL     1      -7.026   6.062  71.885  1.00  0.00    -0.077 C  
HETATM   19  C   UNL     1      -7.993   7.100  71.270  1.00  0.00    -0.102 C  
HETATM   20  C   UNL     1      -6.390   8.330  69.788  1.00  0.00    -0.036 C  
HETATM   21  O   UNL     1      -6.563   6.489  73.170  1.00  0.00    -0.067 OA 
HETATM   22  C   UNL     1      -9.347   7.059  71.991  1.00  0.00    -0.149 C  
HETATM   23  H   UNL     1      -6.231   7.371  73.050  1.00  0.00     0.000 HD 
HETATM   24  C   UNL     1     -10.285   8.195  71.549  1.00  0.00    -0.261 C  
HETATM   25  C   UNL     1      -9.605   9.558  71.586  1.00  0.00     0.507 C  
ENDROOT
BRANCH   5  26
HETATM   26  C   UNL     1      -7.979   4.833  67.189  1.00  0.00    -0.102 C  
BRANCH  26  27
HETATM   27  C   UNL     1      -6.553   4.349  66.942  1.00  0.00    -0.046 C  
HETATM   28  C   UNL     1      -5.545   5.371  67.443  1.00  0.00    -0.013 C  
ENDBRANCH  26  27
ENDBRANCH   5  26
BRANCH   9  29
HETATM   29  C   UNL     1      -9.663   2.279  70.339  1.00  0.00     0.047 C  
HETATM   30  O   UNL     1     -10.227   1.726  71.297  1.00  0.00    -0.032 OA 
BRANCH  29  31
HETATM   31  C   UNL     1      -9.279   1.470  69.098  1.00  0.00    -0.120 C  
HETATM   32  O   UNL     1     -10.139   1.696  67.990  1.00  0.00    -0.168 OA 
HETATM   33  H   UNL     1      -9.901   1.194  67.219  1.00  0.00     0.000 HD 
ENDBRANCH  29  31
ENDBRANCH   9  29
TORSDOF 4
ENDMDL
MODEL       89
REMARK 921   NORMALIZED FREE ENERGY PREDICTED BY IDOCK:   -1.32 KCAL/MOL
REMARK 922        TOTAL FREE ENERGY PREDICTED BY IDOCK:   -1.89 KCAL/MOL
REMARK 923 INTER-LIGAND FREE ENERGY PREDICTED BY IDOCK:   -3.27 KCAL/MOL
REMARK 924 INTRA-LIGAND FREE ENERGY PREDICTED BY IDOCK:    1.38 KCAL/MOL
REMARK 927      BINDING AFFINITY PREDICTED BY RF-SCORE:    0.00 PKD
ROOT
HETATM    1  C   UNL     1      -7.074   4.207  67.546  1.00  0.00    -0.063 C  
HETATM    2  C   UNL     1      -6.265   4.249  68.868  1.00  0.00    -0.031 C  
HETATM    3  C   UNL     1      -7.223   4.704  69.951  1.00  0.00    -0.054 C  
HETATM    4  O   UNL     1      -7.365   6.124  69.921  1.00  0.00    -0.075 OA 
HETATM    5  C   UNL     1      -8.757   6.392  70.025  1.00  0.00    -0.142 C  
HETATM    6  O   UNL     1      -6.755  11.657  67.174  1.00  0.00    -0.116 OA 
HETATM    7  O   UNL     1      -9.487   5.178  69.961  1.00  0.00    -0.140 OA 
HETATM    8  C   UNL     1      -8.437  10.013  67.275  1.00  0.00    -0.122 C  
HETATM    9  C   UNL     1      -8.575   4.123  69.586  1.00  0.00    -0.072 C  
HETATM   10  C   UNL     1      -7.083  10.499  66.953  1.00  0.00    -0.101 C  
HETATM   11  C   UNL     1      -8.519   3.789  68.026  1.00  0.00    -0.107 C  
HETATM   12  C   UNL     1      -6.130   9.512  66.404  1.00  0.00    -0.060 C  
HETATM   13  C   UNL     1      -8.594   2.267  67.697  1.00  0.00    -0.118 C  
HETATM   14  C   UNL     1      -8.508   7.874  64.606  1.00  0.00     0.029 C  
HETATM   15  C   UNL     1      -6.523   8.281  66.029  1.00  0.00    -0.049 C  
HETATM   16  C   UNL     1      -9.714   4.421  67.288  1.00  0.00    -0.222 C  
HETATM   17  C   UNL     1      -7.981   7.824  66.051  1.00  0.00    -0.108 C  
HETATM   18  C   UNL     1      -9.481   5.734  66.549  1.00  0.00    -0.153 C  
HETATM   19  C   UNL     1      -8.105   6.412  66.738  1.00  0.00    -0.109 C  
HETATM   20  C   UNL     1      -8.839   8.805  66.861  1.00  0.00    -0.142 C  
HETATM   21  O   UNL     1      -9.735   5.460  65.168  1.00  0.00    -0.358 OA 
HETATM   22  C   UNL     1      -6.976   5.395  66.528  1.00  0.00    -0.064 C  
HETATM   23  H   UNL     1      -9.590   6.278  64.708  1.00  0.00     0.000 HD 
HETATM   24  C   UNL     1      -5.584   6.051  66.517  1.00  0.00    -0.013 C  
HETATM   25  C   UNL     1      -5.516   7.253  65.583  1.00  0.00    -0.028 C  
ENDROOT
BRANCH   5  26
HETATM   26  C   UNL     1      -9.038   7.269  71.232  1.00  0.00    -0.146 C  
BRANCH  26  27
HETATM   27  C   UNL     1      -8.073   8.446  71.328  1.00  0.00    -0.152 C  
HETATM   28  C   UNL     1      -7.215   8.337  72.578  1.00  0.00    -0.130 C  
ENDBRANCH  26  27
ENDBRANCH   5  26
BRANCH   9  29
HETATM   29  C   UNL     1      -8.953   2.940  70.496  1.00  0.00    -0.102 C  
HETATM   30  O   UNL     1      -8.484   1.801  70.344  1.00  0.00    -0.041 OA 
BRANCH  29  31
HETATM   31  C   UNL     1      -9.995   3.207  71.585  1.00  0.00    -0.094 C  
HETATM   32  O   UNL     1     -10.093   4.577  71.947  1.00  0.00    -0.183 OA 
HETATM   33  H   UNL     1     -10.740   4.743  72.624  1.00  0.00     0.000 HD 
ENDBRANCH  29  31
ENDBRANCH   9  29
TORSDOF 4
ENDMDL
MODEL       90
REMARK 921   NORMALIZED FREE ENERGY PREDICTED BY IDOCK:   -0.82 KCAL/MOL
REMARK 922        TOTAL FREE ENERGY PREDICTED BY IDOCK:   -1.28 KCAL/MOL
REMARK 923 INTER-LIGAND FREE ENERGY PREDICTED BY IDOCK:   -0.46 KCAL/MOL
REMARK 924 INTRA-LIGAND FREE ENERGY PREDICTED BY IDOCK:   -0.82 KCAL/MOL
REMARK 927      BINDING AFFINITY PREDICTED BY RF-SCORE:    0.00 PKD
ROOT
HETATM    1  C   UNL     1      -9.700  14.713  69.440  1.00  0.00     0.019 C  
HETATM    2  C   UNL     1      -8.196  15.068  69.564  1.00  0.00    -0.106 C  
HETATM    3  C   UNL     1      -7.911  16.131  68.522  1.00  0.00    -0.172 C  
HETATM    4  O   UNL     1      -7.726  15.530  67.240  1.00  0.00    -0.174 OA 
HETATM    5  C   UNL     1      -8.483  16.304  66.319  1.00  0.00    -0.334 C  
HETATM    6  O   UNL     1      -8.211  10.785  63.268  1.00  0.00    -0.103 OA 
HETATM    7  O   UNL     1      -9.251  17.269  67.019  1.00  0.00    -0.232 OA 
HETATM    8  C   UNL     1      -9.555  12.628  63.848  1.00  0.00     0.419 C  
HETATM    9  C   UNL     1      -9.167  16.976  68.431  1.00  0.00    -0.259 C  
HETATM   10  C   UNL     1      -8.827  11.381  64.142  1.00  0.00     0.317 C  
HETATM   11  C   UNL     1     -10.355  16.086  69.016  1.00  0.00    -0.242 C  
HETATM   12  C   UNL     1      -8.830  10.918  65.545  1.00  0.00    -0.199 C  
HETATM   13  C   UNL     1     -10.965  16.631  70.343  1.00  0.00    -0.014 C  
HETATM   14  C   UNL     1     -12.024  11.941  66.114  1.00  0.00     0.040 C  
HETATM   15  C   UNL     1      -9.617  11.486  66.476  1.00  0.00    -0.225 C  
HETATM   16  C   UNL     1     -11.533  16.025  68.025  1.00  0.00    -0.199 C  
HETATM   17  C   UNL     1     -10.628  12.588  66.160  1.00  0.00    -0.279 C  
HETATM   18  C   UNL     1     -11.656  14.790  67.140  1.00  0.00    -0.359 C  
HETATM   19  C   UNL     1     -10.495  13.771  67.191  1.00  0.00    -0.272 C  
HETATM   20  C   UNL     1     -10.372  13.167  64.762  1.00  0.00    -0.369 C  
HETATM   21  O   UNL     1     -12.897  14.173  67.494  1.00  0.00    -0.130 OA 
HETATM   22  C   UNL     1     -10.142  13.436  68.646  1.00  0.00    -0.162 C  
HETATM   23  H   UNL     1     -12.975  13.403  66.943  1.00  0.00     0.000 HD 
HETATM   24  C   UNL     1      -9.123  12.288  68.757  1.00  0.00     0.129 C  
HETATM   25  C   UNL     1      -9.519  11.077  67.922  1.00  0.00    -0.170 C  
ENDROOT
BRANCH   5  26
HETATM   26  C   UNL     1      -7.586  16.845  65.221  1.00  0.00     2.592 C  
BRANCH  26  27
HETATM   27  C   UNL     1      -7.013  18.217  65.566  1.00  0.00    -0.138 C  
HETATM   28  C   UNL     1      -5.674  18.079  66.270  1.00  0.00    -0.217 C  
ENDBRANCH  26  27
ENDBRANCH   5  26
BRANCH   9  29
HETATM   29  C   UNL     1      -8.983  18.348  69.104  1.00  0.00     0.091 C  
HETATM   30  O   UNL     1      -8.156  18.544  70.009  1.00  0.00     1.080 OA 
BRANCH  29  31
HETATM   31  C   UNL     1      -9.913  19.475  68.650  1.00  0.00    -0.449 C  
HETATM   32  O   UNL     1      -9.526  20.063  67.416  1.00  0.00    -0.340 OA 
HETATM   33  H   UNL     1     -10.104  20.763  67.134  1.00  0.00     0.000 HD 
ENDBRANCH  29  31
ENDBRANCH   9  29
TORSDOF 4
ENDMDL
MODEL       91
REMARK 921   NORMALIZED FREE ENERGY PREDICTED BY IDOCK:   -0.82 KCAL/MOL
REMARK 922        TOTAL FREE ENERGY PREDICTED BY IDOCK:   -1.28 KCAL/MOL
REMARK 923 INTER-LIGAND FREE ENERGY PREDICTED BY IDOCK:   -3.49 KCAL/MOL
REMARK 924 INTRA-LIGAND FREE ENERGY PREDICTED BY IDOCK:    2.21 KCAL/MOL
REMARK 927      BINDING AFFINITY PREDICTED BY RF-SCORE:    0.00 PKD
ROOT
HETATM    1  C   UNL     1      -8.511  11.431  69.404  1.00  0.00     0.446 C  
HETATM    2  C   UNL     1      -7.460  11.516  68.268  1.00  0.00    -0.103 C  
HETATM    3  C   UNL     1      -8.190  11.210  66.975  1.00  0.00    -0.146 C  
HETATM    4  O   UNL     1      -8.340   9.800  66.814  1.00  0.00    -0.123 OA 
HETATM    5  C   UNL     1      -9.686   9.582  66.413  1.00  0.00    -0.232 C  
HETATM    6  O   UNL     1      -8.300   3.980  68.973  1.00  0.00    -0.072 OA 
HETATM    7  O   UNL     1     -10.410  10.800  66.473  1.00  0.00    -0.231 OA 
HETATM    8  C   UNL     1      -9.923   5.669  68.737  1.00  0.00    -0.221 C  
HETATM    9  C   UNL     1      -9.585  11.782  67.136  1.00  0.00    -0.181 C  
HETATM   10  C   UNL     1      -8.660   5.115  69.257  1.00  0.00    -0.096 C  
HETATM   11  C   UNL     1      -9.833  11.938  68.705  1.00  0.00    -0.139 C  
HETATM   12  C   UNL     1      -7.829   6.009  70.090  1.00  0.00    -0.101 C  
HETATM   13  C   UNL     1      -9.965  13.415  69.186  1.00  0.00     0.287 C  
HETATM   14  C   UNL     1     -10.505   7.497  71.570  1.00  0.00    -0.226 C  
HETATM   15  C   UNL     1      -8.283   7.200  70.521  1.00  0.00    -0.125 C  
HETATM   16  C   UNL     1     -11.152  11.259  69.120  1.00  0.00    -0.312 C  
HETATM   17  C   UNL     1      -9.707   7.695  70.270  1.00  0.00    -0.179 C  
HETATM   18  C   UNL     1     -11.073   9.866  69.734  1.00  0.00    -0.254 C  
HETATM   19  C   UNL     1      -9.689   9.177  69.739  1.00  0.00    -0.191 C  
HETATM   20  C   UNL     1     -10.394   6.833  69.202  1.00  0.00    -0.213 C  
HETATM   21  O   UNL     1     -11.590   9.990  71.063  1.00  0.00    -0.343 OA 
HETATM   22  C   UNL     1      -8.618  10.134  70.279  1.00  0.00     0.229 C  
HETATM   23  H   UNL     1     -11.541   9.122  71.445  1.00  0.00     0.000 HD 
HETATM   24  C   UNL     1      -7.258   9.445  70.483  1.00  0.00    -0.126 C  
HETATM   25  C   UNL     1      -7.379   8.144  71.268  1.00  0.00    -0.072 C  
ENDROOT
BRANCH   5  26
HETATM   26  C   UNL     1      -9.730   8.854  65.082  1.00  0.00     0.402 C  
BRANCH  26  27
HETATM   27  C   UNL     1      -8.368   8.824  64.394  1.00  0.00    -0.165 C  
HETATM   28  C   UNL     1      -8.521   8.997  62.891  1.00  0.00    -0.200 C  
ENDBRANCH  26  27
ENDBRANCH   5  26
BRANCH   9  29
HETATM   29  C   UNL     1      -9.773  13.069  66.312  1.00  0.00    -0.263 C  
HETATM   30  O   UNL     1      -9.977  14.176  66.835  1.00  0.00    -0.250 OA 
BRANCH  29  31
HETATM   31  C   UNL     1      -9.758  12.926  64.788  1.00  0.00     0.112 C  
HETATM   32  O   UNL     1      -9.420  11.618  64.348  1.00  0.00    -0.399 OA 
HETATM   33  H   UNL     1      -9.410  11.530  63.401  1.00  0.00     0.000 HD 
ENDBRANCH  29  31
ENDBRANCH   9  29
TORSDOF 4
ENDMDL
MODEL       92
REMARK 921   NORMALIZED FREE ENERGY PREDICTED BY IDOCK:    0.28 KCAL/MOL
REMARK 922        TOTAL FREE ENERGY PREDICTED BY IDOCK:    0.08 KCAL/MOL
REMARK 923 INTER-LIGAND FREE ENERGY PREDICTED BY IDOCK:    0.57 KCAL/MOL
REMARK 924 INTRA-LIGAND FREE ENERGY PREDICTED BY IDOCK:   -0.48 KCAL/MOL
REMARK 927      BINDING AFFINITY PREDICTED BY RF-SCORE:    0.00 PKD
ROOT
HETATM    1  C   UNL     1      -9.246  16.655  69.440  1.00  0.00     0.040 C  
HETATM    2  C   UNL     1      -7.707  16.531  69.572  1.00  0.00     0.119 C  
HETATM    3  C   UNL     1      -7.108  17.249  68.379  1.00  0.00    -0.209 C  
HETATM    4  O   UNL     1      -7.139  16.406  67.228  1.00  0.00    -0.145 OA 
HETATM    5  C   UNL     1      -7.617  17.207  66.155  1.00  0.00    -0.269 C  
HETATM    6  O   UNL     1      -9.160  11.441  64.097  1.00  0.00    -0.047 OA 
HETATM    7  O   UNL     1      -8.028  18.472  66.646  1.00  0.00    -0.243 OA 
HETATM    8  C   UNL     1      -9.836  13.687  64.294  1.00  0.00     0.762 C  
HETATM    9  C   UNL     1      -8.027  18.419  68.089  1.00  0.00    -0.288 C  
HETATM   10  C   UNL     1      -9.542  12.345  64.828  1.00  0.00     0.140 C  
HETATM   11  C   UNL     1      -9.432  18.069  68.760  1.00  0.00    -0.279 C  
HETATM   12  C   UNL     1      -9.680  12.160  66.287  1.00  0.00    -0.251 C  
HETATM   13  C   UNL     1      -9.822  19.003  69.946  1.00  0.00     0.581 C  
HETATM   14  C   UNL     1     -12.371  14.226  66.527  1.00  0.00    -0.345 C  
HETATM   15  C   UNL     1     -10.233  13.103  67.072  1.00  0.00    -0.250 C  
HETATM   16  C   UNL     1     -10.578  18.212  67.741  1.00  0.00    -0.407 C  
HETATM   17  C   UNL     1     -10.841  14.395  66.528  1.00  0.00    -0.310 C  
HETATM   18  C   UNL     1     -11.099  16.945  67.073  1.00  0.00     0.195 C  
HETATM   19  C   UNL     1     -10.325  15.635  67.348  1.00  0.00    -0.275 C  
HETATM   20  C   UNL     1     -10.428  14.608  65.065  1.00  0.00    -0.447 C  
HETATM   21  O   UNL     1     -12.469  16.825  67.468  1.00  0.00     1.659 OA 
HETATM   22  C   UNL     1     -10.083  15.466  68.854  1.00  0.00    -0.219 C  
HETATM   23  H   UNL     1     -12.794  16.036  67.051  1.00  0.00     0.000 HD 
HETATM   24  C   UNL     1      -9.484  14.093  69.205  1.00  0.00     0.162 C  
HETATM   25  C   UNL     1     -10.256  12.943  68.569  1.00  0.00    -0.210 C  
ENDROOT
BRANCH   5  26
HETATM   26  C   UNL     1      -6.606  17.234  65.024  1.00  0.00     2.489 C  
BRANCH  26  27
HETATM   27  C   UNL     1      -6.118  18.648  64.719  1.00  0.00    -0.152 C  
HETATM   28  C   UNL     1      -5.229  18.656  63.486  1.00  0.00    -0.063 C  
ENDBRANCH  26  27
ENDBRANCH   5  26
BRANCH   9  29
HETATM   29  C   UNL     1      -7.406  19.757  68.528  1.00  0.00    -0.316 C  
HETATM   30  O   UNL     1      -6.892  19.922  69.645  1.00  0.00    -0.340 OA 
BRANCH  29  31
HETATM   31  C   UNL     1      -7.497  20.922  67.540  1.00  0.00    -0.252 C  
HETATM   32  O   UNL     1      -6.273  21.190  66.870  1.00  0.00    -0.264 OA 
HETATM   33  H   UNL     1      -6.329  21.914  66.257  1.00  0.00     0.000 HD 
ENDBRANCH  29  31
ENDBRANCH   9  29
TORSDOF 4
ENDMDL
MODEL       93
REMARK 921   NORMALIZED FREE ENERGY PREDICTED BY IDOCK:    0.32 KCAL/MOL
REMARK 922        TOTAL FREE ENERGY PREDICTED BY IDOCK:    0.13 KCAL/MOL
REMARK 923 INTER-LIGAND FREE ENERGY PREDICTED BY IDOCK:   -3.93 KCAL/MOL
REMARK 924 INTRA-LIGAND FREE ENERGY PREDICTED BY IDOCK:    4.06 KCAL/MOL
REMARK 927      BINDING AFFINITY PREDICTED BY RF-SCORE:    0.00 PKD
ROOT
HETATM    1  C   UNL     1      -9.261   6.967  70.303  1.00  0.00    -0.156 C  
HETATM    2  C   UNL     1     -10.366   5.940  69.947  1.00  0.00    -0.307 C  
HETATM    3  C   UNL     1      -9.743   4.942  68.992  1.00  0.00    -0.175 C  
HETATM    4  O   UNL     1      -9.723   5.472  67.667  1.00  0.00    -0.118 OA 
HETATM    5  C   UNL     1      -8.427   5.209  67.147  1.00  0.00    -0.106 C  
HETATM    6  O   UNL     1     -10.131  10.149  63.606  1.00  0.00    -0.039 OA 
HETATM    7  O   UNL     1      -7.599   4.672  68.167  1.00  0.00    -0.075 OA 
HETATM    8  C   UNL     1      -8.387   9.117  64.803  1.00  0.00    -0.176 C  
HETATM    9  C   UNL     1      -8.297   4.794  69.425  1.00  0.00    -0.076 C  
HETATM   10  C   UNL     1      -9.660   9.853  64.696  1.00  0.00    -0.252 C  
HETATM   11  C   UNL     1      -7.944   6.096  70.279  1.00  0.00    -0.107 C  
HETATM   12  C   UNL     1     -10.361  10.167  65.958  1.00  0.00    -0.234 C  
HETATM   13  C   UNL     1      -7.659   5.811  71.785  1.00  0.00    -0.096 C  
HETATM   14  C   UNL     1      -7.485  10.726  67.685  1.00  0.00    -0.095 C  
HETATM   15  C   UNL     1      -9.783   9.972  67.157  1.00  0.00    -0.217 C  
HETATM   16  C   UNL     1      -6.666   6.770  69.746  1.00  0.00    -0.050 C  
HETATM   17  C   UNL     1      -8.339   9.499  67.324  1.00  0.00    -0.125 C  
HETATM   18  C   UNL     1      -6.827   7.976  68.827  1.00  0.00    -0.062 C  
HETATM   19  C   UNL     1      -8.262   8.324  68.370  1.00  0.00    -0.132 C  
HETATM   20  C   UNL     1      -7.792   8.965  65.993  1.00  0.00    -0.102 C  
HETATM   21  O   UNL     1      -6.224   9.078  69.512  1.00  0.00    -0.039 OA 
HETATM   22  C   UNL     1      -9.213   8.353  69.573  1.00  0.00    -0.154 C  
HETATM   23  H   UNL     1      -6.324   9.829  68.940  1.00  0.00     0.000 HD 
HETATM   24  C   UNL     1     -10.613   8.877  69.207  1.00  0.00    -0.219 C  
HETATM   25  C   UNL     1     -10.557  10.187  68.430  1.00  0.00    -0.249 C  
ENDROOT
BRANCH   5  26
HETATM   26  C   UNL     1      -8.523   4.387  65.875  1.00  0.00    -0.114 C  
BRANCH  26  27
HETATM   27  C   UNL     1      -8.800   2.913  66.159  1.00  0.00    -0.143 C  
HETATM   28  C   UNL     1      -8.704   2.625  67.648  1.00  0.00    -0.138 C  
ENDBRANCH  26  27
ENDBRANCH   5  26
BRANCH   9  29
HETATM   29  C   UNL     1      -8.049   3.454  70.140  1.00  0.00    -0.045 C  
HETATM   30  O   UNL     1      -8.966   2.670  70.432  1.00  0.00    -0.076 OA 
BRANCH  29  31
HETATM   31  C   UNL     1      -6.606   3.137  70.540  1.00  0.00    -0.032 C  
HETATM   32  O   UNL     1      -5.767   2.838  69.432  1.00  0.00    -0.020 OA 
HETATM   33  H   UNL     1      -4.871   2.640  69.681  1.00  0.00     0.000 HD 
ENDBRANCH  29  31
ENDBRANCH   9  29
TORSDOF 4
ENDMDL
MODEL       94
REMARK 921   NORMALIZED FREE ENERGY PREDICTED BY IDOCK:    0.36 KCAL/MOL
REMARK 922        TOTAL FREE ENERGY PREDICTED BY IDOCK:    0.17 KCAL/MOL
REMARK 923 INTER-LIGAND FREE ENERGY PREDICTED BY IDOCK:    0.57 KCAL/MOL
REMARK 924 INTRA-LIGAND FREE ENERGY PREDICTED BY IDOCK:   -0.40 KCAL/MOL
REMARK 927      BINDING AFFINITY PREDICTED BY RF-SCORE:    0.00 PKD
ROOT
HETATM    1  C   UNL     1      -6.869  10.113  65.999  1.00  0.00    -0.112 C  
HETATM    2  C   UNL     1      -6.806   9.729  67.499  1.00  0.00    -0.082 C  
HETATM    3  C   UNL     1      -7.826   8.628  67.710  1.00  0.00    -0.103 C  
HETATM    4  O   UNL     1      -9.134   9.184  67.844  1.00  0.00    -0.128 OA 
HETATM    5  C   UNL     1      -9.991   8.398  67.027  1.00  0.00    -0.253 C  
HETATM    6  O   UNL     1     -13.229  13.813  67.264  1.00  0.00     1.356 OA 
HETATM    7  O   UNL     1      -9.225   7.473  66.275  1.00  0.00    -0.174 OA 
HETATM    8  C   UNL     1     -12.526  12.019  65.913  1.00  0.00     0.888 C  
HETATM    9  C   UNL     1      -7.829   7.808  66.434  1.00  0.00    -0.094 C  
HETATM   10  C   UNL     1     -12.308  13.258  66.680  1.00  0.00    -0.212 C  
HETATM   11  C   UNL     1      -7.216   8.743  65.294  1.00  0.00    -0.084 C  
HETATM   12  C   UNL     1     -10.922  13.765  66.755  1.00  0.00    -0.307 C  
HETATM   13  C   UNL     1      -5.844   8.253  64.739  1.00  0.00    -0.045 C  
HETATM   14  C   UNL     1     -10.166  12.832  63.573  1.00  0.00     0.115 C  
HETATM   15  C   UNL     1      -9.935  13.243  66.003  1.00  0.00    -0.297 C  
HETATM   16  C   UNL     1      -8.150   8.799  64.071  1.00  0.00    -0.164 C  
HETATM   17  C   UNL     1     -10.166  12.156  64.955  1.00  0.00    -0.309 C  
HETATM   18  C   UNL     1      -9.067  10.009  63.931  1.00  0.00    -0.259 C  
HETATM   19  C   UNL     1      -9.106  11.003  65.114  1.00  0.00    -0.199 C  
HETATM   20  C   UNL     1     -11.556  11.528  65.130  1.00  0.00    -0.019 C  
HETATM   21  O   UNL     1      -8.674  10.664  62.721  1.00  0.00    -0.192 OA 
HETATM   22  C   UNL     1      -7.681  11.375  65.545  1.00  0.00     0.534 C  
HETATM   23  H   UNL     1      -9.246  11.417  62.633  1.00  0.00     0.000 HD 
HETATM   24  C   UNL     1      -7.656  12.502  66.592  1.00  0.00     0.362 C  
HETATM   25  C   UNL     1      -8.510  13.695  66.181  1.00  0.00     0.946 C  
ENDROOT
BRANCH   5  26
HETATM   26  C   UNL     1     -11.114   7.803  67.858  1.00  0.00     0.214 C  
BRANCH  26  27
HETATM   27  C   UNL     1     -10.625   7.296  69.211  1.00  0.00    -0.230 C  
HETATM   28  C   UNL     1     -11.503   6.158  69.708  1.00  0.00    -0.362 C  
ENDBRANCH  26  27
ENDBRANCH   5  26
BRANCH   9  29
HETATM   29  C   UNL     1      -7.122   6.454  66.623  1.00  0.00    -0.069 C  
HETATM   30  O   UNL     1      -6.178   6.296  67.413  1.00  0.00    -0.026 OA 
BRANCH  29  31
HETATM   31  C   UNL     1      -7.594   5.295  65.741  1.00  0.00    -0.083 C  
HETATM   32  O   UNL     1      -6.536   4.646  65.051  1.00  0.00    -0.041 OA 
HETATM   33  H   UNL     1      -6.830   3.926  64.503  1.00  0.00     0.000 HD 
ENDBRANCH  29  31
ENDBRANCH   9  29
TORSDOF 4
ENDMDL
MODEL       95
REMARK 921   NORMALIZED FREE ENERGY PREDICTED BY IDOCK:    0.40 KCAL/MOL
REMARK 922        TOTAL FREE ENERGY PREDICTED BY IDOCK:    0.23 KCAL/MOL
REMARK 923 INTER-LIGAND FREE ENERGY PREDICTED BY IDOCK:    0.71 KCAL/MOL
REMARK 924 INTRA-LIGAND FREE ENERGY PREDICTED BY IDOCK:   -0.47 KCAL/MOL
REMARK 927      BINDING AFFINITY PREDICTED BY RF-SCORE:    0.00 PKD
ROOT
HETATM    1  C   UNL     1     -10.044  11.976  66.454  1.00  0.00    -0.242 C  
HETATM    2  C   UNL     1      -8.928  12.870  65.855  1.00  0.00     0.378 C  
HETATM    3  C   UNL     1      -7.747  12.784  66.801  1.00  0.00     0.280 C  
HETATM    4  O   UNL     1      -7.938  13.661  67.911  1.00  0.00    -0.132 OA 
HETATM    5  C   UNL     1      -7.596  12.918  69.074  1.00  0.00     0.150 C  
HETATM    6  O   UNL     1     -11.469  17.251  71.541  1.00  0.00     0.583 OA 
HETATM    7  O   UNL     1      -7.350  11.566  68.727  1.00  0.00    -0.102 OA 
HETATM    8  C   UNL     1     -10.815  14.990  71.548  1.00  0.00     0.218 C  
HETATM    9  C   UNL     1      -7.753  11.372  67.354  1.00  0.00    -0.135 C  
HETATM   10  C   UNL     1     -11.462  16.175  70.958  1.00  0.00    -0.382 C  
HETATM   11  C   UNL     1      -9.234  10.812  67.149  1.00  0.00    -0.160 C  
HETATM   12  C   UNL     1     -12.052  16.016  69.612  1.00  0.00    -0.114 C  
HETATM   13  C   UNL     1      -9.334   9.632  66.135  1.00  0.00    -0.248 C  
HETATM   14  C   UNL     1     -13.105  12.835  70.200  1.00  0.00     0.792 C  
HETATM   15  C   UNL     1     -12.174  14.809  69.031  1.00  0.00    -0.180 C  
HETATM   16  C   UNL     1      -9.798  10.257  68.471  1.00  0.00    -0.174 C  
HETATM   17  C   UNL     1     -11.801  13.501  69.728  1.00  0.00    -0.395 C  
HETATM   18  C   UNL     1     -10.738  11.150  69.274  1.00  0.00    -0.199 C  
HETATM   19  C   UNL     1     -10.919  12.603  68.781  1.00  0.00    -0.289 C  
HETATM   20  C   UNL     1     -10.976  13.783  70.992  1.00  0.00     1.906 C  
HETATM   21  O   UNL     1     -11.992  10.462  69.320  1.00  0.00    -0.502 OA 
HETATM   22  C   UNL     1     -11.211  12.624  67.275  1.00  0.00    -0.346 C  
HETATM   23  H   UNL     1     -12.577  11.017  69.821  1.00  0.00     0.000 HD 
HETATM   24  C   UNL     1     -11.587  14.026  66.765  1.00  0.00    -0.406 C  
HETATM   25  C   UNL     1     -12.668  14.682  67.614  1.00  0.00     1.022 C  
ENDROOT
BRANCH   5  26
HETATM   26  C   UNL     1      -6.486  13.615  69.840  1.00  0.00    -0.035 C  
BRANCH  26  27
HETATM   27  C   UNL     1      -6.121  14.965  69.228  1.00  0.00    -0.107 C  
HETATM   28  C   UNL     1      -5.428  15.849  70.251  1.00  0.00    -0.160 C  
ENDBRANCH  26  27
ENDBRANCH   5  26
BRANCH   9  29
HETATM   29  C   UNL     1      -6.636  10.511  66.738  1.00  0.00    -0.086 C  
HETATM   30  O   UNL     1      -6.203  10.699  65.590  1.00  0.00    -0.129 OA 
BRANCH  29  31
HETATM   31  C   UNL     1      -6.104   9.353  67.584  1.00  0.00    -0.053 C  
HETATM   32  O   UNL     1      -5.807   8.190  66.824  1.00  0.00    -0.045 OA 
HETATM   33  H   UNL     1      -5.476   7.470  67.351  1.00  0.00     0.000 HD 
ENDBRANCH  29  31
ENDBRANCH   9  29
TORSDOF 4
ENDMDL
MODEL       96
REMARK 921   NORMALIZED FREE ENERGY PREDICTED BY IDOCK:    1.57 KCAL/MOL
REMARK 922        TOTAL FREE ENERGY PREDICTED BY IDOCK:    1.67 KCAL/MOL
REMARK 923 INTER-LIGAND FREE ENERGY PREDICTED BY IDOCK:    1.31 KCAL/MOL
REMARK 924 INTRA-LIGAND FREE ENERGY PREDICTED BY IDOCK:    0.35 KCAL/MOL
REMARK 927      BINDING AFFINITY PREDICTED BY RF-SCORE:    0.00 PKD
ROOT
HETATM    1  C   UNL     1      -6.963   3.029  67.204  1.00  0.00    -0.049 C  
HETATM    2  C   UNL     1      -8.016   2.068  66.596  1.00  0.00    -0.076 C  
HETATM    3  C   UNL     1      -8.818   2.876  65.595  1.00  0.00    -0.136 C  
HETATM    4  O   UNL     1      -9.816   3.645  66.266  1.00  0.00    -0.132 OA 
HETATM    5  C   UNL     1      -9.759   4.952  65.710  1.00  0.00    -0.169 C  
HETATM    6  O   UNL     1     -12.308   6.184  71.353  1.00  0.00    -0.032 OA 
HETATM    7  O   UNL     1      -8.653   5.052  64.828  1.00  0.00    -0.143 OA 
HETATM    8  C   UNL     1     -10.770   6.882  69.714  1.00  0.00    -0.276 C  
HETATM    9  C   UNL     1      -7.846   3.865  64.980  1.00  0.00    -0.086 C  
HETATM   10  C   UNL     1     -11.237   5.994  70.793  1.00  0.00    -0.269 C  
HETATM   11  C   UNL     1      -6.625   3.994  66.000  1.00  0.00    -0.041 C  
HETATM   12  C   UNL     1     -10.379   4.838  71.127  1.00  0.00    -0.188 C  
HETATM   13  C   UNL     1      -5.274   3.443  65.450  1.00  0.00    -0.009 C  
HETATM   14  C   UNL     1      -7.483   6.542  70.600  1.00  0.00    -0.080 C  
HETATM   15  C   UNL     1      -9.141   4.703  70.618  1.00  0.00    -0.181 C  
HETATM   16  C   UNL     1      -6.350   5.471  66.340  1.00  0.00    -0.039 C  
HETATM   17  C   UNL     1      -8.481   5.758  69.730  1.00  0.00    -0.123 C  
HETATM   18  C   UNL     1      -6.907   6.015  67.651  1.00  0.00    -0.060 C  
HETATM   19  C   UNL     1      -7.844   5.087  68.456  1.00  0.00    -0.082 C  
HETATM   20  C   UNL     1      -9.522   6.775  69.240  1.00  0.00    -0.142 C  
HETATM   21  O   UNL     1      -5.772   6.402  68.432  1.00  0.00    -0.014 OA 
HETATM   22  C   UNL     1      -7.219   3.692  68.601  1.00  0.00    -0.051 C  
HETATM   23  H   UNL     1      -6.118   6.742  69.249  1.00  0.00     0.000 HD 
HETATM   24  C   UNL     1      -8.018   2.783  69.550  1.00  0.00    -0.053 C  
HETATM   25  C   UNL     1      -8.331   3.461  70.878  1.00  0.00    -0.090 C  
ENDROOT
BRANCH   5  26
HETATM   26  C   UNL     1     -11.106   5.337  65.126  1.00  0.00     1.132 C  
BRANCH  26  27
HETATM   27  C   UNL     1     -11.862   4.132  64.572  1.00  0.00     2.049 C  
HETATM   28  C   UNL     1     -11.485   3.882  63.121  1.00  0.00     0.801 C  
ENDBRANCH  26  27
ENDBRANCH   5  26
BRANCH   9  29
HETATM   29  C   UNL     1      -7.461   3.469  63.544  1.00  0.00    -0.058 C  
HETATM   30  O   UNL     1      -7.388   4.293  62.618  1.00  0.00    -0.043 OA 
BRANCH  29  31
HETATM   31  C   UNL     1      -7.220   1.982  63.274  1.00  0.00    -0.040 C  
HETATM   32  O   UNL     1      -5.915   1.548  63.633  1.00  0.00    -0.008 OA 
HETATM   33  H   UNL     1      -5.765   0.625  63.465  1.00  0.00     0.000 HD 
ENDBRANCH  29  31
ENDBRANCH   9  29
TORSDOF 4
ENDMDL
MODEL       97
REMARK 921   NORMALIZED FREE ENERGY PREDICTED BY IDOCK:    3.65 KCAL/MOL
REMARK 922        TOTAL FREE ENERGY PREDICTED BY IDOCK:    4.23 KCAL/MOL
REMARK 923 INTER-LIGAND FREE ENERGY PREDICTED BY IDOCK:    4.06 KCAL/MOL
REMARK 924 INTRA-LIGAND FREE ENERGY PREDICTED BY IDOCK:    0.17 KCAL/MOL
REMARK 927      BINDING AFFINITY PREDICTED BY RF-SCORE:    0.00 PKD
ROOT
HETATM    1  C   UNL     1      -9.577   7.836  64.268  1.00  0.00     2.849 C  
HETATM    2  C   UNL     1     -10.471   7.944  65.529  1.00  0.00     2.859 C  
HETATM    3  C   UNL     1      -9.660   8.680  66.577  1.00  0.00    -0.237 C  
HETATM    4  O   UNL     1      -8.754   7.784  67.220  1.00  0.00    -0.126 OA 
HETATM    5  C   UNL     1      -7.500   8.451  67.276  1.00  0.00    -0.093 C  
HETATM    6  O   UNL     1      -5.641   2.426  67.579  1.00  0.00    -0.017 OA 
HETATM    7  O   UNL     1      -7.568   9.667  66.549  1.00  0.00    -0.096 OA 
HETATM    8  C   UNL     1      -5.210   4.556  66.677  1.00  0.00    -0.009 C  
HETATM    9  C   UNL     1      -8.815   9.688  65.821  1.00  0.00    -0.157 C  
HETATM   10  C   UNL     1      -5.973   3.301  66.790  1.00  0.00    -0.024 C  
HETATM   11  C   UNL     1      -8.735   9.171  64.313  1.00  0.00    -0.180 C  
HETATM   12  C   UNL     1      -7.181   3.172  65.949  1.00  0.00    -0.071 C  
HETATM   13  C   UNL     1      -9.451  10.098  63.284  1.00  0.00    -0.302 C  
HETATM   14  C   UNL     1      -5.805   4.834  63.319  1.00  0.00    -0.017 C  
HETATM   15  C   UNL     1      -7.469   4.062  64.982  1.00  0.00    -0.077 C  
HETATM   16  C   UNL     1      -7.272   9.095  63.838  1.00  0.00    -0.096 C  
HETATM   17  C   UNL     1      -6.546   5.223  64.610  1.00  0.00    -0.043 C  
HETATM   18  C   UNL     1      -6.587   7.732  63.858  1.00  0.00    -0.061 C  
HETATM   19  C   UNL     1      -7.363   6.565  64.510  1.00  0.00    -0.082 C  
HETATM   20  C   UNL     1      -5.470   5.419  65.687  1.00  0.00    -0.013 C  
HETATM   21  O   UNL     1      -6.259   7.435  62.498  1.00  0.00    -0.056 OA 
HETATM   22  C   UNL     1      -8.798   6.510  63.969  1.00  0.00     0.746 C  
HETATM   23  H   UNL     1      -5.832   6.587  62.510  1.00  0.00     0.000 HD 
HETATM   24  C   UNL     1      -9.558   5.258  64.439  1.00  0.00     0.580 C  
HETATM   25  C   UNL     1      -8.763   3.977  64.217  1.00  0.00    -0.118 C  
ENDROOT
BRANCH   5  26
HETATM   26  C   UNL     1      -7.027   8.568  68.714  1.00  0.00    -0.063 C  
BRANCH  26  27
HETATM   27  C   UNL     1      -6.674   7.212  69.319  1.00  0.00    -0.049 C  
HETATM   28  C   UNL     1      -6.078   7.381  70.706  1.00  0.00    -0.035 C  
ENDBRANCH  26  27
ENDBRANCH   5  26
BRANCH   9  29
HETATM   29  C   UNL     1      -9.344  11.122  65.996  1.00  0.00    -0.206 C  
HETATM   30  O   UNL     1      -8.690  12.013  66.561  1.00  0.00    -0.194 OA 
BRANCH  29  31
HETATM   31  C   UNL     1     -10.760  11.407  65.488  1.00  0.00    -0.253 C  
HETATM   32  O   UNL     1     -11.318  12.602  66.017  1.00  0.00    -0.296 OA 
HETATM   33  H   UNL     1     -12.197  12.779  65.702  1.00  0.00     0.000 HD 
ENDBRANCH  29  31
ENDBRANCH   9  29
TORSDOF 4
ENDMDL
MODEL       98
REMARK 921   NORMALIZED FREE ENERGY PREDICTED BY IDOCK:    4.33 KCAL/MOL
REMARK 922        TOTAL FREE ENERGY PREDICTED BY IDOCK:    5.08 KCAL/MOL
REMARK 923 INTER-LIGAND FREE ENERGY PREDICTED BY IDOCK:    2.96 KCAL/MOL
REMARK 924 INTRA-LIGAND FREE ENERGY PREDICTED BY IDOCK:    2.11 KCAL/MOL
REMARK 927      BINDING AFFINITY PREDICTED BY RF-SCORE:    0.00 PKD
ROOT
HETATM    1  C   UNL     1     -10.871  11.186  65.199  1.00  0.00    -0.229 C  
HETATM    2  C   UNL     1     -10.024  10.775  63.968  1.00  0.00    -0.403 C  
HETATM    3  C   UNL     1      -8.743  10.168  64.504  1.00  0.00    -0.196 C  
HETATM    4  O   UNL     1      -7.823  11.197  64.869  1.00  0.00     0.302 OA 
HETATM    5  C   UNL     1      -7.302  10.839  66.142  1.00  0.00    -0.127 C  
HETATM    6  O   UNL     1      -6.417  17.088  66.229  1.00  0.00    -0.198 OA 
HETATM    7  O   UNL     1      -7.988   9.701  66.640  1.00  0.00    -0.107 OA 
HETATM    8  C   UNL     1      -7.071  15.194  67.464  1.00  0.00    -0.225 C  
HETATM    9  C   UNL     1      -9.122   9.448  65.783  1.00  0.00    -0.200 C  
HETATM   10  C   UNL     1      -7.261  16.225  66.428  1.00  0.00     0.149 C  
HETATM   11  C   UNL     1     -10.503  10.085  66.269  1.00  0.00    -0.172 C  
HETATM   12  C   UNL     1      -8.489  16.135  65.610  1.00  0.00     0.762 C  
HETATM   13  C   UNL     1     -11.711   9.101  66.221  1.00  0.00     4.795 C  
HETATM   14  C   UNL     1     -10.409  15.050  68.200  1.00  0.00    -0.239 C  
HETATM   15  C   UNL     1      -9.482  15.280  65.916  1.00  0.00    -0.351 C  
HETATM   16  C   UNL     1     -10.409  10.537  67.738  1.00  0.00    -0.248 C  
HETATM   17  C   UNL     1      -9.475  14.399  67.165  1.00  0.00    -0.225 C  
HETATM   18  C   UNL     1     -10.157  12.016  68.014  1.00  0.00    -0.198 C  
HETATM   19  C   UNL     1      -9.850  12.915  66.795  1.00  0.00    -0.241 C  
HETATM   20  C   UNL     1      -8.076  14.375  67.797  1.00  0.00    -0.174 C  
HETATM   21  O   UNL     1     -11.306  12.487  68.724  1.00  0.00    -0.251 OA 
HETATM   22  C   UNL     1     -10.880  12.677  65.683  1.00  0.00    -0.305 C  
HETATM   23  H   UNL     1     -11.149  13.408  68.896  1.00  0.00     0.000 HD 
HETATM   24  C   UNL     1     -10.738  13.677  64.522  1.00  0.00    -0.420 C  
HETATM   25  C   UNL     1     -10.669  15.121  65.004  1.00  0.00    -0.451 C  
ENDROOT
BRANCH   5  26
HETATM   26  C   UNL     1      -5.790  10.723  66.081  1.00  0.00    -0.133 C  
BRANCH  26  27
HETATM   27  C   UNL     1      -5.246   9.723  67.097  1.00  0.00    -0.038 C  
HETATM   28  C   UNL     1      -5.883   8.357  66.902  1.00  0.00    -0.049 C  
ENDBRANCH  26  27
ENDBRANCH   5  26
BRANCH   9  29
HETATM   29  C   UNL     1      -9.135   7.920  65.596  1.00  0.00     0.037 C  
HETATM   30  O   UNL     1      -9.956   7.342  64.866  1.00  0.00     2.328 OA 
BRANCH  29  31
HETATM   31  C   UNL     1      -8.116   7.113  66.403  1.00  0.00    -0.116 C  
HETATM   32  O   UNL     1      -8.530   5.777  66.658  1.00  0.00    -0.112 OA 
HETATM   33  H   UNL     1      -7.897   5.276  67.159  1.00  0.00     0.000 HD 
ENDBRANCH  29  31
ENDBRANCH   9  29
TORSDOF 4
ENDMDL
MODEL       99
REMARK 921   NORMALIZED FREE ENERGY PREDICTED BY IDOCK:    4.38 KCAL/MOL
REMARK 922        TOTAL FREE ENERGY PREDICTED BY IDOCK:    5.14 KCAL/MOL
REMARK 923 INTER-LIGAND FREE ENERGY PREDICTED BY IDOCK:    1.87 KCAL/MOL
REMARK 924 INTRA-LIGAND FREE ENERGY PREDICTED BY IDOCK:    3.26 KCAL/MOL
REMARK 927      BINDING AFFINITY PREDICTED BY RF-SCORE:    0.00 PKD
ROOT
HETATM    1  C   UNL     1     -11.404  13.248  68.158  1.00  0.00    -0.323 C  
HETATM    2  C   UNL     1     -11.581  12.579  66.772  1.00  0.00    -0.446 C  
HETATM    3  C   UNL     1     -10.428  11.609  66.605  1.00  0.00    -0.233 C  
HETATM    4  O   UNL     1      -9.254  12.305  66.187  1.00  0.00    -0.214 OA 
HETATM    5  C   UNL     1      -8.189  11.817  66.992  1.00  0.00    -0.172 C  
HETATM    6  O   UNL     1      -5.927  17.480  65.359  1.00  0.00     0.020 OA 
HETATM    7  O   UNL     1      -8.700  10.956  67.996  1.00  0.00    -0.125 OA 
HETATM    8  C   UNL     1      -6.164  15.899  67.086  1.00  0.00    -0.014 C  
HETATM    9  C   UNL     1     -10.140  11.058  67.988  1.00  0.00    -0.179 C  
HETATM   10  C   UNL     1      -6.670  16.926  66.158  1.00  0.00     0.155 C  
HETATM   11  C   UNL     1     -10.758  12.100  69.028  1.00  0.00    -0.163 C  
HETATM   12  C   UNL     1      -8.119  17.212  66.202  1.00  0.00    -0.283 C  
HETATM   13  C   UNL     1     -11.955  11.541  69.854  1.00  0.00    -0.426 C  
HETATM   14  C   UNL     1      -8.329  16.811  69.573  1.00  0.00     0.403 C  
HETATM   15  C   UNL     1      -8.911  16.713  67.168  1.00  0.00    -0.209 C  
HETATM   16  C   UNL     1      -9.706  12.518  70.073  1.00  0.00     2.955 C  
HETATM   17  C   UNL     1      -8.383  15.889  68.342  1.00  0.00    -0.174 C  
HETATM   18  C   UNL     1      -8.988  13.847  69.868  1.00  0.00     1.809 C  
HETATM   19  C   UNL     1      -9.253  14.592  68.540  1.00  0.00    -0.195 C  
HETATM   20  C   UNL     1      -6.940  15.438  68.075  1.00  0.00    -0.144 C  
HETATM   21  O   UNL     1      -9.336  14.662  70.992  1.00  0.00     1.428 OA 
HETATM   22  C   UNL     1     -10.760  14.673  68.265  1.00  0.00    -0.240 C  
HETATM   23  H   UNL     1      -8.889  15.490  70.865  1.00  0.00     0.000 HD 
HETATM   24  C   UNL     1     -11.092  15.565  67.056  1.00  0.00    -0.238 C  
HETATM   25  C   UNL     1     -10.402  16.921  67.127  1.00  0.00    -0.304 C  
ENDROOT
BRANCH   5  26
HETATM   26  C   UNL     1      -7.091  11.235  66.120  1.00  0.00     0.070 C  
BRANCH  26  27
HETATM   27  C   UNL     1      -7.644  10.554  64.871  1.00  0.00    -0.006 C  
HETATM   28  C   UNL     1      -9.070  10.083  65.103  1.00  0.00    -0.247 C  
ENDBRANCH  26  27
ENDBRANCH   5  26
BRANCH   9  29
HETATM   29  C   UNL     1     -10.634   9.609  68.140  1.00  0.00    -0.226 C  
HETATM   30  O   UNL     1     -11.135   8.970  67.201  1.00  0.00     0.016 OA 
BRANCH  29  31
HETATM   31  C   UNL     1     -10.540   8.985  69.534  1.00  0.00    -0.225 C  
HETATM   32  O   UNL     1     -10.236   7.597  69.511  1.00  0.00    -0.198 OA 
HETATM   33  H   UNL     1     -10.177   7.210  70.378  1.00  0.00     0.000 HD 
ENDBRANCH  29  31
ENDBRANCH   9  29
TORSDOF 4
ENDMDL
MODEL      100
REMARK 921   NORMALIZED FREE ENERGY PREDICTED BY IDOCK:    5.24 KCAL/MOL
REMARK 922        TOTAL FREE ENERGY PREDICTED BY IDOCK:    6.20 KCAL/MOL
REMARK 923 INTER-LIGAND FREE ENERGY PREDICTED BY IDOCK:    5.09 KCAL/MOL
REMARK 924 INTRA-LIGAND FREE ENERGY PREDICTED BY IDOCK:    1.12 KCAL/MOL
REMARK 927      BINDING AFFINITY PREDICTED BY RF-SCORE:    0.00 PKD
ROOT
HETATM    1  C   UNL     1     -10.243   5.721  72.061  1.00  0.00    -0.245 C  
HETATM    2  C   UNL     1     -11.184   5.177  70.956  1.00  0.00     0.433 C  
HETATM    3  C   UNL     1     -10.317   4.893  69.746  1.00  0.00    -0.133 C  
HETATM    4  O   UNL     1     -10.065   6.098  69.023  1.00  0.00    -0.154 OA 
HETATM    5  C   UNL     1      -8.676   6.104  68.722  1.00  0.00    -0.119 C  
HETATM    6  O   UNL     1      -9.952  12.283  68.511  1.00  0.00    -0.213 OA 
HETATM    7  O   UNL     1      -8.038   5.016  69.371  1.00  0.00    -0.078 OA 
HETATM    8  C   UNL     1      -8.422  10.630  69.193  1.00  0.00    -0.134 C  
HETATM    9  C   UNL     1      -8.982   4.422  70.288  1.00  0.00    -0.088 C  
HETATM   10  C   UNL     1      -9.692  11.372  69.286  1.00  0.00     0.211 C  
HETATM   11  C   UNL     1      -8.894   4.945  71.794  1.00  0.00    -0.141 C  
HETATM   12  C   UNL     1     -10.652  10.930  70.318  1.00  0.00     0.336 C  
HETATM   13  C   UNL     1      -8.900   3.811  72.863  1.00  0.00    -0.102 C  
HETATM   14  C   UNL     1      -8.226  10.172  72.578  1.00  0.00     5.897 C  
HETATM   15  C   UNL     1     -10.316  10.028  71.259  1.00  0.00     0.563 C  
HETATM   16  C   UNL     1      -7.582   5.716  72.030  1.00  0.00    -0.100 C  
HETATM   17  C   UNL     1      -8.908   9.452  71.402  1.00  0.00     0.242 C  
HETATM   18  C   UNL     1      -7.633   7.239  71.987  1.00  0.00    -0.088 C  
HETATM   19  C   UNL     1      -8.966   7.885  71.545  1.00  0.00    -0.167 C  
HETATM   20  C   UNL     1      -8.070   9.767  70.155  1.00  0.00    -0.202 C  
HETATM   21  O   UNL     1      -7.254   7.684  73.293  1.00  0.00    -0.080 OA 
HETATM   22  C   UNL     1     -10.140   7.265  72.314  1.00  0.00    -0.219 C  
HETATM   23  H   UNL     1      -7.285   8.633  73.266  1.00  0.00     0.000 HD 
HETATM   24  C   UNL     1     -11.468   7.996  72.055  1.00  0.00    -0.364 C  
HETATM   25  C   UNL     1     -11.344   9.505  72.227  1.00  0.00     0.519 C  
ENDROOT
BRANCH   5  26
HETATM   26  C   UNL     1      -8.461   6.196  67.222  1.00  0.00    -0.104 C  
BRANCH  26  27
HETATM   27  C   UNL     1      -7.001   6.460  66.864  1.00  0.00    -0.068 C  
HETATM   28  C   UNL     1      -6.524   7.766  67.479  1.00  0.00    -0.055 C  
ENDBRANCH  26  27
ENDBRANCH   5  26
BRANCH   9  29
HETATM   29  C   UNL     1      -8.795   2.904  70.109  1.00  0.00    -0.086 C  
HETATM   30  O   UNL     1      -9.060   2.087  71.005  1.00  0.00    -0.069 OA 
BRANCH  29  31
HETATM   31  C   UNL     1      -8.204   2.429  68.780  1.00  0.00    -0.055 C  
HETATM   32  O   UNL     1      -7.280   3.348  68.213  1.00  0.00    -0.050 OA 
HETATM   33  H   UNL     1      -6.914   3.052  67.388  1.00  0.00     0.000 HD 
ENDBRANCH  29  31
ENDBRANCH   9  29
TORSDOF 4
ENDMDL
MODEL      101
REMARK 921   NORMALIZED FREE ENERGY PREDICTED BY IDOCK:    5.93 KCAL/MOL
REMARK 922        TOTAL FREE ENERGY PREDICTED BY IDOCK:    7.06 KCAL/MOL
REMARK 923 INTER-LIGAND FREE ENERGY PREDICTED BY IDOCK:    7.23 KCAL/MOL
REMARK 924 INTRA-LIGAND FREE ENERGY PREDICTED BY IDOCK:   -0.17 KCAL/MOL
REMARK 927      BINDING AFFINITY PREDICTED BY RF-SCORE:    0.00 PKD
ROOT
HETATM    1  C   UNL     1      -7.379  11.025  65.917  1.00  0.00     0.028 C  
HETATM    2  C   UNL     1      -7.302   9.932  67.012  1.00  0.00    -0.091 C  
HETATM    3  C   UNL     1      -8.625   9.192  66.984  1.00  0.00    -0.123 C  
HETATM    4  O   UNL     1      -9.617   9.926  67.701  1.00  0.00    -0.146 OA 
HETATM    5  C   UNL     1     -10.784   9.925  66.889  1.00  0.00    -0.125 C  
HETATM    6  O   UNL     1     -11.778  15.098  70.368  1.00  0.00    -0.252 OA 
HETATM    7  O   UNL     1     -10.492   9.346  65.628  1.00  0.00     0.089 OA 
HETATM    8  C   UNL     1     -11.926  14.129  68.228  1.00  0.00    -0.367 C  
HETATM    9  C   UNL     1      -9.062   9.170  65.532  1.00  0.00    -0.219 C  
HETATM   10  C   UNL     1     -11.191  14.696  69.372  1.00  0.00    -0.279 C  
HETATM   11  C   UNL     1      -8.275  10.353  64.804  1.00  0.00    -0.141 C  
HETATM   12  C   UNL     1      -9.715  14.707  69.283  1.00  0.00    -0.050 C  
HETATM   13  C   UNL     1      -7.244   9.870  63.739  1.00  0.00    -0.125 C  
HETATM   14  C   UNL     1      -9.695  15.360  65.945  1.00  0.00    -0.392 C  
HETATM   15  C   UNL     1      -9.073  14.400  68.141  1.00  0.00    -0.194 C  
HETATM   16  C   UNL     1      -9.248  11.268  64.038  1.00  0.00    -0.060 C  
HETATM   17  C   UNL     1      -9.795  14.103  66.827  1.00  0.00    -0.275 C  
HETATM   18  C   UNL     1      -9.671  12.574  64.703  1.00  0.00     0.060 C  
HETATM   19  C   UNL     1      -9.218  12.797  66.164  1.00  0.00    -0.040 C  
HETATM   20  C   UNL     1     -11.291  13.868  67.078  1.00  0.00    -0.343 C  
HETATM   21  O   UNL     1      -9.196  13.622  63.852  1.00  0.00     1.232 OA 
HETATM   22  C   UNL     1      -7.718  12.505  66.309  1.00  0.00     0.941 C  
HETATM   23  H   UNL     1      -9.459  14.435  64.266  1.00  0.00     0.000 HD 
HETATM   24  C   UNL     1      -7.173  12.890  67.695  1.00  0.00    -0.147 C  
HETATM   25  C   UNL     1      -7.571  14.303  68.104  1.00  0.00    -0.134 C  
ENDROOT
BRANCH   5  26
HETATM   26  C   UNL     1     -11.951   9.312  67.641  1.00  0.00     3.597 C  
BRANCH  26  27
HETATM   27  C   UNL     1     -11.594   8.975  69.087  1.00  0.00     0.676 C  
HETATM   28  C   UNL     1     -11.987   7.544  69.417  1.00  0.00     1.039 C  
ENDBRANCH  26  27
ENDBRANCH   5  26
BRANCH   9  29
HETATM   29  C   UNL     1      -8.882   7.778  64.902  1.00  0.00     0.322 C  
HETATM   30  O   UNL     1      -9.756   7.240  64.203  1.00  0.00     2.936 OA 
BRANCH  29  31
HETATM   31  C   UNL     1      -7.582   7.034  65.219  1.00  0.00    -0.099 C  
HETATM   32  O   UNL     1      -7.792   5.712  65.696  1.00  0.00    -0.093 OA 
HETATM   33  H   UNL     1      -6.984   5.251  65.894  1.00  0.00     0.000 HD 
ENDBRANCH  29  31
ENDBRANCH   9  29
TORSDOF 4
ENDMDL
MODEL      102
REMARK 921   NORMALIZED FREE ENERGY PREDICTED BY IDOCK:    6.39 KCAL/MOL
REMARK 922        TOTAL FREE ENERGY PREDICTED BY IDOCK:    7.61 KCAL/MOL
REMARK 923 INTER-LIGAND FREE ENERGY PREDICTED BY IDOCK:    6.92 KCAL/MOL
REMARK 924 INTRA-LIGAND FREE ENERGY PREDICTED BY IDOCK:    0.69 KCAL/MOL
REMARK 927      BINDING AFFINITY PREDICTED BY RF-SCORE:    0.00 PKD
ROOT
HETATM    1  C   UNL     1      -6.659  10.271  64.972  1.00  0.00    -0.114 C  
HETATM    2  C   UNL     1      -5.649   9.299  65.633  1.00  0.00    -0.045 C  
HETATM    3  C   UNL     1      -6.445   8.414  66.571  1.00  0.00    -0.055 C  
HETATM    4  O   UNL     1      -6.689   9.093  67.803  1.00  0.00    -0.063 OA 
HETATM    5  C   UNL     1      -8.061   8.885  68.112  1.00  0.00    -0.106 C  
HETATM    6  O   UNL     1      -6.932  14.210  71.308  1.00  0.00     0.759 OA 
HETATM    7  O   UNL     1      -8.704   8.229  67.031  1.00  0.00    -0.123 OA 
HETATM    8  C   UNL     1      -8.453  13.038  69.948  1.00  0.00     2.660 C  
HETATM    9  C   UNL     1      -7.794   8.209  65.910  1.00  0.00    -0.094 C  
HETATM   10  C   UNL     1      -7.209  13.788  70.194  1.00  0.00     0.768 C  
HETATM   11  C   UNL     1      -7.972   9.401  64.864  1.00  0.00    -0.120 C  
HETATM   12  C   UNL     1      -6.292  13.958  69.047  1.00  0.00    -0.099 C  
HETATM   13  C   UNL     1      -7.992   8.943  63.374  1.00  0.00    -0.157 C  
HETATM   14  C   UNL     1      -8.811  14.298  66.788  1.00  0.00    -0.207 C  
HETATM   15  C   UNL     1      -6.653  13.622  67.795  1.00  0.00    -0.178 C  
HETATM   16  C   UNL     1      -9.314  10.125  65.082  1.00  0.00    -0.290 C  
HETATM   17  C   UNL     1      -8.052  13.125  67.432  1.00  0.00    -0.181 C  
HETATM   18  C   UNL     1      -9.299  11.430  65.870  1.00  0.00    -0.228 C  
HETATM   19  C   UNL     1      -7.962  11.837  66.531  1.00  0.00    -0.009 C  
HETATM   20  C   UNL     1      -8.833  12.745  68.698  1.00  0.00     0.058 C  
HETATM   21  O   UNL     1      -9.755  12.442  64.968  1.00  0.00    -0.438 OA 
HETATM   22  C   UNL     1      -6.813  11.732  65.518  1.00  0.00     1.706 C  
HETATM   23  H   UNL     1      -9.747  13.255  65.459  1.00  0.00     0.000 HD 
HETATM   24  C   UNL     1      -5.492  12.303  66.063  1.00  0.00     1.813 C  
HETATM   25  C   UNL     1      -5.664  13.693  66.663  1.00  0.00     2.494 C  
ENDROOT
BRANCH   5  26
HETATM   26  C   UNL     1      -8.202   8.216  69.467  1.00  0.00    -0.121 C  
BRANCH  26  27
HETATM   27  C   UNL     1      -8.191   6.693  69.364  1.00  0.00    -0.124 C  
HETATM   28  C   UNL     1      -9.333   6.092  70.166  1.00  0.00    -0.172 C  
ENDBRANCH  26  27
ENDBRANCH   5  26
BRANCH   9  29
HETATM   29  C   UNL     1      -7.933   6.794  65.322  1.00  0.00    -0.127 C  
HETATM   30  O   UNL     1      -7.994   6.579  64.100  1.00  0.00    -0.115 OA 
BRANCH  29  31
HETATM   31  C   UNL     1      -8.054   5.636  66.316  1.00  0.00    -0.107 C  
HETATM   32  O   UNL     1      -7.149   4.572  66.055  1.00  0.00    -0.068 OA 
HETATM   33  H   UNL     1      -7.225   3.853  66.672  1.00  0.00     0.000 HD 
ENDBRANCH  29  31
ENDBRANCH   9  29
TORSDOF 4
ENDMDL
MODEL      103
REMARK 921   NORMALIZED FREE ENERGY PREDICTED BY IDOCK:    6.43 KCAL/MOL
REMARK 922        TOTAL FREE ENERGY PREDICTED BY IDOCK:    7.66 KCAL/MOL
REMARK 923 INTER-LIGAND FREE ENERGY PREDICTED BY IDOCK:    7.37 KCAL/MOL
REMARK 924 INTRA-LIGAND FREE ENERGY PREDICTED BY IDOCK:    0.29 KCAL/MOL
REMARK 927      BINDING AFFINITY PREDICTED BY RF-SCORE:    0.00 PKD
ROOT
HETATM    1  C   UNL     1      -8.828  12.889  69.528  1.00  0.00     1.607 C  
HETATM    2  C   UNL     1      -9.274  11.521  68.950  1.00  0.00     0.005 C  
HETATM    3  C   UNL     1      -8.323  11.195  67.817  1.00  0.00    -0.123 C  
HETATM    4  O   UNL     1      -8.708  11.891  66.632  1.00  0.00    -0.192 OA 
HETATM    5  C   UNL     1      -7.520  12.449  66.087  1.00  0.00     1.302 C  
HETATM    6  O   UNL     1     -11.865  16.313  63.630  1.00  0.00    -0.831 OA 
HETATM    7  O   UNL     1      -6.439  12.248  66.983  1.00  0.00    -0.144 OA 
HETATM    8  C   UNL     1      -9.732  16.150  64.610  1.00  0.00     1.992 C  
HETATM    9  C   UNL     1      -6.973  11.751  68.229  1.00  0.00    -0.075 C  
HETATM   10  C   UNL     1     -11.205  16.114  64.641  1.00  0.00    -0.298 C  
HETATM   11  C   UNL     1      -7.261  12.860  69.341  1.00  0.00     0.270 C  
HETATM   12  C   UNL     1     -11.840  15.773  65.931  1.00  0.00     0.719 C  
HETATM   13  C   UNL     1      -6.724  12.495  70.759  1.00  0.00     1.844 C  
HETATM   14  C   UNL     1      -9.512  17.429  67.777  1.00  0.00    -0.261 C  
HETATM   15  C   UNL     1     -11.130  15.693  67.071  1.00  0.00    -0.200 C  
HETATM   16  C   UNL     1      -6.573  14.190  68.979  1.00  0.00    -0.104 C  
HETATM   17  C   UNL     1      -9.641  16.027  67.156  1.00  0.00    -0.224 C  
HETATM   18  C   UNL     1      -7.422  15.277  68.329  1.00  0.00    -0.112 C  
HETATM   19  C   UNL     1      -8.867  14.898  67.935  1.00  0.00    -0.165 C  
HETATM   20  C   UNL     1      -9.030  16.116  65.750  1.00  0.00    -0.086 C  
HETATM   21  O   UNL     1      -7.410  16.382  69.237  1.00  0.00    -0.228 OA 
HETATM   22  C   UNL     1      -9.574  14.200  69.104  1.00  0.00     0.132 C  
HETATM   23  H   UNL     1      -7.938  17.060  68.833  1.00  0.00     0.000 HD 
HETATM   24  C   UNL     1     -11.071  13.969  68.836  1.00  0.00    -0.296 C  
HETATM   25  C   UNL     1     -11.776  15.230  68.350  1.00  0.00    -0.340 C  
ENDROOT
BRANCH   5  26
HETATM   26  C   UNL     1      -7.303  11.950  64.670  1.00  0.00     3.361 C  
BRANCH  26  27
HETATM   27  C   UNL     1      -8.315  10.879  64.273  1.00  0.00     0.166 C  
HETATM   28  C   UNL     1      -8.183  10.535  62.798  1.00  0.00    -0.171 C  
ENDBRANCH  26  27
ENDBRANCH   5  26
BRANCH   9  29
HETATM   29  C   UNL     1      -6.001  10.636  68.652  1.00  0.00    -0.040 C  
HETATM   30  O   UNL     1      -5.769  10.364  69.841  1.00  0.00    -0.042 OA 
BRANCH  29  31
HETATM   31  C   UNL     1      -5.267   9.893  67.534  1.00  0.00    -0.035 C  
HETATM   32  O   UNL     1      -6.136   9.168  66.674  1.00  0.00    -0.061 OA 
HETATM   33  H   UNL     1      -5.680   8.706  65.980  1.00  0.00     0.000 HD 
ENDBRANCH  29  31
ENDBRANCH   9  29
TORSDOF 4
ENDMDL
MODEL      104
REMARK 921   NORMALIZED FREE ENERGY PREDICTED BY IDOCK:   12.10 KCAL/MOL
REMARK 922        TOTAL FREE ENERGY PREDICTED BY IDOCK:   14.66 KCAL/MOL
REMARK 923 INTER-LIGAND FREE ENERGY PREDICTED BY IDOCK:   14.89 KCAL/MOL
REMARK 924 INTRA-LIGAND FREE ENERGY PREDICTED BY IDOCK:   -0.23 KCAL/MOL
REMARK 927      BINDING AFFINITY PREDICTED BY RF-SCORE:    0.00 PKD
ROOT
HETATM    1  C   UNL     1     -11.412  12.364  67.940  1.00  0.00    -0.385 C  
HETATM    2  C   UNL     1     -12.748  12.737  67.248  1.00  0.00     1.455 C  
HETATM    3  C   UNL     1     -12.484  13.990  66.436  1.00  0.00    -0.355 C  
HETATM    4  O   UNL     1     -12.528  15.142  67.278  1.00  0.00     0.399 OA 
HETATM    5  C   UNL     1     -11.398  15.933  66.936  1.00  0.00     0.123 C  
HETATM    6  O   UNL     1     -12.467  17.898  72.840  1.00  0.00     3.351 OA 
HETATM    7  O   UNL     1     -10.576  15.229  66.020  1.00  0.00    -0.295 OA 
HETATM    8  C   UNL     1     -10.839  17.301  71.248  1.00  0.00     1.629 C  
HETATM    9  C   UNL     1     -11.058  13.871  65.933  1.00  0.00    -0.291 C  
HETATM   10  C   UNL     1     -11.928  17.007  72.196  1.00  0.00     0.939 C  
HETATM   11  C   UNL     1     -10.326  12.823  66.889  1.00  0.00    -0.245 C  
HETATM   12  C   UNL     1     -12.373  15.601  72.291  1.00  0.00    -0.518 C  
HETATM   13  C   UNL     1      -9.910  11.498  66.182  1.00  0.00    -0.250 C  
HETATM   14  C   UNL     1      -9.240  14.342  71.879  1.00  0.00     6.598 C  
HETATM   15  C   UNL     1     -11.695  14.602  71.697  1.00  0.00    -0.250 C  
HETATM   16  C   UNL     1      -9.016  13.412  67.445  1.00  0.00    -0.215 C  
HETATM   17  C   UNL     1     -10.377  14.810  70.953  1.00  0.00     0.809 C  
HETATM   18  C   UNL     1      -9.037  13.990  68.856  1.00  0.00     0.050 C  
HETATM   19  C   UNL     1     -10.413  14.089  69.554  1.00  0.00     0.145 C  
HETATM   20  C   UNL     1     -10.137  16.304  70.693  1.00  0.00     1.074 C  
HETATM   21  O   UNL     1      -8.128  13.194  69.622  1.00  0.00     0.353 OA 
HETATM   22  C   UNL     1     -11.168  12.758  69.437  1.00  0.00    -0.198 C  
HETATM   23  H   UNL     1      -8.141  13.554  70.501  1.00  0.00     0.000 HD 
HETATM   24  C   UNL     1     -12.459  12.737  70.273  1.00  0.00    -0.176 C  
HETATM   25  C   UNL     1     -12.230  13.194  71.708  1.00  0.00     0.403 C  
ENDROOT
BRANCH   5  26
HETATM   26  C   UNL     1     -11.836  17.320  66.499  1.00  0.00     2.465 C  
BRANCH  26  27
HETATM   27  C   UNL     1     -10.650  18.222  66.167  1.00  0.00    -0.326 C  
HETATM   28  C   UNL     1      -9.510  17.994  67.145  1.00  0.00    -0.264 C  
ENDBRANCH  26  27
ENDBRANCH   5  26
BRANCH   9  29
HETATM   29  C   UNL     1     -11.008  13.535  64.432  1.00  0.00    -0.384 C  
HETATM   30  O   UNL     1      -9.942  13.408  63.809  1.00  0.00     0.105 OA 
BRANCH  29  31
HETATM   31  C   UNL     1     -12.348  13.415  63.702  1.00  0.00    -0.351 C  
HETATM   32  O   UNL     1     -12.889  14.668  63.308  1.00  0.00    -0.502 OA 
HETATM   33  H   UNL     1     -13.721  14.594  62.854  1.00  0.00     0.000 HD 
ENDBRANCH  29  31
ENDBRANCH   9  29
TORSDOF 4
ENDMDL
MODEL      105
REMARK 921   NORMALIZED FREE ENERGY PREDICTED BY IDOCK:   13.71 KCAL/MOL
REMARK 922        TOTAL FREE ENERGY PREDICTED BY IDOCK:   16.65 KCAL/MOL
REMARK 923 INTER-LIGAND FREE ENERGY PREDICTED BY IDOCK:   13.63 KCAL/MOL
REMARK 924 INTRA-LIGAND FREE ENERGY PREDICTED BY IDOCK:    3.02 KCAL/MOL
REMARK 927      BINDING AFFINITY PREDICTED BY RF-SCORE:    0.00 PKD
ROOT
HETATM    1  C   UNL     1     -10.455  14.475  65.705  1.00  0.00    -0.351 C  
HETATM    2  C   UNL     1     -11.730  15.306  65.411  1.00  0.00    -0.013 C  
HETATM    3  C   UNL     1     -11.906  16.261  66.574  1.00  0.00     1.282 C  
HETATM    4  O   UNL     1     -12.521  15.592  67.675  1.00  0.00     0.669 OA 
HETATM    5  C   UNL     1     -11.783  15.957  68.833  1.00  0.00    -0.370 C  
HETATM    6  O   UNL     1     -14.279  10.473  70.715  1.00  0.00     1.185 OA 
HETATM    7  O   UNL     1     -10.639  16.707  68.457  1.00  0.00    -0.298 OA 
HETATM    8  C   UNL     1     -12.368  11.846  70.712  1.00  0.00    -0.416 C  
HETATM    9  C   UNL     1     -10.507  16.640  67.021  1.00  0.00    -0.283 C  
HETATM   10  C   UNL     1     -13.349  10.948  70.077  1.00  0.00     0.733 C  
HETATM   11  C   UNL     1      -9.533  15.498  66.476  1.00  0.00    -0.299 C  
HETATM   12  C   UNL     1     -13.186  10.691  68.631  1.00  0.00     4.292 C  
HETATM   13  C   UNL     1      -8.527  15.985  65.389  1.00  0.00     1.864 C  
HETATM   14  C   UNL     1      -9.787  10.700  68.779  1.00  0.00    -0.196 C  
HETATM   15  C   UNL     1     -12.090  11.092  67.960  1.00  0.00     0.125 C  
HETATM   16  C   UNL     1      -8.659  14.936  67.613  1.00  0.00    -0.181 C  
HETATM   17  C   UNL     1     -10.893  11.761  68.633  1.00  0.00    -0.259 C  
HETATM   18  C   UNL     1      -9.088  13.624  68.259  1.00  0.00    -0.193 C  
HETATM   19  C   UNL     1     -10.458  13.046  67.835  1.00  0.00    -0.234 C  
HETATM   20  C   UNL     1     -11.257  12.207  70.057  1.00  0.00     0.129 C  
HETATM   21  O   UNL     1      -8.034  12.692  67.999  1.00  0.00    -0.132 OA 
HETATM   22  C   UNL     1     -10.580  13.032  66.305  1.00  0.00    -0.283 C  
HETATM   23  H   UNL     1      -8.301  11.874  68.402  1.00  0.00     0.000 HD 
HETATM   24  C   UNL     1     -11.841  12.297  65.820  1.00  0.00    -0.417 C  
HETATM   25  C   UNL     1     -11.998  10.925  66.466  1.00  0.00     1.671 C  
ENDROOT
BRANCH   5  26
HETATM   26  C   UNL     1     -12.693  16.612  69.856  1.00  0.00     2.851 C  
BRANCH  26  27
HETATM   27  C   UNL     1     -11.921  17.143  71.060  1.00  0.00     2.491 C  
HETATM   28  C   UNL     1     -10.456  16.747  70.977  1.00  0.00     1.537 C  
ENDBRANCH  26  27
ENDBRANCH   5  26
BRANCH   9  29
HETATM   29  C   UNL     1     -10.140  18.072  66.596  1.00  0.00    -0.372 C  
HETATM   30  O   UNL     1     -10.944  18.831  66.031  1.00  0.00    -0.177 OA 
BRANCH  29  31
HETATM   31  C   UNL     1      -8.699  18.523  66.847  1.00  0.00    -0.286 C  
HETATM   32  O   UNL     1      -7.751  17.872  66.012  1.00  0.00    -0.437 OA 
HETATM   33  H   UNL     1      -6.856  18.152  66.167  1.00  0.00     0.000 HD 
ENDBRANCH  29  31
ENDBRANCH   9  29
TORSDOF 4
ENDMDL
MODEL      106
REMARK 921   NORMALIZED FREE ENERGY PREDICTED BY IDOCK:   15.63 KCAL/MOL
REMARK 922        TOTAL FREE ENERGY PREDICTED BY IDOCK:   19.02 KCAL/MOL
REMARK 923 INTER-LIGAND FREE ENERGY PREDICTED BY IDOCK:   16.96 KCAL/MOL
REMARK 924 INTRA-LIGAND FREE ENERGY PREDICTED BY IDOCK:    2.06 KCAL/MOL
REMARK 927      BINDING AFFINITY PREDICTED BY RF-SCORE:    0.00 PKD
ROOT
HETATM    1  C   UNL     1      -9.498  11.111  68.669  1.00  0.00    -0.196 C  
HETATM    2  C   UNL     1     -10.528  10.760  69.772  1.00  0.00    -0.130 C  
HETATM    3  C   UNL     1     -11.277  12.039  70.091  1.00  0.00     0.325 C  
HETATM    4  O   UNL     1     -10.511  12.851  70.980  1.00  0.00     4.212 OA 
HETATM    5  C   UNL     1     -10.564  14.174  70.464  1.00  0.00     1.093 C  
HETATM    6  O   UNL     1      -5.211  14.432  73.800  1.00  0.00    -0.326 OA 
HETATM    7  O   UNL     1     -11.211  14.172  69.201  1.00  0.00    -0.252 OA 
HETATM    8  C   UNL     1      -6.299  15.054  71.808  1.00  0.00     0.944 C  
HETATM    9  C   UNL     1     -11.383  12.801  68.785  1.00  0.00    -0.288 C  
HETATM   10  C   UNL     1      -5.665  14.084  72.718  1.00  0.00     0.083 C  
HETATM   11  C   UNL     1     -10.237  12.227  67.832  1.00  0.00    -0.202 C  
HETATM   12  C   UNL     1      -5.650  12.671  72.286  1.00  0.00     0.768 C  
HETATM   13  C   UNL     1     -10.772  11.462  66.583  1.00  0.00    -0.316 C  
HETATM   14  C   UNL     1      -5.184  13.439  69.006  1.00  0.00    -0.069 C  
HETATM   15  C   UNL     1      -6.015  12.306  71.044  1.00  0.00     0.415 C  
HETATM   16  C   UNL     1      -9.373  13.369  67.267  1.00  0.00    -0.233 C  
HETATM   17  C   UNL     1      -6.390  13.308  69.952  1.00  0.00    -0.051 C  
HETATM   18  C   UNL     1      -8.035  13.650  67.942  1.00  0.00    -0.161 C  
HETATM   19  C   UNL     1      -7.727  12.875  69.243  1.00  0.00     0.459 C  
HETATM   20  C   UNL     1      -6.620  14.700  70.557  1.00  0.00     0.023 C  
HETATM   21  O   UNL     1      -7.033  13.407  66.950  1.00  0.00    -0.373 OA 
HETATM   22  C   UNL     1      -8.001  11.378  69.050  1.00  0.00    -0.026 C  
HETATM   23  H   UNL     1      -6.199  13.582  67.370  1.00  0.00     0.000 HD 
HETATM   24  C   UNL     1      -7.536  10.533  70.248  1.00  0.00     0.278 C  
HETATM   25  C   UNL     1      -6.105  10.852  70.663  1.00  0.00    -0.052 C  
ENDROOT
BRANCH   5  26
HETATM   26  C   UNL     1     -11.141  15.123  71.499  1.00  0.00    -0.218 C  
BRANCH  26  27
HETATM   27  C   UNL     1     -11.536  14.404  72.786  1.00  0.00     0.987 C  
HETATM   28  C   UNL     1     -12.917  13.783  72.652  1.00  0.00    -0.404 C  
ENDBRANCH  26  27
ENDBRANCH   5  26
BRANCH   9  29
HETATM   29  C   UNL     1     -12.807  12.745  68.204  1.00  0.00     2.060 C  
HETATM   30  O   UNL     1     -13.772  13.313  68.741  1.00  0.00     4.198 OA 
BRANCH  29  31
HETATM   31  C   UNL     1     -13.011  11.899  66.945  1.00  0.00     4.382 C  
HETATM   32  O   UNL     1     -13.130  12.673  65.759  1.00  0.00     0.030 OA 
HETATM   33  H   UNL     1     -13.258  12.148  64.978  1.00  0.00     0.000 HD 
ENDBRANCH  29  31
ENDBRANCH   9  29
TORSDOF 4
ENDMDL
MODEL      107
REMARK 921   NORMALIZED FREE ENERGY PREDICTED BY IDOCK:   17.02 KCAL/MOL
REMARK 922        TOTAL FREE ENERGY PREDICTED BY IDOCK:   20.73 KCAL/MOL
REMARK 923 INTER-LIGAND FREE ENERGY PREDICTED BY IDOCK:   20.06 KCAL/MOL
REMARK 924 INTRA-LIGAND FREE ENERGY PREDICTED BY IDOCK:    0.67 KCAL/MOL
REMARK 927      BINDING AFFINITY PREDICTED BY RF-SCORE:    0.00 PKD
ROOT
HETATM    1  C   UNL     1      -8.892  10.291  69.462  1.00  0.00    -0.166 C  
HETATM    2  C   UNL     1     -10.045   9.475  70.099  1.00  0.00    -0.293 C  
HETATM    3  C   UNL     1      -9.400   8.368  70.908  1.00  0.00    -0.166 C  
HETATM    4  O   UNL     1      -9.025   7.287  70.055  1.00  0.00    -0.141 OA 
HETATM    5  C   UNL     1      -7.705   6.916  70.432  1.00  0.00    -0.100 C  
HETATM    6  O   UNL     1      -7.853   4.834  64.474  1.00  0.00    -0.083 OA 
HETATM    7  O   UNL     1      -7.200   7.836  71.385  1.00  0.00    -0.060 OA 
HETATM    8  C   UNL     1      -6.576   5.911  66.132  1.00  0.00    -0.047 C  
HETATM    9  C   UNL     1      -8.116   8.950  71.466  1.00  0.00    -0.071 C  
HETATM   10  C   UNL     1      -7.669   5.840  65.146  1.00  0.00    -0.095 C  
HETATM   11  C   UNL     1      -7.750  10.203  70.549  1.00  0.00     0.307 C  
HETATM   12  C   UNL     1      -8.560   7.016  65.047  1.00  0.00     0.103 C  
HETATM   13  C   UNL     1      -7.830  11.576  71.284  1.00  0.00     7.362 C  
HETATM   14  C   UNL     1      -6.052   9.248  65.590  1.00  0.00    -0.059 C  
HETATM   15  C   UNL     1      -8.279   8.172  65.676  1.00  0.00    -0.133 C  
HETATM   16  C   UNL     1      -6.301  10.103  70.038  1.00  0.00    -0.088 C  
HETATM   17  C   UNL     1      -6.993   8.404  66.467  1.00  0.00    -0.071 C  
HETATM   18  C   UNL     1      -6.079   9.583  68.622  1.00  0.00    -0.043 C  
HETATM   19  C   UNL     1      -7.316   9.041  67.871  1.00  0.00    -0.084 C  
HETATM   20  C   UNL     1      -6.271   7.074  66.722  1.00  0.00    -0.042 C  
HETATM   21  O   UNL     1      -5.467  10.655  67.898  1.00  0.00    -0.040 OA 
HETATM   22  C   UNL     1      -8.480  10.036  67.971  1.00  0.00    -0.117 C  
HETATM   23  H   UNL     1      -5.329  10.331  67.016  1.00  0.00     0.000 HD 
HETATM   24  C   UNL     1      -9.675   9.639  67.087  1.00  0.00    -0.222 C  
HETATM   25  C   UNL     1      -9.258   9.316  65.657  1.00  0.00    -0.291 C  
ENDROOT
BRANCH   5  26
HETATM   26  C   UNL     1      -7.663   5.454  70.839  1.00  0.00    -0.090 C  
BRANCH  26  27
HETATM   27  C   UNL     1      -6.364   4.774  70.416  1.00  0.00    -0.026 C  
HETATM   28  C   UNL     1      -5.300   5.807  70.083  1.00  0.00    -0.009 C  
ENDBRANCH  26  27
ENDBRANCH   5  26
BRANCH   9  29
HETATM   29  C   UNL     1      -8.232   9.250  72.971  1.00  0.00     1.700 C  
HETATM   30  O   UNL     1      -7.279   9.118  73.756  1.00  0.00    -0.245 OA 
BRANCH  29  31
HETATM   31  C   UNL     1      -9.608   9.674  73.491  1.00  0.00     6.384 C  
HETATM   32  O   UNL     1     -10.206  10.709  72.723  1.00  0.00     6.992 OA 
HETATM   33  H   UNL     1     -11.061  10.972  73.047  1.00  0.00     0.000 HD 
ENDBRANCH  29  31
ENDBRANCH   9  29
TORSDOF 4
ENDMDL
MODEL      108
REMARK 921   NORMALIZED FREE ENERGY PREDICTED BY IDOCK:   24.92 KCAL/MOL
REMARK 922        TOTAL FREE ENERGY PREDICTED BY IDOCK:   30.48 KCAL/MOL
REMARK 923 INTER-LIGAND FREE ENERGY PREDICTED BY IDOCK:   30.45 KCAL/MOL
REMARK 924 INTRA-LIGAND FREE ENERGY PREDICTED BY IDOCK:    0.03 KCAL/MOL
REMARK 927      BINDING AFFINITY PREDICTED BY RF-SCORE:    0.00 PKD
ROOT
HETATM    1  C   UNL     1      -9.705  15.544  67.477  1.00  0.00    -0.215 C  
HETATM    2  C   UNL     1      -9.116  14.168  67.076  1.00  0.00    -0.255 C  
HETATM    3  C   UNL     1     -10.290  13.273  66.734  1.00  0.00    -0.257 C  
HETATM    4  O   UNL     1     -10.873  12.746  67.926  1.00  0.00    -0.210 OA 
HETATM    5  C   UNL     1     -12.280  12.895  67.787  1.00  0.00     0.014 C  
HETATM    6  O   UNL     1     -11.737  12.698  74.073  1.00  0.00     8.174 OA 
HETATM    7  O   UNL     1     -12.571  13.638  66.615  1.00  0.00    -0.306 OA 
HETATM    8  C   UNL     1     -12.806  13.715  72.239  1.00  0.00    -0.332 C  
HETATM    9  C   UNL     1     -11.333  14.174  66.101  1.00  0.00    -0.337 C  
HETATM   10  C   UNL     1     -11.649  13.454  73.115  1.00  0.00     4.553 C  
HETATM   11  C   UNL     1     -10.988  15.662  66.563  1.00  0.00    -0.206 C  
HETATM   12  C   UNL     1     -10.373  14.104  72.750  1.00  0.00     6.021 C  
HETATM   13  C   UNL     1     -10.534  16.600  65.404  1.00  0.00    -0.253 C  
HETATM   14  C   UNL     1     -11.872  16.954  71.656  1.00  0.00     0.738 C  
HETATM   15  C   UNL     1     -10.305  15.042  71.788  1.00  0.00     1.592 C  
HETATM   16  C   UNL     1     -12.225  16.346  67.175  1.00  0.00     1.924 C  
HETATM   17  C   UNL     1     -11.533  15.580  71.054  1.00  0.00    -0.426 C  
HETATM   18  C   UNL     1     -12.337  16.388  68.695  1.00  0.00     1.085 C  
HETATM   19  C   UNL     1     -11.282  15.596  69.499  1.00  0.00    -0.313 C  
HETATM   20  C   UNL     1     -12.750  14.680  71.312  1.00  0.00    -0.402 C  
HETATM   21  O   UNL     1     -12.322  17.774  69.053  1.00  0.00     2.919 OA 
HETATM   22  C   UNL     1      -9.870  15.917  68.990  1.00  0.00    -0.234 C  
HETATM   23  H   UNL     1     -12.393  17.800  70.000  1.00  0.00     0.000 HD 
HETATM   24  C   UNL     1      -8.770  15.304  69.874  1.00  0.00     0.160 C  
HETATM   25  C   UNL     1      -8.978  15.605  71.353  1.00  0.00     4.239 C  
ENDROOT
BRANCH   5  26
HETATM   26  C   UNL     1     -12.968  11.547  67.901  1.00  0.00     4.019 C  
BRANCH  26  27
HETATM   27  C   UNL     1     -12.130  10.533  68.675  1.00  0.00     0.258 C  
HETATM   28  C   UNL     1     -11.397   9.602  67.723  1.00  0.00     0.296 C  
ENDBRANCH  26  27
ENDBRANCH   5  26
BRANCH   9  29
HETATM   29  C   UNL     1     -11.420  13.964  64.578  1.00  0.00    -0.381 C  
HETATM   30  O   UNL     1     -11.955  14.787  63.818  1.00  0.00    -0.323 OA 
BRANCH  29  31
HETATM   31  C   UNL     1     -10.863  12.650  64.025  1.00  0.00    -0.415 C  
HETATM   32  O   UNL     1     -11.815  11.904  63.279  1.00  0.00    -0.679 OA 
HETATM   33  H   UNL     1     -11.469  11.088  62.936  1.00  0.00     0.000 HD 
ENDBRANCH  29  31
ENDBRANCH   9  29
TORSDOF 4
ENDMDL
MODEL      109
REMARK 921   NORMALIZED FREE ENERGY PREDICTED BY IDOCK:   27.36 KCAL/MOL
REMARK 922        TOTAL FREE ENERGY PREDICTED BY IDOCK:   33.49 KCAL/MOL
REMARK 923 INTER-LIGAND FREE ENERGY PREDICTED BY IDOCK:   31.64 KCAL/MOL
REMARK 924 INTRA-LIGAND FREE ENERGY PREDICTED BY IDOCK:    1.86 KCAL/MOL
REMARK 927      BINDING AFFINITY PREDICTED BY RF-SCORE:    0.00 PKD
ROOT
HETATM    1  C   UNL     1      -9.087  13.163  69.744  1.00  0.00     2.312 C  
HETATM    2  C   UNL     1     -10.367  12.383  70.136  1.00  0.00     2.196 C  
HETATM    3  C   UNL     1     -10.132  10.937  69.749  1.00  0.00     0.211 C  
HETATM    4  O   UNL     1     -10.374  10.753  68.354  1.00  0.00    -0.166 OA 
HETATM    5  C   UNL     1      -9.290   9.980  67.855  1.00  0.00    -0.140 C  
HETATM    6  O   UNL     1     -11.177  12.893  62.582  1.00  0.00     0.801 OA 
HETATM    7  O   UNL     1      -8.312   9.813  68.868  1.00  0.00    -0.110 OA 
HETATM    8  C   UNL     1      -9.336  12.177  63.862  1.00  0.00     0.277 C  
HETATM    9  C   UNL     1      -8.655  10.677  69.973  1.00  0.00     0.663 C  
HETATM   10  C   UNL     1     -10.492  13.048  63.584  1.00  0.00     0.100 C  
HETATM   11  C   UNL     1      -7.939  12.104  69.974  1.00  0.00     2.422 C  
HETATM   12  C   UNL     1     -10.813  14.077  64.595  1.00  0.00    -0.416 C  
HETATM   13  C   UNL     1      -7.328  12.509  71.350  1.00  0.00     6.903 C  
HETATM   14  C   UNL     1      -7.552  14.696  65.336  1.00  0.00     7.365 C  
HETATM   15  C   UNL     1      -9.985  14.345  65.622  1.00  0.00    -0.365 C  
HETATM   16  C   UNL     1      -6.757  12.124  68.986  1.00  0.00    -0.103 C  
HETATM   17  C   UNL     1      -8.618  13.684  65.789  1.00  0.00     1.488 C  
HETATM   18  C   UNL     1      -6.986  12.749  67.615  1.00  0.00    -0.146 C  
HETATM   19  C   UNL     1      -8.434  13.165  67.264  1.00  0.00    -0.199 C  
HETATM   20  C   UNL     1      -8.489  12.471  64.857  1.00  0.00     2.372 C  
HETATM   21  O   UNL     1      -6.098  13.868  67.537  1.00  0.00    -0.317 OA 
HETATM   22  C   UNL     1      -9.046  13.983  68.409  1.00  0.00    -0.191 C  
HETATM   23  H   UNL     1      -6.240  14.257  66.683  1.00  0.00     0.000 HD 
HETATM   24  C   UNL     1     -10.414  14.582  68.040  1.00  0.00    -0.236 C  
HETATM   25  C   UNL     1     -10.387  15.312  66.703  1.00  0.00    -0.281 C  
ENDROOT
BRANCH   5  26
HETATM   26  C   UNL     1      -9.803   8.702  67.217  1.00  0.00    -0.256 C  
BRANCH  26  27
HETATM   27  C   UNL     1     -11.328   8.646  67.177  1.00  0.00     1.295 C  
HETATM   28  C   UNL     1     -11.894   9.897  66.525  1.00  0.00     3.485 C  
ENDBRANCH  26  27
ENDBRANCH   5  26
BRANCH   9  29
HETATM   29  C   UNL     1      -8.410   9.820  71.228  1.00  0.00     1.088 C  
HETATM   30  O   UNL     1      -7.564  10.117  72.087  1.00  0.00     1.992 OA 
BRANCH  29  31
HETATM   31  C   UNL     1      -9.222   8.529  71.357  1.00  0.00    -0.210 C  
HETATM   32  O   UNL     1     -10.297   8.445  70.433  1.00  0.00    -0.198 OA 
HETATM   33  H   UNL     1     -10.802   7.644  70.513  1.00  0.00     0.000 HD 
ENDBRANCH  29  31
ENDBRANCH   9  29
TORSDOF 4
ENDMDL
MODEL      110
REMARK 921   NORMALIZED FREE ENERGY PREDICTED BY IDOCK:   29.16 KCAL/MOL
REMARK 922        TOTAL FREE ENERGY PREDICTED BY IDOCK:   35.71 KCAL/MOL
REMARK 923 INTER-LIGAND FREE ENERGY PREDICTED BY IDOCK:   33.77 KCAL/MOL
REMARK 924 INTRA-LIGAND FREE ENERGY PREDICTED BY IDOCK:    1.94 KCAL/MOL
REMARK 927      BINDING AFFINITY PREDICTED BY RF-SCORE:    0.00 PKD
ROOT
HETATM    1  C   UNL     1     -11.243  11.164  65.209  1.00  0.00     0.019 C  
HETATM    2  C   UNL     1      -9.784  10.661  65.068  1.00  0.00    -0.336 C  
HETATM    3  C   UNL     1      -9.247  10.479  66.473  1.00  0.00    -0.161 C  
HETATM    4  O   UNL     1      -8.827  11.734  67.008  1.00  0.00    -0.169 OA 
HETATM    5  C   UNL     1      -9.345  11.802  68.330  1.00  0.00    -0.193 C  
HETATM    6  O   UNL     1      -8.676  17.939  67.011  1.00  0.00    -0.234 OA 
HETATM    7  O   UNL     1     -10.201  10.697  68.569  1.00  0.00    -0.161 OA 
HETATM    8  C   UNL     1     -10.034  16.296  68.009  1.00  0.00    -0.240 C  
HETATM    9  C   UNL     1     -10.422  10.017  67.314  1.00  0.00    -0.254 C  
HETATM   10  C   UNL     1      -9.433  16.991  66.857  1.00  0.00    -0.257 C  
HETATM   11  C   UNL     1     -11.741  10.448  66.526  1.00  0.00     1.686 C  
HETATM   12  C   UNL     1      -9.746  16.455  65.515  1.00  0.00    -0.025 C  
HETATM   13  C   UNL     1     -12.589   9.250  66.000  1.00  0.00    13.300 C  
HETATM   14  C   UNL     1     -12.943  15.635  66.335  1.00  0.00     2.930 C  
HETATM   15  C   UNL     1     -10.684  15.509  65.331  1.00  0.00    -0.422 C  
HETATM   16  C   UNL     1     -12.690  11.244  67.442  1.00  0.00     3.702 C  
HETATM   17  C   UNL     1     -11.562  14.969  66.459  1.00  0.00    -0.184 C  
HETATM   18  C   UNL     1     -12.679  12.764  67.331  1.00  0.00     1.572 C  
HETATM   19  C   UNL     1     -11.596  13.395  66.426  1.00  0.00    -0.381 C  
HETATM   20  C   UNL     1     -10.999  15.387  67.824  1.00  0.00    -0.311 C  
HETATM   21  O   UNL     1     -13.991  13.139  66.900  1.00  0.00     5.037 OA 
HETATM   22  C   UNL     1     -11.564  12.692  65.062  1.00  0.00    -0.384 C  
HETATM   23  H   UNL     1     -13.984  14.086  66.831  1.00  0.00     0.000 HD 
HETATM   24  C   UNL     1     -10.638  13.396  64.056  1.00  0.00    -0.122 C  
HETATM   25  C   UNL     1     -10.903  14.895  63.973  1.00  0.00     0.922 C  
ENDROOT
BRANCH   5  26
HETATM   26  C   UNL     1      -8.220  11.994  69.330  1.00  0.00     0.792 C  
BRANCH  26  27
HETATM   27  C   UNL     1      -8.612  11.542  70.735  1.00  0.00     6.114 C  
HETATM   28  C   UNL     1      -9.972  10.864  70.721  1.00  0.00     2.514 C  
ENDBRANCH  26  27
ENDBRANCH   5  26
BRANCH   9  29
HETATM   29  C   UNL     1     -10.324   8.521  67.659  1.00  0.00    -0.253 C  
HETATM   30  O   UNL     1     -10.430   7.627  66.804  1.00  0.00    -0.314 OA 
BRANCH  29  31
HETATM   31  C   UNL     1     -10.145   8.158  69.136  1.00  0.00    -0.202 C  
HETATM   32  O   UNL     1     -10.638   6.866  69.462  1.00  0.00    -0.216 OA 
HETATM   33  H   UNL     1     -10.527   6.641  70.379  1.00  0.00     0.000 HD 
ENDBRANCH  29  31
ENDBRANCH   9  29
TORSDOF 4
ENDMDL
MODEL      111
REMARK 921   NORMALIZED FREE ENERGY PREDICTED BY IDOCK:   39.29 KCAL/MOL
REMARK 922        TOTAL FREE ENERGY PREDICTED BY IDOCK:   48.21 KCAL/MOL
REMARK 923 INTER-LIGAND FREE ENERGY PREDICTED BY IDOCK:   48.28 KCAL/MOL
REMARK 924 INTRA-LIGAND FREE ENERGY PREDICTED BY IDOCK:   -0.07 KCAL/MOL
REMARK 927      BINDING AFFINITY PREDICTED BY RF-SCORE:    0.00 PKD
ROOT
HETATM    1  C   UNL     1      -6.164   7.693  70.251  1.00  0.00    -0.033 C  
HETATM    2  C   UNL     1      -5.808   7.350  71.720  1.00  0.00    -0.036 C  
HETATM    3  C   UNL     1      -7.073   6.817  72.362  1.00  0.00    -0.071 C  
HETATM    4  O   UNL     1      -7.921   7.896  72.754  1.00  0.00    -0.111 OA 
HETATM    5  C   UNL     1      -9.232   7.554  72.326  1.00  0.00    -0.138 C  
HETATM    6  O   UNL     1      -9.688  13.844  72.591  1.00  0.00     7.311 OA 
HETATM    7  O   UNL     1      -9.191   6.370  71.546  1.00  0.00    -0.145 OA 
HETATM    8  C   UNL     1     -10.245  11.898  71.391  1.00  0.00     8.578 C  
HETATM    9  C   UNL     1      -7.807   6.058  71.274  1.00  0.00    -0.112 C  
HETATM   10  C   UNL     1      -9.308  12.928  71.874  1.00  0.00    18.237 C  
HETATM   11  C   UNL     1      -7.245   6.603  69.882  1.00  0.00    -0.080 C  
HETATM   12  C   UNL     1      -7.888  12.773  71.497  1.00  0.00    10.403 C  
HETATM   13  C   UNL     1      -6.444   5.547  69.062  1.00  0.00    -0.042 C  
HETATM   14  C   UNL     1      -8.606  11.539  68.409  1.00  0.00    -0.159 C  
HETATM   15  C   UNL     1      -7.491  11.855  70.597  1.00  0.00     3.619 C  
HETATM   16  C   UNL     1      -8.398   7.041  68.960  1.00  0.00    -0.126 C  
HETATM   17  C   UNL     1      -8.462  10.960  69.828  1.00  0.00     0.526 C  
HETATM   18  C   UNL     1      -8.726   8.529  68.887  1.00  0.00    -0.131 C  
HETATM   19  C   UNL     1      -7.983   9.461  69.871  1.00  0.00    -0.132 C  
HETATM   20  C   UNL     1      -9.859  11.014  70.462  1.00  0.00     2.211 C  
HETATM   21  O   UNL     1      -8.489   8.919  67.531  1.00  0.00    -0.116 OA 
HETATM   22  C   UNL     1      -6.476   9.174  69.844  1.00  0.00    -0.042 C  
HETATM   23  H   UNL     1      -8.693   9.846  67.485  1.00  0.00     0.000 HD 
HETATM   24  C   UNL     1      -5.665  10.195  70.660  1.00  0.00    -0.089 C  
HETATM   25  C   UNL     1      -6.028  11.634  70.315  1.00  0.00    -0.159 C  
ENDROOT
BRANCH   5  26
HETATM   26  C   UNL     1     -10.185   7.532  73.508  1.00  0.00    -0.380 C  
BRANCH  26  27
HETATM   27  C   UNL     1     -10.977   6.229  73.588  1.00  0.00    -0.020 C  
HETATM   28  C   UNL     1     -12.057   6.190  72.519  1.00  0.00    -0.108 C  
ENDBRANCH  26  27
ENDBRANCH   5  26
BRANCH   9  29
HETATM   29  C   UNL     1      -7.705   4.535  71.470  1.00  0.00    -0.082 C  
HETATM   30  O   UNL     1      -7.082   4.022  72.413  1.00  0.00    -0.051 OA 
BRANCH  29  31
HETATM   31  C   UNL     1      -8.364   3.652  70.408  1.00  0.00    -0.056 C  
HETATM   32  O   UNL     1      -9.784   3.694  70.442  1.00  0.00    -0.189 OA 
HETATM   33  H   UNL     1     -10.193   3.145  69.783  1.00  0.00     0.000 HD 
ENDBRANCH  29  31
ENDBRANCH   9  29
TORSDOF 4
ENDMDL
MODEL      112
REMARK 921   NORMALIZED FREE ENERGY PREDICTED BY IDOCK:   40.09 KCAL/MOL
REMARK 922        TOTAL FREE ENERGY PREDICTED BY IDOCK:   49.19 KCAL/MOL
REMARK 923 INTER-LIGAND FREE ENERGY PREDICTED BY IDOCK:   47.87 KCAL/MOL
REMARK 924 INTRA-LIGAND FREE ENERGY PREDICTED BY IDOCK:    1.33 KCAL/MOL
REMARK 927      BINDING AFFINITY PREDICTED BY RF-SCORE:    0.00 PKD
ROOT
HETATM    1  C   UNL     1      -9.244   7.343  71.451  1.00  0.00    -0.148 C  
HETATM    2  C   UNL     1     -10.435   7.050  72.398  1.00  0.00    -0.236 C  
HETATM    3  C   UNL     1     -10.713   5.563  72.304  1.00  0.00    -0.231 C  
HETATM    4  O   UNL     1     -11.489   5.279  71.140  1.00  0.00     0.258 OA 
HETATM    5  C   UNL     1     -10.885   4.152  70.518  1.00  0.00     1.765 C  
HETATM    6  O   UNL     1     -13.833   6.773  65.590  1.00  0.00    10.220 OA 
HETATM    7  O   UNL     1      -9.672   3.831  71.178  1.00  0.00    -0.170 OA 
HETATM    8  C   UNL     1     -11.878   5.706  66.350  1.00  0.00     2.089 C  
HETATM    9  C   UNL     1      -9.365   4.897  72.103  1.00  0.00    -0.136 C  
HETATM   10  C   UNL     1     -12.811   6.843  66.258  1.00  0.00    10.545 C  
HETATM   11  C   UNL     1      -8.382   6.024  71.545  1.00  0.00    -0.127 C  
HETATM   12  C   UNL     1     -12.480   8.046  67.050  1.00  0.00     8.882 C  
HETATM   13  C   UNL     1      -7.228   6.403  72.522  1.00  0.00    -0.083 C  
HETATM   14  C   UNL     1      -9.130   7.732  66.554  1.00  0.00    -0.208 C  
HETATM   15  C   UNL     1     -11.293   8.182  67.670  1.00  0.00     0.934 C  
HETATM   16  C   UNL     1      -7.681   5.550  70.257  1.00  0.00    -0.085 C  
HETATM   17  C   UNL     1     -10.161   7.164  67.544  1.00  0.00    -0.241 C  
HETATM   18  C   UNL     1      -8.244   6.027  68.923  1.00  0.00    -0.104 C  
HETATM   19  C   UNL     1      -9.574   6.814  68.963  1.00  0.00    -0.135 C  
HETATM   20  C   UNL     1     -10.680   5.857  66.928  1.00  0.00    -0.395 C  
HETATM   21  O   UNL     1      -7.208   6.800  68.311  1.00  0.00    -0.083 OA 
HETATM   22  C   UNL     1      -9.505   7.925  70.019  1.00  0.00    -0.157 C  
HETATM   23  H   UNL     1      -7.558   7.097  67.479  1.00  0.00     0.000 HD 
HETATM   24  C   UNL     1     -10.727   8.859  69.974  1.00  0.00    -0.241 C  
HETATM   25  C   UNL     1     -11.023   9.361  68.566  1.00  0.00    -0.076 C  
ENDROOT
BRANCH   5  26
HETATM   26  C   UNL     1     -11.887   3.018  70.391  1.00  0.00    11.155 C  
BRANCH  26  27
HETATM   27  C   UNL     1     -12.212   2.380  71.738  1.00  0.00     5.116 C  
HETATM   28  C   UNL     1     -10.939   2.085  72.515  1.00  0.00     0.064 C  
ENDBRANCH  26  27
ENDBRANCH   5  26
BRANCH   9  29
HETATM   29  C   UNL     1      -8.886   4.182  73.378  1.00  0.00    -0.097 C  
HETATM   30  O   UNL     1      -9.495   4.255  74.457  1.00  0.00    -0.105 OA 
BRANCH  29  31
HETATM   31  C   UNL     1      -7.571   3.404  73.286  1.00  0.00    -0.061 C  
HETATM   32  O   UNL     1      -7.459   2.624  72.103  1.00  0.00    -0.045 OA 
HETATM   33  H   UNL     1      -6.642   2.141  72.046  1.00  0.00     0.000 HD 
ENDBRANCH  29  31
ENDBRANCH   9  29
TORSDOF 4
ENDMDL
MODEL      113
REMARK 921   NORMALIZED FREE ENERGY PREDICTED BY IDOCK:   41.37 KCAL/MOL
REMARK 922        TOTAL FREE ENERGY PREDICTED BY IDOCK:   50.78 KCAL/MOL
REMARK 923 INTER-LIGAND FREE ENERGY PREDICTED BY IDOCK:   50.71 KCAL/MOL
REMARK 924 INTRA-LIGAND FREE ENERGY PREDICTED BY IDOCK:    0.07 KCAL/MOL
REMARK 927      BINDING AFFINITY PREDICTED BY RF-SCORE:    0.00 PKD
ROOT
HETATM    1  C   UNL     1      -9.114  10.488  69.319  1.00  0.00    -0.161 C  
HETATM    2  C   UNL     1     -10.357  10.271  70.219  1.00  0.00    -0.151 C  
HETATM    3  C   UNL     1     -10.357   8.809  70.617  1.00  0.00    -0.209 C  
HETATM    4  O   UNL     1     -10.902   8.011  69.566  1.00  0.00    -0.218 OA 
HETATM    5  C   UNL     1     -10.032   6.897  69.413  1.00  0.00    -0.160 C  
HETATM    6  O   UNL     1     -12.669   7.124  63.682  1.00  0.00    16.403 OA 
HETATM    7  O   UNL     1      -8.885   7.066  70.231  1.00  0.00    -0.146 OA 
HETATM    8  C   UNL     1     -10.686   6.791  64.904  1.00  0.00     5.888 C  
HETATM    9  C   UNL     1      -8.900   8.411  70.756  1.00  0.00    -0.151 C  
HETATM   10  C   UNL     1     -11.778   7.617  64.360  1.00  0.00    17.942 C  
HETATM   11  C   UNL     1      -8.058   9.480  69.921  1.00  0.00    -0.163 C  
HETATM   12  C   UNL     1     -11.774   9.051  64.716  1.00  0.00    11.314 C  
HETATM   13  C   UNL     1      -7.135  10.385  70.793  1.00  0.00     0.546 C  
HETATM   14  C   UNL     1      -8.384   9.305  64.606  1.00  0.00    -0.167 C  
HETATM   15  C   UNL     1     -10.727   9.624  65.338  1.00  0.00     1.172 C  
HETATM   16  C   UNL     1      -7.113   8.777  68.928  1.00  0.00    -0.066 C  
HETATM   17  C   UNL     1      -9.430   8.880  65.652  1.00  0.00    -0.230 C  
HETATM   18  C   UNL     1      -7.558   8.673  67.474  1.00  0.00    -0.094 C  
HETATM   19  C   UNL     1      -8.996   9.134  67.144  1.00  0.00    -0.137 C  
HETATM   20  C   UNL     1      -9.624   7.367  65.482  1.00  0.00     0.729 C  
HETATM   21  O   UNL     1      -6.595   9.408  66.712  1.00  0.00    -0.066 OA 
HETATM   22  C   UNL     1      -9.269  10.513  67.760  1.00  0.00    -0.151 C  
HETATM   23  H   UNL     1      -6.872   9.343  65.806  1.00  0.00     0.000 HD 
HETATM   24  C   UNL     1     -10.615  11.106  67.308  1.00  0.00    -0.279 C  
HETATM   25  C   UNL     1     -10.793  11.057  65.796  1.00  0.00    -0.167 C  
ENDROOT
BRANCH   5  26
HETATM   26  C   UNL     1     -10.794   5.599  69.607  1.00  0.00    -0.365 C  
BRANCH  26  27
HETATM   27  C   UNL     1     -10.293   4.492  68.684  1.00  0.00     0.231 C  
HETATM   28  C   UNL     1      -8.920   4.834  68.130  1.00  0.00    -0.129 C  
ENDBRANCH  26  27
ENDBRANCH   5  26
BRANCH   9  29
HETATM   29  C   UNL     1      -8.487   8.259  72.230  1.00  0.00    -0.187 C  
HETATM   30  O   UNL     1      -8.575   9.187  73.050  1.00  0.00     0.114 OA 
BRANCH  29  31
HETATM   31  C   UNL     1      -7.898   6.911  72.651  1.00  0.00    -0.098 C  
HETATM   32  O   UNL     1      -8.676   5.799  72.230  1.00  0.00    -0.131 OA 
HETATM   33  H   UNL     1      -8.310   4.962  72.491  1.00  0.00     0.000 HD 
ENDBRANCH  29  31
ENDBRANCH   9  29
TORSDOF 4
ENDMDL
MODEL      114
REMARK 921   NORMALIZED FREE ENERGY PREDICTED BY IDOCK:   45.81 KCAL/MOL
REMARK 922        TOTAL FREE ENERGY PREDICTED BY IDOCK:   56.25 KCAL/MOL
REMARK 923 INTER-LIGAND FREE ENERGY PREDICTED BY IDOCK:   54.88 KCAL/MOL
REMARK 924 INTRA-LIGAND FREE ENERGY PREDICTED BY IDOCK:    1.37 KCAL/MOL
REMARK 927      BINDING AFFINITY PREDICTED BY RF-SCORE:    0.00 PKD
ROOT
HETATM    1  C   UNL     1     -12.463  13.344  70.501  1.00  0.00    -0.350 C  
HETATM    2  C   UNL     1     -13.472  13.615  69.356  1.00  0.00     2.900 C  
HETATM    3  C   UNL     1     -12.657  13.801  68.092  1.00  0.00     0.620 C  
HETATM    4  O   UNL     1     -12.136  15.129  68.030  1.00  0.00    -0.192 OA 
HETATM    5  C   UNL     1     -10.771  15.009  67.653  1.00  0.00    -0.274 C  
HETATM    6  O   UNL     1     -10.693  20.596  70.591  1.00  0.00     1.391 OA 
HETATM    7  O   UNL     1     -10.396  13.642  67.632  1.00  0.00    -0.235 OA 
HETATM    8  C   UNL     1      -9.567  18.558  70.247  1.00  0.00     1.830 C  
HETATM    9  C   UNL     1     -11.466  12.871  68.219  1.00  0.00    -0.311 C  
HETATM   10  C   UNL     1     -10.652  19.390  70.797  1.00  0.00     2.371 C  
HETATM   11  C   UNL     1     -11.305  12.552  69.775  1.00  0.00    -0.111 C  
HETATM   12  C   UNL     1     -11.709  18.695  71.561  1.00  0.00     7.434 C  
HETATM   13  C   UNL     1     -11.579  11.064  70.152  1.00  0.00    -0.421 C  
HETATM   14  C   UNL     1      -9.555  16.458  72.949  1.00  0.00    10.739 C  
HETATM   15  C   UNL     1     -11.596  17.401  71.910  1.00  0.00     1.758 C  
HETATM   16  C   UNL     1      -9.865  12.829  70.245  1.00  0.00     3.896 C  
HETATM   17  C   UNL     1     -10.347  16.564  71.633  1.00  0.00     2.871 C  
HETATM   18  C   UNL     1      -9.588  14.150  70.954  1.00  0.00     3.936 C  
HETATM   19  C   UNL     1     -10.742  15.178  70.999  1.00  0.00    -0.000 C  
HETATM   20  C   UNL     1      -9.431  17.282  70.632  1.00  0.00     3.617 C  
HETATM   21  O   UNL     1      -9.155  13.806  72.274  1.00  0.00     8.503 OA 
HETATM   22  C   UNL     1     -12.039  14.505  71.465  1.00  0.00    -0.400 C  
HETATM   23  H   UNL     1      -8.982  14.629  72.716  1.00  0.00     0.000 HD 
HETATM   24  C   UNL     1     -13.174  15.515  71.709  1.00  0.00    -0.567 C  
HETATM   25  C   UNL     1     -12.734  16.682  72.584  1.00  0.00     0.521 C  
ENDROOT
BRANCH   5  26
HETATM   26  C   UNL     1     -10.505  15.786  66.376  1.00  0.00    -0.307 C  
BRANCH  26  27
HETATM   27  C   UNL     1     -11.776  16.015  65.564  1.00  0.00     0.622 C  
HETATM   28  C   UNL     1     -12.563  17.192  66.117  1.00  0.00     6.034 C  
ENDBRANCH  26  27
ENDBRANCH   5  26
BRANCH   9  29
HETATM   29  C   UNL     1     -11.604  11.638  67.309  1.00  0.00    -0.238 C  
HETATM   30  O   UNL     1     -11.453  10.478  67.724  1.00  0.00    -0.443 OA 
BRANCH  29  31
HETATM   31  C   UNL     1     -11.882  11.897  65.826  1.00  0.00    -0.033 C  
HETATM   32  O   UNL     1     -11.064  12.916  65.269  1.00  0.00    -0.279 OA 
HETATM   33  H   UNL     1     -11.237  13.077  64.348  1.00  0.00     0.000 HD 
ENDBRANCH  29  31
ENDBRANCH   9  29
TORSDOF 4
ENDMDL
MODEL      115
REMARK 921   NORMALIZED FREE ENERGY PREDICTED BY IDOCK:   62.61 KCAL/MOL
REMARK 922        TOTAL FREE ENERGY PREDICTED BY IDOCK:   76.98 KCAL/MOL
REMARK 923 INTER-LIGAND FREE ENERGY PREDICTED BY IDOCK:   75.12 KCAL/MOL
REMARK 924 INTRA-LIGAND FREE ENERGY PREDICTED BY IDOCK:    1.86 KCAL/MOL
REMARK 927      BINDING AFFINITY PREDICTED BY RF-SCORE:    0.00 PKD
ROOT
HETATM    1  C   UNL     1     -10.126   8.539  72.917  1.00  0.00    -0.053 C  
HETATM    2  C   UNL     1      -8.577   8.570  72.916  1.00  0.00    -0.141 C  
HETATM    3  C   UNL     1      -8.150   9.052  71.544  1.00  0.00     0.016 C  
HETATM    4  O   UNL     1      -8.191   7.976  70.607  1.00  0.00    -0.108 OA 
HETATM    5  C   UNL     1      -8.832   8.479  69.443  1.00  0.00    -0.141 C  
HETATM    6  O   UNL     1      -9.955   2.297  68.825  1.00  0.00     0.193 OA 
HETATM    7  O   UNL     1      -9.326   9.785  69.692  1.00  0.00    -0.191 OA 
HETATM    8  C   UNL     1     -10.833   4.470  68.607  1.00  0.00     1.520 C  
HETATM    9  C   UNL     1      -9.202  10.052  71.105  1.00  0.00     1.474 C  
HETATM   10  C   UNL     1     -10.365   3.307  69.382  1.00  0.00     1.667 C  
HETATM   11  C   UNL     1     -10.506   9.748  71.975  1.00  0.00     1.339 C  
HETATM   12  C   UNL     1     -10.365   3.439  70.854  1.00  0.00     0.690 C  
HETATM   13  C   UNL     1     -10.889  10.887  72.968  1.00  0.00    11.512 C  
HETATM   14  C   UNL     1     -13.220   5.286  70.919  1.00  0.00     6.576 C  
HETATM   15  C   UNL     1     -10.944   4.485  71.471  1.00  0.00     0.504 C  
HETATM   16  C   UNL     1     -11.739   9.571  71.069  1.00  0.00    -0.419 C  
HETATM   17  C   UNL     1     -11.720   5.572  70.729  1.00  0.00     0.901 C  
HETATM   18  C   UNL     1     -12.185   8.150  70.742  1.00  0.00    -0.002 C  
HETATM   19  C   UNL     1     -11.265   7.000  71.210  1.00  0.00    -0.296 C  
HETATM   20  C   UNL     1     -11.450   5.489  69.220  1.00  0.00     1.185 C  
HETATM   21  O   UNL     1     -13.499   8.013  71.290  1.00  0.00    -0.506 OA 
HETATM   22  C   UNL     1     -10.885   7.188  72.685  1.00  0.00    -0.315 C  
HETATM   23  H   UNL     1     -13.777   7.128  71.086  1.00  0.00     0.000 HD 
HETATM   24  C   UNL     1     -10.126   5.978  73.258  1.00  0.00    -0.202 C  
HETATM   25  C   UNL     1     -10.829   4.658  72.963  1.00  0.00    -0.321 C  
ENDROOT
BRANCH   5  26
HETATM   26  C   UNL     1      -7.924   8.336  68.235  1.00  0.00    -0.119 C  
BRANCH  26  27
HETATM   27  C   UNL     1      -7.551   9.686  67.629  1.00  0.00    -0.091 C  
HETATM   28  C   UNL     1      -6.074   9.978  67.836  1.00  0.00    -0.053 C  
ENDBRANCH  26  27
ENDBRANCH   5  26
BRANCH   9  29
HETATM   29  C   UNL     1      -8.684  11.499  71.185  1.00  0.00     8.989 C  
HETATM   30  O   UNL     1      -8.385  12.159  70.177  1.00  0.00     2.393 OA 
BRANCH  29  31
HETATM   31  C   UNL     1      -8.490  12.092  72.582  1.00  0.00    22.401 C  
HETATM   32  O   UNL     1      -9.630  12.793  73.060  1.00  0.00    16.715 OA 
HETATM   33  H   UNL     1      -9.510  13.161  73.928  1.00  0.00     0.000 HD 
ENDBRANCH  29  31
ENDBRANCH   9  29
TORSDOF 4
ENDMDL
MODEL      116
REMARK 921   NORMALIZED FREE ENERGY PREDICTED BY IDOCK:   68.15 KCAL/MOL
REMARK 922        TOTAL FREE ENERGY PREDICTED BY IDOCK:   83.82 KCAL/MOL
REMARK 923 INTER-LIGAND FREE ENERGY PREDICTED BY IDOCK:   84.02 KCAL/MOL
REMARK 924 INTRA-LIGAND FREE ENERGY PREDICTED BY IDOCK:   -0.21 KCAL/MOL
REMARK 927      BINDING AFFINITY PREDICTED BY RF-SCORE:    0.00 PKD
ROOT
HETATM    1  C   UNL     1      -7.848   2.964  66.908  1.00  0.00    -0.075 C  
HETATM    2  C   UNL     1      -8.496   2.113  65.786  1.00  0.00    -0.101 C  
HETATM    3  C   UNL     1      -9.389   3.047  64.992  1.00  0.00    -0.142 C  
HETATM    4  O   UNL     1     -10.637   3.226  65.661  1.00  0.00     0.813 OA 
HETATM    5  C   UNL     1     -10.911   4.620  65.636  1.00  0.00     0.091 C  
HETATM    6  O   UNL     1     -14.304   2.847  70.656  1.00  0.00    13.399 OA 
HETATM    7  O   UNL     1      -9.797   5.320  65.108  1.00  0.00     0.128 OA 
HETATM    8  C   UNL     1     -12.875   4.482  69.746  1.00  0.00    16.736 C  
HETATM    9  C   UNL     1      -8.694   4.395  64.995  1.00  0.00    -0.133 C  
HETATM   10  C   UNL     1     -13.170   3.152  70.309  1.00  0.00    24.812 C  
HETATM   11  C   UNL     1      -7.684   4.381  66.231  1.00  0.00    -0.094 C  
HETATM   12  C   UNL     1     -12.049   2.193  70.385  1.00  0.00    11.290 C  
HETATM   13  C   UNL     1      -6.180   4.428  65.825  1.00  0.00    -0.031 C  
HETATM   14  C   UNL     1      -9.752   4.585  71.138  1.00  0.00    -0.256 C  
HETATM   15  C   UNL     1     -10.780   2.566  70.140  1.00  0.00     3.082 C  
HETATM   16  C   UNL     1      -7.899   5.615  67.127  1.00  0.00    -0.101 C  
HETATM   17  C   UNL     1     -10.372   4.010  69.852  1.00  0.00     0.707 C  
HETATM   18  C   UNL     1      -8.730   5.440  68.393  1.00  0.00    -0.098 C  
HETATM   19  C   UNL     1      -9.430   4.076  68.592  1.00  0.00    -0.220 C  
HETATM   20  C   UNL     1     -11.609   4.867  69.546  1.00  0.00     4.287 C  
HETATM   21  O   UNL     1      -7.853   5.731  69.485  1.00  0.00    -0.090 OA 
HETATM   22  C   UNL     1      -8.439   2.929  68.359  1.00  0.00    -0.100 C  
HETATM   23  H   UNL     1      -8.371   5.623  70.274  1.00  0.00     0.000 HD 
HETATM   24  C   UNL     1      -9.028   1.556  68.725  1.00  0.00    -0.146 C  
HETATM   25  C   UNL     1      -9.670   1.549  70.107  1.00  0.00    -0.030 C  
ENDROOT
BRANCH   5  26
HETATM   26  C   UNL     1     -12.241   4.884  64.952  1.00  0.00     3.473 C  
BRANCH  26  27
HETATM   27  C   UNL     1     -12.510   3.905  63.813  1.00  0.00     5.432 C  
HETATM   28  C   UNL     1     -11.971   4.446  62.499  1.00  0.00     1.857 C  
ENDBRANCH  26  27
ENDBRANCH   5  26
BRANCH   9  29
HETATM   29  C   UNL     1      -8.056   4.713  63.631  1.00  0.00    -0.101 C  
HETATM   30  O   UNL     1      -7.730   3.829  62.822  1.00  0.00    -0.057 OA 
BRANCH  29  31
HETATM   31  C   UNL     1      -7.778   6.185  63.321  1.00  0.00    -0.097 C  
HETATM   32  O   UNL     1      -8.083   7.056  64.401  1.00  0.00    -0.214 OA 
HETATM   33  H   UNL     1      -7.910   7.971  64.208  1.00  0.00     0.000 HD 
ENDBRANCH  29  31
ENDBRANCH   9  29
TORSDOF 4
ENDMDL
MODEL      117
REMARK 921   NORMALIZED FREE ENERGY PREDICTED BY IDOCK:   72.42 KCAL/MOL
REMARK 922        TOTAL FREE ENERGY PREDICTED BY IDOCK:   89.09 KCAL/MOL
REMARK 923 INTER-LIGAND FREE ENERGY PREDICTED BY IDOCK:   88.92 KCAL/MOL
REMARK 924 INTRA-LIGAND FREE ENERGY PREDICTED BY IDOCK:    0.18 KCAL/MOL
REMARK 927      BINDING AFFINITY PREDICTED BY RF-SCORE:    0.00 PKD
ROOT
HETATM    1  C   UNL     1     -10.557  17.793  67.314  1.00  0.00    -0.322 C  
HETATM    2  C   UNL     1      -9.681  16.552  67.010  1.00  0.00    -0.255 C  
HETATM    3  C   UNL     1     -10.630  15.388  66.806  1.00  0.00    -0.309 C  
HETATM    4  O   UNL     1     -11.045  14.862  68.067  1.00  0.00    -0.272 OA 
HETATM    5  C   UNL     1     -12.452  14.678  67.983  1.00  0.00     0.324 C  
HETATM    6  O   UNL     1     -11.711  15.224  74.228  1.00  0.00    -0.235 OA 
HETATM    7  O   UNL     1     -12.936  15.219  66.764  1.00  0.00     1.526 OA 
HETATM    8  C   UNL     1     -13.032  15.791  72.364  1.00  0.00    -0.546 C  
HETATM    9  C   UNL     1     -11.866  15.965  66.145  1.00  0.00     0.895 C  
HETATM   10  C   UNL     1     -11.823  15.883  73.203  1.00  0.00    -0.394 C  
HETATM   11  C   UNL     1     -11.857  17.531  66.456  1.00  0.00     2.676 C  
HETATM   12  C   UNL     1     -10.739  16.763  72.721  1.00  0.00     3.548 C  
HETATM   13  C   UNL     1     -11.659  18.429  65.197  1.00  0.00     2.772 C  
HETATM   14  C   UNL     1     -12.875  19.084  71.450  1.00  0.00    21.844 C  
HETATM   15  C   UNL     1     -10.911  17.594  71.677  1.00  0.00     2.276 C  
HETATM   16  C   UNL     1     -13.200  17.977  67.063  1.00  0.00     9.347 C  
HETATM   17  C   UNL     1     -12.248  17.768  70.957  1.00  0.00     7.547 C  
HETATM   18  C   UNL     1     -13.278  18.142  68.577  1.00  0.00    10.245 C  
HETATM   19  C   UNL     1     -12.049  17.688  69.397  1.00  0.00     4.694 C  
HETATM   20  C   UNL     1     -13.221  16.649  71.353  1.00  0.00     3.401 C  
HETATM   21  O   UNL     1     -13.570  19.523  68.809  1.00  0.00     8.985 OA 
HETATM   22  C   UNL     1     -10.762  18.266  68.794  1.00  0.00     0.255 C  
HETATM   23  H   UNL     1     -13.619  19.626  69.752  1.00  0.00     0.000 HD 
HETATM   24  C   UNL     1      -9.528  18.004  69.675  1.00  0.00     0.669 C  
HETATM   25  C   UNL     1      -9.759  18.394  71.130  1.00  0.00     4.582 C  
ENDROOT
BRANCH   5  26
HETATM   26  C   UNL     1     -12.812  13.228  68.250  1.00  0.00     1.576 C  
BRANCH  26  27
HETATM   27  C   UNL     1     -13.053  12.956  69.732  1.00  0.00     1.223 C  
HETATM   28  C   UNL     1     -11.791  13.213  70.538  1.00  0.00    -0.184 C  
ENDBRANCH  26  27
ENDBRANCH   5  26
BRANCH   9  29
HETATM   29  C   UNL     1     -11.944  15.594  64.654  1.00  0.00    -0.051 C  
HETATM   30  O   UNL     1     -11.322  16.213  63.776  1.00  0.00    -0.618 OA 
BRANCH  29  31
HETATM   31  C   UNL     1     -12.879  14.444  64.272  1.00  0.00     0.331 C  
HETATM   32  O   UNL     1     -13.848  14.806  63.297  1.00  0.00     3.384 OA 
HETATM   33  H   UNL     1     -14.429  14.092  63.060  1.00  0.00     0.000 HD 
ENDBRANCH  29  31
ENDBRANCH   9  29
TORSDOF 4
ENDMDL
MODEL      118
REMARK 921   NORMALIZED FREE ENERGY PREDICTED BY IDOCK:   95.69 KCAL/MOL
REMARK 922        TOTAL FREE ENERGY PREDICTED BY IDOCK:  117.80 KCAL/MOL
REMARK 923 INTER-LIGAND FREE ENERGY PREDICTED BY IDOCK:  113.71 KCAL/MOL
REMARK 924 INTRA-LIGAND FREE ENERGY PREDICTED BY IDOCK:    4.08 KCAL/MOL
REMARK 927      BINDING AFFINITY PREDICTED BY RF-SCORE:    0.00 PKD
ROOT
HETATM    1  C   UNL     1     -12.740  10.171  63.530  1.00  0.00     7.953 C  
HETATM    2  C   UNL     1     -11.712  10.042  62.377  1.00  0.00     5.444 C  
HETATM    3  C   UNL     1     -10.403   9.608  63.006  1.00  0.00     2.568 C  
HETATM    4  O   UNL     1      -9.726  10.733  63.566  1.00  0.00    -0.282 OA 
HETATM    5  C   UNL     1      -9.281  10.335  64.855  1.00  0.00    -0.227 C  
HETATM    6  O   UNL     1      -9.551  16.599  65.589  1.00  0.00    -0.519 OA 
HETATM    7  O   UNL     1      -9.797   9.051  65.168  1.00  0.00     0.110 OA 
HETATM    8  C   UNL     1      -9.974  14.501  66.568  1.00  0.00    -0.290 C  
HETATM    9  C   UNL     1     -10.774   8.702  64.163  1.00  0.00     8.355 C  
HETATM   10  C   UNL     1     -10.241  15.589  65.611  1.00  0.00    -0.376 C  
HETATM   11  C   UNL     1     -12.289   9.040  64.536  1.00  0.00    16.662 C  
HETATM   12  C   UNL     1     -11.343  15.379  64.648  1.00  0.00    -0.361 C  
HETATM   13  C   UNL     1     -13.288   7.876  64.260  1.00  0.00    23.875 C  
HETATM   14  C   UNL     1     -13.289  13.716  66.888  1.00  0.00     3.175 C  
HETATM   15  C   UNL     1     -12.191  14.341  64.759  1.00  0.00    -0.456 C  
HETATM   16  C   UNL     1     -12.428   9.343  66.040  1.00  0.00    11.518 C  
HETATM   17  C   UNL     1     -12.152  13.346  65.918  1.00  0.00    -0.486 C  
HETATM   18  C   UNL     1     -12.476  10.805  66.470  1.00  0.00     4.721 C  
HETATM   19  C   UNL     1     -12.214  11.868  65.379  1.00  0.00     0.220 C  
HETATM   20  C   UNL     1     -10.844  13.493  66.707  1.00  0.00    -0.284 C  
HETATM   21  O   UNL     1     -13.757  10.997  67.077  1.00  0.00    10.114 OA 
HETATM   22  C   UNL     1     -13.066  11.578  64.136  1.00  0.00     0.756 C  
HETATM   23  H   UNL     1     -13.787  11.907  67.346  1.00  0.00     0.000 HD 
HETATM   24  C   UNL     1     -12.989  12.705  63.092  1.00  0.00     0.329 C  
HETATM   25  C   UNL     1     -13.232  14.080  63.702  1.00  0.00     1.991 C  
ENDROOT
BRANCH   5  26
HETATM   26  C   UNL     1      -7.774  10.484  64.965  1.00  0.00    -0.039 C  
BRANCH  26  27
HETATM   27  C   UNL     1      -7.132   9.324  65.719  1.00  0.00    -0.086 C  
HETATM   28  C   UNL     1      -8.113   8.173  65.873  1.00  0.00    -0.115 C  
ENDBRANCH  26  27
ENDBRANCH   5  26
BRANCH   9  29
HETATM   29  C   UNL     1     -10.493   7.223  63.844  1.00  0.00     9.848 C  
HETATM   30  O   UNL     1     -11.160   6.576  63.021  1.00  0.00     8.590 OA 
BRANCH  29  31
HETATM   31  C   UNL     1      -9.374   6.542  64.637  1.00  0.00     1.365 C  
HETATM   32  O   UNL     1      -9.549   5.137  64.765  1.00  0.00    -0.359 OA 
HETATM   33  H   UNL     1      -8.854   4.715  65.257  1.00  0.00     0.000 HD 
ENDBRANCH  29  31
ENDBRANCH   9  29
TORSDOF 4
ENDMDL
