MODEL        1
REMARK 921   NORMALIZED FREE ENERGY PREDICTED BY IDOCK:   -7.02 KCAL/MOL
REMARK 922        TOTAL FREE ENERGY PREDICTED BY IDOCK:  -10.08 KCAL/MOL
REMARK 923 INTER-LIGAND FREE ENERGY PREDICTED BY IDOCK:   -9.08 KCAL/MOL
REMARK 924 INTRA-LIGAND FREE ENERGY PREDICTED BY IDOCK:   -1.01 KCAL/MOL
REMARK 927      BINDING AFFINITY PREDICTED BY RF-SCORE:    0.00 PKD
ROOT
HETATM    1  C   UNL     1     -12.215  11.843  63.527  1.00  0.00    -0.591 C  
HETATM    2  C   UNL     1     -10.715  11.777  63.267  1.00  0.00    -0.414 C  
ENDROOT
BRANCH   2   3
HETATM    3  C   UNL     1      -9.940  12.560  64.329  1.00  0.00    -0.217 C  
BRANCH   3   4
HETATM    4  C   UNL     1     -10.674  12.618  65.679  1.00  0.00    -0.297 C  
HETATM    5  C   UNL     1     -10.625  14.022  66.332  1.00  0.00    -0.280 C  
HETATM    6  C   UNL     1     -11.239  15.019  65.369  1.00  0.00    -0.356 C  
HETATM    7  C   UNL     1     -11.407  14.092  67.647  1.00  0.00    -0.319 C  
HETATM    8  N   UNL     1     -11.210  15.213  68.495  1.00  0.00    -0.277 N  
HETATM    9  O   UNL     1     -12.278  13.229  67.827  1.00  0.00    -0.287 OA 
HETATM   10  O   UNL     1     -10.589  15.865  64.773  1.00  0.00    -0.562 OA 
HETATM   11  O   UNL     1     -12.571  14.877  65.195  1.00  0.00    -0.134 OA 
BRANCH   8  12
HETATM   12  C   UNL     1     -10.299  16.265  68.163  1.00  0.00    -0.277 A  
HETATM   13  C   UNL     1     -10.806  17.553  67.934  1.00  0.00    -0.255 A  
HETATM   14  C   UNL     1      -8.910  16.057  68.105  1.00  0.00    -0.178 A  
HETATM   15  C   UNL     1      -9.928  18.619  67.695  1.00  0.00    -0.375 A  
HETATM   16  C   UNL     1      -8.549  18.411  67.684  1.00  0.00    -0.268 A  
HETATM   17  C   UNL     1      -8.042  17.126  67.886  1.00  0.00    -0.201 A  
ENDBRANCH   8  12
BRANCH   8  18
HETATM   18  N   UNL     1     -12.327  15.698  69.259  1.00  0.00    -0.579 NA 
HETATM   19  H   UNL     1     -13.018  16.303  68.815  1.00  0.00     0.000 HD 
BRANCH  18  20
HETATM   20  C   UNL     1     -12.476  15.345  70.623  1.00  0.00    -0.428 A  
HETATM   21  C   UNL     1     -13.383  14.025  72.452  1.00  0.00    -0.617 A  
HETATM   22  C   UNL     1     -12.776  14.860  73.384  1.00  0.00    -0.636 A  
HETATM   23  C   UNL     1     -13.199  14.242  71.080  1.00  0.00    -0.387 A  
HETATM   24  C   UNL     1     -11.944  15.886  72.949  1.00  0.00    -0.609 A  
HETATM   25  C   UNL     1     -11.785  16.113  71.578  1.00  0.00    -0.533 A  
ENDBRANCH  18  20
ENDBRANCH   8  18
ENDBRANCH   3   4
ENDBRANCH   2   3
TORSDOF 5
ENDMDL
MODEL        2
REMARK 921   NORMALIZED FREE ENERGY PREDICTED BY IDOCK:   -6.89 KCAL/MOL
REMARK 922        TOTAL FREE ENERGY PREDICTED BY IDOCK:   -9.92 KCAL/MOL
REMARK 923 INTER-LIGAND FREE ENERGY PREDICTED BY IDOCK:   -8.89 KCAL/MOL
REMARK 924 INTRA-LIGAND FREE ENERGY PREDICTED BY IDOCK:   -1.03 KCAL/MOL
REMARK 927      BINDING AFFINITY PREDICTED BY RF-SCORE:    0.00 PKD
ROOT
HETATM    1  C   UNL     1      -8.395  19.988  67.138  1.00  0.00    -0.381 C  
HETATM    2  C   UNL     1      -9.708  20.256  66.414  1.00  0.00    -0.488 C  
ENDROOT
BRANCH   2   3
HETATM    3  C   UNL     1     -10.446  18.949  66.118  1.00  0.00    -0.521 C  
BRANCH   3   4
HETATM    4  C   UNL     1     -10.767  18.145  67.388  1.00  0.00    -0.355 C  
HETATM    5  C   UNL     1     -10.775  16.615  67.148  1.00  0.00    -0.202 C  
HETATM    6  C   UNL     1      -9.418  16.208  66.610  1.00  0.00    -0.247 C  
HETATM    7  C   UNL     1     -11.036  15.815  68.427  1.00  0.00    -0.341 C  
HETATM    8  N   UNL     1     -11.362  14.438  68.312  1.00  0.00    -0.273 N  
HETATM    9  O   UNL     1     -10.806  16.387  69.502  1.00  0.00    -0.307 OA 
HETATM   10  O   UNL     1      -9.233  15.846  65.457  1.00  0.00    -0.323 OA 
HETATM   11  O   UNL     1      -8.412  16.309  67.505  1.00  0.00    -0.165 OA 
BRANCH   8  12
HETATM   12  C   UNL     1     -11.464  13.786  67.043  1.00  0.00    -0.346 A  
HETATM   13  C   UNL     1     -10.500  12.828  66.694  1.00  0.00    -0.270 A  
HETATM   14  C   UNL     1     -12.524  14.041  66.157  1.00  0.00    -0.467 A  
HETATM   15  C   UNL     1     -10.627  12.111  65.496  1.00  0.00    -0.314 A  
HETATM   16  C   UNL     1     -11.707  12.340  64.645  1.00  0.00    -0.420 A  
HETATM   17  C   UNL     1     -12.655  13.310  64.977  1.00  0.00    -0.483 A  
ENDBRANCH   8  12
BRANCH   8  18
HETATM   18  N   UNL     1     -10.906  13.539  69.337  1.00  0.00    -0.450 NA 
HETATM   19  H   UNL     1      -9.920  13.282  69.381  1.00  0.00     0.000 HD 
BRANCH  18  20
HETATM   20  C   UNL     1     -11.813  13.004  70.284  1.00  0.00    -0.217 A  
HETATM   21  C   UNL     1     -13.393  13.159  72.126  1.00  0.00    -0.621 A  
HETATM   22  C   UNL     1     -13.478  11.772  72.198  1.00  0.00    -0.273 A  
HETATM   23  C   UNL     1     -12.599  13.771  71.148  1.00  0.00    -0.452 A  
HETATM   24  C   UNL     1     -12.806  10.993  71.262  1.00  0.00    -0.528 A  
HETATM   25  C   UNL     1     -11.994  11.609  70.304  1.00  0.00    -0.445 A  
ENDBRANCH  18  20
ENDBRANCH   8  18
ENDBRANCH   3   4
ENDBRANCH   2   3
TORSDOF 5
ENDMDL
MODEL        3
REMARK 921   NORMALIZED FREE ENERGY PREDICTED BY IDOCK:   -6.84 KCAL/MOL
REMARK 922        TOTAL FREE ENERGY PREDICTED BY IDOCK:   -9.84 KCAL/MOL
REMARK 923 INTER-LIGAND FREE ENERGY PREDICTED BY IDOCK:   -8.95 KCAL/MOL
REMARK 924 INTRA-LIGAND FREE ENERGY PREDICTED BY IDOCK:   -0.89 KCAL/MOL
REMARK 927      BINDING AFFINITY PREDICTED BY RF-SCORE:    0.00 PKD
ROOT
HETATM    1  C   UNL     1      -9.527   7.998  66.717  1.00  0.00    -0.259 C  
HETATM    2  C   UNL     1      -9.006   8.802  65.532  1.00  0.00    -0.231 C  
ENDROOT
BRANCH   2   3
HETATM    3  C   UNL     1      -9.867  10.044  65.293  1.00  0.00    -0.388 C  
BRANCH   3   4
HETATM    4  C   UNL     1     -10.613  10.503  66.556  1.00  0.00    -0.240 C  
HETATM    5  C   UNL     1     -10.644  12.044  66.712  1.00  0.00    -0.260 C  
HETATM    6  C   UNL     1     -11.303  12.636  65.482  1.00  0.00    -0.321 C  
HETATM    7  C   UNL     1     -11.439  12.500  67.940  1.00  0.00    -0.315 C  
HETATM    8  N   UNL     1     -11.308  13.846  68.371  1.00  0.00    -0.268 N  
HETATM    9  O   UNL     1     -12.264  11.698  68.401  1.00  0.00    -0.498 OA 
HETATM   10  O   UNL     1     -10.694  13.273  64.635  1.00  0.00    -0.353 OA 
HETATM   11  O   UNL     1     -12.624  12.374  65.378  1.00  0.00    -0.637 OA 
BRANCH   8  12
HETATM   12  C   UNL     1     -10.452  14.777  67.703  1.00  0.00    -0.254 A  
HETATM   13  C   UNL     1      -9.063  14.606  67.795  1.00  0.00    -0.191 A  
HETATM   14  C   UNL     1     -10.961  15.828  66.922  1.00  0.00    -0.207 A  
HETATM   15  C   UNL     1      -8.204  15.451  67.078  1.00  0.00    -0.270 A  
HETATM   16  C   UNL     1      -8.720  16.462  66.269  1.00  0.00    -0.369 A  
HETATM   17  C   UNL     1     -10.102  16.652  66.195  1.00  0.00    -0.361 A  
ENDBRANCH   8  12
BRANCH   8  18
HETATM   18  N   UNL     1     -12.455  14.495  68.945  1.00  0.00    -0.569 NA 
HETATM   19  H   UNL     1     -13.219  14.797  68.341  1.00  0.00     0.000 HD 
BRANCH  18  20
HETATM   20  C   UNL     1     -12.534  14.720  70.341  1.00  0.00    -0.349 A  
HETATM   21  C   UNL     1     -12.017  15.914  72.396  1.00  0.00    -0.620 A  
HETATM   22  C   UNL     1     -12.676  14.947  73.149  1.00  0.00    -0.596 A  
HETATM   23  C   UNL     1     -11.984  15.822  70.998  1.00  0.00    -0.462 A  
HETATM   24  C   UNL     1     -13.344  13.911  72.504  1.00  0.00    -0.656 A  
HETATM   25  C   UNL     1     -13.284  13.811  71.111  1.00  0.00    -0.277 A  
ENDBRANCH  18  20
ENDBRANCH   8  18
ENDBRANCH   3   4
ENDBRANCH   2   3
TORSDOF 5
ENDMDL
MODEL        4
REMARK 921   NORMALIZED FREE ENERGY PREDICTED BY IDOCK:   -6.77 KCAL/MOL
REMARK 922        TOTAL FREE ENERGY PREDICTED BY IDOCK:   -9.75 KCAL/MOL
REMARK 923 INTER-LIGAND FREE ENERGY PREDICTED BY IDOCK:   -8.75 KCAL/MOL
REMARK 924 INTRA-LIGAND FREE ENERGY PREDICTED BY IDOCK:   -1.01 KCAL/MOL
REMARK 927      BINDING AFFINITY PREDICTED BY RF-SCORE:    0.00 PKD
ROOT
HETATM    1  C   UNL     1     -10.299  11.463  63.141  1.00  0.00    -0.357 C  
HETATM    2  C   UNL     1     -10.079  10.635  64.401  1.00  0.00    -0.418 C  
ENDROOT
BRANCH   2   3
HETATM    3  C   UNL     1      -9.366  11.456  65.477  1.00  0.00    -0.228 C  
BRANCH   3   4
HETATM    4  C   UNL     1     -10.265  11.760  66.687  1.00  0.00    -0.240 C  
HETATM    5  C   UNL     1     -10.342  13.272  67.016  1.00  0.00    -0.246 C  
HETATM    6  C   UNL     1     -10.859  14.003  65.793  1.00  0.00    -0.291 C  
HETATM    7  C   UNL     1     -11.284  13.578  68.184  1.00  0.00    -0.272 C  
HETATM    8  N   UNL     1     -11.229  14.864  68.782  1.00  0.00    -0.261 N  
HETATM    9  O   UNL     1     -12.144  12.725  68.446  1.00  0.00    -0.276 OA 
HETATM   10  O   UNL     1     -10.165  14.737  65.106  1.00  0.00    -0.381 OA 
HETATM   11  O   UNL     1     -12.153  13.751  65.502  1.00  0.00    -0.364 OA 
BRANCH   8  12
HETATM   12  C   UNL     1     -10.316  15.870  68.335  1.00  0.00    -0.240 A  
HETATM   13  C   UNL     1     -10.817  16.976  67.632  1.00  0.00    -0.244 A  
HETATM   14  C   UNL     1      -8.941  15.807  68.618  1.00  0.00    -0.204 A  
HETATM   15  C   UNL     1      -9.958  18.019  67.261  1.00  0.00    -0.324 A  
HETATM   16  C   UNL     1      -8.603  17.969  67.586  1.00  0.00    -0.247 A  
HETATM   17  C   UNL     1      -8.095  16.857  68.263  1.00  0.00    -0.217 A  
ENDBRANCH   8  12
BRANCH   8  18
HETATM   18  N   UNL     1     -12.448  15.437  69.285  1.00  0.00    -0.603 NA 
HETATM   19  H   UNL     1     -13.184  15.710  68.635  1.00  0.00     0.000 HD 
BRANCH  18  20
HETATM   20  C   UNL     1     -12.634  15.628  70.676  1.00  0.00    -0.414 A  
HETATM   21  C   UNL     1     -11.918  16.265  72.911  1.00  0.00    -0.615 A  
HETATM   22  C   UNL     1     -13.121  15.817  73.448  1.00  0.00    -0.690 A  
HETATM   23  C   UNL     1     -11.694  16.210  71.529  1.00  0.00    -0.533 A  
HETATM   24  C   UNL     1     -14.122  15.357  72.600  1.00  0.00    -0.519 A  
HETATM   25  C   UNL     1     -13.883  15.280  71.224  1.00  0.00    -0.562 A  
ENDBRANCH  18  20
ENDBRANCH   8  18
ENDBRANCH   3   4
ENDBRANCH   2   3
TORSDOF 5
ENDMDL
MODEL        5
REMARK 921   NORMALIZED FREE ENERGY PREDICTED BY IDOCK:   -6.55 KCAL/MOL
REMARK 922        TOTAL FREE ENERGY PREDICTED BY IDOCK:   -9.47 KCAL/MOL
REMARK 923 INTER-LIGAND FREE ENERGY PREDICTED BY IDOCK:   -8.72 KCAL/MOL
REMARK 924 INTRA-LIGAND FREE ENERGY PREDICTED BY IDOCK:   -0.75 KCAL/MOL
REMARK 927      BINDING AFFINITY PREDICTED BY RF-SCORE:    0.00 PKD
ROOT
HETATM    1  C   UNL     1      -8.290  20.346  67.014  1.00  0.00    -0.349 C  
HETATM    2  C   UNL     1      -9.797  20.355  67.238  1.00  0.00    -0.597 C  
ENDROOT
BRANCH   2   3
HETATM    3  C   UNL     1     -10.431  19.051  66.748  1.00  0.00    -0.510 C  
BRANCH   3   4
HETATM    4  C   UNL     1     -10.702  18.056  67.888  1.00  0.00    -0.329 C  
HETATM    5  C   UNL     1     -10.685  16.580  67.418  1.00  0.00    -0.260 C  
HETATM    6  C   UNL     1      -9.334  16.292  66.795  1.00  0.00    -0.237 C  
HETATM    7  C   UNL     1     -10.898  15.589  68.566  1.00  0.00    -0.272 C  
HETATM    8  N   UNL     1     -11.198  14.239  68.251  1.00  0.00    -0.264 N  
HETATM    9  O   UNL     1     -10.652  15.998  69.710  1.00  0.00    -0.280 OA 
HETATM   10  O   UNL     1      -9.171  16.113  65.597  1.00  0.00    -0.407 OA 
HETATM   11  O   UNL     1      -8.308  16.280  67.673  1.00  0.00    -0.158 OA 
BRANCH   8  12
HETATM   12  C   UNL     1     -11.319  13.784  66.899  1.00  0.00    -0.328 A  
HETATM   13  C   UNL     1     -12.427  14.195  66.143  1.00  0.00    -0.426 A  
HETATM   14  C   UNL     1     -10.340  12.978  66.294  1.00  0.00    -0.291 A  
HETATM   15  C   UNL     1     -12.523  13.838  64.791  1.00  0.00    -0.386 A  
HETATM   16  C   UNL     1     -11.524  13.075  64.188  1.00  0.00    -0.452 A  
HETATM   17  C   UNL     1     -10.433  12.643  64.944  1.00  0.00    -0.331 A  
ENDBRANCH   8  12
BRANCH   8  18
HETATM   18  N   UNL     1     -10.698  13.206  69.116  1.00  0.00    -0.436 NA 
HETATM   19  H   UNL     1      -9.716  12.934  69.064  1.00  0.00     0.000 HD 
BRANCH  18  20
HETATM   20  C   UNL     1     -11.556  12.561  70.040  1.00  0.00    -0.130 A  
HETATM   21  C   UNL     1     -12.613  10.620  71.055  1.00  0.00    -0.516 A  
HETATM   22  C   UNL     1     -13.410  11.441  71.846  1.00  0.00    -0.409 A  
HETATM   23  C   UNL     1     -11.663  11.176  70.189  1.00  0.00    -0.439 A  
HETATM   24  C   UNL     1     -13.227  12.819  71.809  1.00  0.00    -0.471 A  
HETATM   25  C   UNL     1     -12.295  13.369  70.924  1.00  0.00    -0.436 A  
ENDBRANCH  18  20
ENDBRANCH   8  18
ENDBRANCH   3   4
ENDBRANCH   2   3
TORSDOF 5
ENDMDL
MODEL        6
REMARK 921   NORMALIZED FREE ENERGY PREDICTED BY IDOCK:   -5.94 KCAL/MOL
REMARK 922        TOTAL FREE ENERGY PREDICTED BY IDOCK:   -8.69 KCAL/MOL
REMARK 923 INTER-LIGAND FREE ENERGY PREDICTED BY IDOCK:   -7.99 KCAL/MOL
REMARK 924 INTRA-LIGAND FREE ENERGY PREDICTED BY IDOCK:   -0.69 KCAL/MOL
REMARK 927      BINDING AFFINITY PREDICTED BY RF-SCORE:    0.00 PKD
ROOT
HETATM    1  C   UNL     1      -9.055   9.689  62.572  1.00  0.00    -0.283 C  
HETATM    2  C   UNL     1      -8.835  11.192  62.454  1.00  0.00    -0.333 C  
ENDROOT
BRANCH   2   3
HETATM    3  C   UNL     1      -9.887  11.964  63.254  1.00  0.00    -0.354 C  
BRANCH   3   4
HETATM    4  C   UNL     1     -10.272  11.260  64.565  1.00  0.00    -0.370 C  
HETATM    5  C   UNL     1     -10.624  12.253  65.701  1.00  0.00    -0.295 C  
HETATM    6  C   UNL     1     -11.768  13.129  65.233  1.00  0.00    -0.344 C  
HETATM    7  C   UNL     1     -11.063  11.549  66.989  1.00  0.00    -0.307 C  
HETATM    8  N   UNL     1     -11.131  12.307  68.187  1.00  0.00    -0.224 N  
HETATM    9  O   UNL     1     -11.474  10.385  66.878  1.00  0.00    -0.110 OA 
HETATM   10  O   UNL     1     -11.640  14.315  64.967  1.00  0.00    -0.336 OA 
HETATM   11  O   UNL     1     -12.946  12.482  65.100  1.00  0.00    -0.700 OA 
BRANCH   8  12
HETATM   12  C   UNL     1     -10.791  13.696  68.227  1.00  0.00    -0.251 A  
HETATM   13  C   UNL     1     -11.783  14.627  68.570  1.00  0.00    -0.348 A  
HETATM   14  C   UNL     1      -9.485  14.150  67.979  1.00  0.00    -0.213 A  
HETATM   15  C   UNL     1     -11.455  15.983  68.704  1.00  0.00    -0.377 A  
HETATM   16  C   UNL     1     -10.146  16.417  68.499  1.00  0.00    -0.248 A  
HETATM   17  C   UNL     1      -9.161  15.498  68.133  1.00  0.00    -0.189 A  
ENDBRANCH   8  12
BRANCH   8  18
HETATM   18  N   UNL     1     -12.152  11.982  69.146  1.00  0.00    -0.239 NA 
HETATM   19  H   UNL     1     -13.036  12.490  69.134  1.00  0.00     0.000 HD 
BRANCH  18  20
HETATM   20  C   UNL     1     -11.941  10.963  70.107  1.00  0.00    -0.352 A  
HETATM   21  C   UNL     1     -10.641   9.219  71.195  1.00  0.00    -0.402 A  
HETATM   22  C   UNL     1     -11.731   8.871  71.987  1.00  0.00    -0.438 A  
HETATM   23  C   UNL     1     -10.734  10.285  70.291  1.00  0.00    -0.310 A  
HETATM   24  C   UNL     1     -12.902   9.619  71.912  1.00  0.00    -0.515 A  
HETATM   25  C   UNL     1     -12.996  10.666  70.990  1.00  0.00    -0.456 A  
ENDBRANCH  18  20
ENDBRANCH   8  18
ENDBRANCH   3   4
ENDBRANCH   2   3
TORSDOF 5
ENDMDL
MODEL        7
REMARK 921   NORMALIZED FREE ENERGY PREDICTED BY IDOCK:   -5.81 KCAL/MOL
REMARK 922        TOTAL FREE ENERGY PREDICTED BY IDOCK:   -8.52 KCAL/MOL
REMARK 923 INTER-LIGAND FREE ENERGY PREDICTED BY IDOCK:   -7.52 KCAL/MOL
REMARK 924 INTRA-LIGAND FREE ENERGY PREDICTED BY IDOCK:   -1.00 KCAL/MOL
REMARK 927      BINDING AFFINITY PREDICTED BY RF-SCORE:    0.00 PKD
ROOT
HETATM    1  C   UNL     1      -8.391   7.832  74.103  1.00  0.00    -0.297 C  
HETATM    2  C   UNL     1      -9.042   6.609  73.469  1.00  0.00    -0.146 C  
ENDROOT
BRANCH   2   3
HETATM    3  C   UNL     1     -10.568   6.729  73.491  1.00  0.00    -0.358 C  
BRANCH   3   4
HETATM    4  C   UNL     1     -11.066   8.079  72.950  1.00  0.00    -0.399 C  
HETATM    5  C   UNL     1     -10.884   8.218  71.418  1.00  0.00    -0.293 C  
HETATM    6  C   UNL     1     -11.631   7.086  70.742  1.00  0.00    -0.338 C  
HETATM    7  C   UNL     1     -11.434   9.539  70.873  1.00  0.00    -0.334 C  
HETATM    8  N   UNL     1     -11.078   9.932  69.556  1.00  0.00    -0.233 N  
HETATM    9  O   UNL     1     -12.279  10.122  71.568  1.00  0.00    -0.373 OA 
HETATM   10  O   UNL     1     -11.073   6.154  70.182  1.00  0.00    -0.323 OA 
HETATM   11  O   UNL     1     -12.975   7.171  70.836  1.00  0.00    -0.269 OA 
BRANCH   8  12
HETATM   12  C   UNL     1     -10.216   9.138  68.735  1.00  0.00    -0.210 A  
HETATM   13  C   UNL     1     -10.720   8.606  67.539  1.00  0.00    -0.209 A  
HETATM   14  C   UNL     1      -8.869   8.916  69.067  1.00  0.00    -0.136 A  
HETATM   15  C   UNL     1      -9.873   7.901  66.673  1.00  0.00    -0.311 A  
HETATM   16  C   UNL     1      -8.527   7.724  66.990  1.00  0.00    -0.124 A  
HETATM   17  C   UNL     1      -8.027   8.230  68.192  1.00  0.00    -0.123 A  
ENDBRANCH   8  12
BRANCH   8  18
HETATM   18  N   UNL     1     -12.044  10.653  68.772  1.00  0.00    -0.790 NA 
HETATM   19  H   UNL     1     -12.856  10.164  68.397  1.00  0.00     0.000 HD 
BRANCH  18  20
HETATM   20  C   UNL     1     -11.876  12.036  68.515  1.00  0.00    -0.311 A  
HETATM   21  C   UNL     1     -11.680  14.371  69.163  1.00  0.00    -0.354 A  
HETATM   22  C   UNL     1     -11.678  14.763  67.828  1.00  0.00    -0.368 A  
HETATM   23  C   UNL     1     -11.736  13.013  69.502  1.00  0.00    -0.381 A  
HETATM   24  C   UNL     1     -11.684  13.797  66.827  1.00  0.00    -0.420 A  
HETATM   25  C   UNL     1     -11.766  12.444  67.173  1.00  0.00    -0.415 A  
ENDBRANCH  18  20
ENDBRANCH   8  18
ENDBRANCH   3   4
ENDBRANCH   2   3
TORSDOF 5
ENDMDL
MODEL        8
REMARK 921   NORMALIZED FREE ENERGY PREDICTED BY IDOCK:   -5.79 KCAL/MOL
REMARK 922        TOTAL FREE ENERGY PREDICTED BY IDOCK:   -8.49 KCAL/MOL
REMARK 923 INTER-LIGAND FREE ENERGY PREDICTED BY IDOCK:   -7.71 KCAL/MOL
REMARK 924 INTRA-LIGAND FREE ENERGY PREDICTED BY IDOCK:   -0.78 KCAL/MOL
REMARK 927      BINDING AFFINITY PREDICTED BY RF-SCORE:    0.00 PKD
ROOT
HETATM    1  C   UNL     1      -7.422  17.727  66.312  1.00  0.00    -0.328 C  
HETATM    2  C   UNL     1      -8.039  16.336  66.366  1.00  0.00    -0.334 C  
ENDROOT
BRANCH   2   3
HETATM    3  C   UNL     1      -9.037  16.225  67.521  1.00  0.00    -0.196 C  
BRANCH   3   4
HETATM    4  C   UNL     1      -9.331  14.768  67.915  1.00  0.00    -0.193 C  
HETATM    5  C   UNL     1     -10.542  14.635  68.872  1.00  0.00    -0.253 C  
HETATM    6  C   UNL     1     -11.755  15.240  68.195  1.00  0.00    -0.279 C  
HETATM    7  C   UNL     1     -10.869  13.178  69.215  1.00  0.00    -0.006 C  
HETATM    8  N   UNL     1     -11.750  12.917  70.297  1.00  0.00    -0.187 N  
HETATM    9  O   UNL     1     -10.453  12.312  68.433  1.00  0.00    -0.221 OA 
HETATM   10  O   UNL     1     -12.272  16.287  68.554  1.00  0.00     0.156 OA 
HETATM   11  O   UNL     1     -12.206  14.539  67.132  1.00  0.00    -0.355 OA 
BRANCH   8  12
HETATM   12  C   UNL     1     -12.327  13.970  71.076  1.00  0.00    -0.369 A  
HETATM   13  C   UNL     1     -13.724  14.094  71.117  1.00  0.00    -0.206 A  
HETATM   14  C   UNL     1     -11.541  14.850  71.837  1.00  0.00    -0.335 A  
HETATM   15  C   UNL     1     -14.318  15.059  71.942  1.00  0.00    -0.677 A  
HETATM   16  C   UNL     1     -13.530  15.899  72.728  1.00  0.00    -0.594 A  
HETATM   17  C   UNL     1     -12.138  15.795  72.671  1.00  0.00    -0.591 A  
ENDBRANCH   8  12
BRANCH   8  18
HETATM   18  N   UNL     1     -12.625  11.780  70.208  1.00  0.00    -0.117 NA 
HETATM   19  H   UNL     1     -13.458  11.828  69.620  1.00  0.00     0.000 HD 
BRANCH  18  20
HETATM   20  C   UNL     1     -12.343  10.594  70.929  1.00  0.00    -0.401 A  
HETATM   21  C   UNL     1     -10.939   8.726  71.599  1.00  0.00    -0.391 A  
HETATM   22  C   UNL     1     -11.989   8.168  72.322  1.00  0.00    -0.434 A  
HETATM   23  C   UNL     1     -11.103   9.952  70.943  1.00  0.00    -0.418 A  
HETATM   24  C   UNL     1     -13.192   8.858  72.430  1.00  0.00    -0.482 A  
HETATM   25  C   UNL     1     -13.358  10.069  71.751  1.00  0.00    -0.492 A  
ENDBRANCH  18  20
ENDBRANCH   8  18
ENDBRANCH   3   4
ENDBRANCH   2   3
TORSDOF 5
ENDMDL
MODEL        9
REMARK 921   NORMALIZED FREE ENERGY PREDICTED BY IDOCK:   -5.79 KCAL/MOL
REMARK 922        TOTAL FREE ENERGY PREDICTED BY IDOCK:   -8.49 KCAL/MOL
REMARK 923 INTER-LIGAND FREE ENERGY PREDICTED BY IDOCK:   -8.24 KCAL/MOL
REMARK 924 INTRA-LIGAND FREE ENERGY PREDICTED BY IDOCK:   -0.24 KCAL/MOL
REMARK 927      BINDING AFFINITY PREDICTED BY RF-SCORE:    0.00 PKD
ROOT
HETATM    1  C   UNL     1     -13.895  15.338  71.540  1.00  0.00    -0.617 C  
HETATM    2  C   UNL     1     -12.551  15.687  72.167  1.00  0.00    -0.504 C  
ENDROOT
BRANCH   2   3
HETATM    3  C   UNL     1     -11.546  16.125  71.099  1.00  0.00    -0.453 C  
BRANCH   3   4
HETATM    4  C   UNL     1     -11.732  15.379  69.767  1.00  0.00    -0.352 C  
HETATM    5  C   UNL     1     -10.774  15.881  68.657  1.00  0.00    -0.274 C  
HETATM    6  C   UNL     1      -9.349  15.716  69.144  1.00  0.00    -0.252 C  
HETATM    7  C   UNL     1     -10.920  15.098  67.349  1.00  0.00    -0.314 C  
HETATM    8  N   UNL     1     -10.330  15.627  66.171  1.00  0.00    -0.299 N  
HETATM    9  O   UNL     1     -11.427  13.970  67.426  1.00  0.00    -0.312 OA 
HETATM   10  O   UNL     1      -8.628  16.657  69.444  1.00  0.00    -0.097 OA 
HETATM   11  O   UNL     1      -8.943  14.433  69.254  1.00  0.00     0.019 OA 
BRANCH   8  12
HETATM   12  C   UNL     1      -9.618  16.869  66.171  1.00  0.00    -0.254 A  
HETATM   13  C   UNL     1     -10.341  18.064  66.305  1.00  0.00    -0.384 A  
HETATM   14  C   UNL     1      -8.217  16.924  66.088  1.00  0.00    -0.295 A  
HETATM   15  C   UNL     1      -9.662  19.286  66.397  1.00  0.00    -0.435 A  
HETATM   16  C   UNL     1      -8.269  19.327  66.359  1.00  0.00    -0.329 A  
HETATM   17  C   UNL     1      -7.547  18.142  66.200  1.00  0.00    -0.278 A  
ENDBRANCH   8  12
BRANCH   8  18
HETATM   18  N   UNL     1      -9.799  14.710  65.200  1.00  0.00    -0.492 NA 
HETATM   19  H   UNL     1      -8.807  14.742  64.964  1.00  0.00     0.000 HD 
BRANCH  18  20
HETATM   20  C   UNL     1     -10.641  13.763  64.567  1.00  0.00    -0.386 A  
HETATM   21  C   UNL     1     -12.773  12.950  63.726  1.00  0.00    -0.214 A  
HETATM   22  C   UNL     1     -12.205  11.718  63.416  1.00  0.00    -0.461 A  
HETATM   23  C   UNL     1     -11.985  13.979  64.258  1.00  0.00    -0.463 A  
HETATM   24  C   UNL     1     -10.839  11.527  63.593  1.00  0.00    -0.488 A  
HETATM   25  C   UNL     1     -10.064  12.549  64.149  1.00  0.00    -0.311 A  
ENDBRANCH  18  20
ENDBRANCH   8  18
ENDBRANCH   3   4
ENDBRANCH   2   3
TORSDOF 5
ENDMDL
MODEL       10
REMARK 921   NORMALIZED FREE ENERGY PREDICTED BY IDOCK:   -5.79 KCAL/MOL
REMARK 922        TOTAL FREE ENERGY PREDICTED BY IDOCK:   -8.48 KCAL/MOL
REMARK 923 INTER-LIGAND FREE ENERGY PREDICTED BY IDOCK:   -8.30 KCAL/MOL
REMARK 924 INTRA-LIGAND FREE ENERGY PREDICTED BY IDOCK:   -0.18 KCAL/MOL
REMARK 927      BINDING AFFINITY PREDICTED BY RF-SCORE:    0.00 PKD
ROOT
HETATM    1  C   UNL     1      -9.837  11.406  63.087  1.00  0.00    -0.413 C  
HETATM    2  C   UNL     1     -11.031  12.342  63.229  1.00  0.00    -0.373 C  
ENDROOT
BRANCH   2   3
HETATM    3  C   UNL     1     -12.022  11.811  64.267  1.00  0.00    -0.277 C  
BRANCH   3   4
HETATM    4  C   UNL     1     -12.280  12.809  65.408  1.00  0.00    -0.532 C  
HETATM    5  C   UNL     1     -11.725  12.322  66.770  1.00  0.00    -0.411 C  
HETATM    6  C   UNL     1     -10.235  12.083  66.622  1.00  0.00    -0.204 C  
HETATM    7  C   UNL     1     -11.930  13.344  67.893  1.00  0.00    -0.323 C  
HETATM    8  N   UNL     1     -11.744  12.924  69.236  1.00  0.00    -0.308 N  
HETATM    9  O   UNL     1     -12.110  14.521  67.552  1.00  0.00    -0.366 OA 
HETATM   10  O   UNL     1      -9.730  10.970  66.629  1.00  0.00    -0.188 OA 
HETATM   11  O   UNL     1      -9.506  13.206  66.449  1.00  0.00    -0.257 OA 
BRANCH   8  12
HETATM   12  C   UNL     1     -11.383  11.579  69.567  1.00  0.00    -0.274 A  
HETATM   13  C   UNL     1     -10.032  11.205  69.508  1.00  0.00     0.166 A  
HETATM   14  C   UNL     1     -12.334  10.637  69.994  1.00  0.00    -0.341 A  
HETATM   15  C   UNL     1      -9.642   9.922  69.913  1.00  0.00    -0.265 A  
HETATM   16  C   UNL     1     -10.587   9.008  70.377  1.00  0.00    -0.258 A  
HETATM   17  C   UNL     1     -11.936   9.368  70.413  1.00  0.00    -0.080 A  
ENDBRANCH   8  12
BRANCH   8  18
HETATM   18  N   UNL     1     -11.207  13.865  70.180  1.00  0.00    -0.478 NA 
HETATM   19  H   UNL     1     -10.213  14.094  70.156  1.00  0.00     0.000 HD 
BRANCH  18  20
HETATM   20  C   UNL     1     -12.045  14.478  71.143  1.00  0.00    -0.344 A  
HETATM   21  C   UNL     1     -14.186  14.946  72.198  1.00  0.00    -0.616 A  
HETATM   22  C   UNL     1     -13.592  15.884  73.036  1.00  0.00    -0.616 A  
HETATM   23  C   UNL     1     -13.409  14.218  71.287  1.00  0.00    -0.388 A  
HETATM   24  C   UNL     1     -12.213  16.063  73.000  1.00  0.00    -0.637 A  
HETATM   25  C   UNL     1     -11.447  15.352  72.071  1.00  0.00    -0.521 A  
ENDBRANCH  18  20
ENDBRANCH   8  18
ENDBRANCH   3   4
ENDBRANCH   2   3
TORSDOF 5
ENDMDL
MODEL       11
REMARK 921   NORMALIZED FREE ENERGY PREDICTED BY IDOCK:   -5.77 KCAL/MOL
REMARK 922        TOTAL FREE ENERGY PREDICTED BY IDOCK:   -8.46 KCAL/MOL
REMARK 923 INTER-LIGAND FREE ENERGY PREDICTED BY IDOCK:   -7.54 KCAL/MOL
REMARK 924 INTRA-LIGAND FREE ENERGY PREDICTED BY IDOCK:   -0.93 KCAL/MOL
REMARK 927      BINDING AFFINITY PREDICTED BY RF-SCORE:    0.00 PKD
ROOT
HETATM    1  C   UNL     1     -12.478  12.016  63.374  1.00  0.00    -0.625 C  
HETATM    2  C   UNL     1     -11.043  12.438  63.662  1.00  0.00    -0.535 C  
ENDROOT
BRANCH   2   3
HETATM    3  C   UNL     1     -11.006  13.665  64.576  1.00  0.00    -0.405 C  
BRANCH   3   4
HETATM    4  C   UNL     1     -11.655  13.406  65.946  1.00  0.00    -0.370 C  
HETATM    5  C   UNL     1     -10.919  12.316  66.764  1.00  0.00    -0.321 C  
HETATM    6  C   UNL     1      -9.478  12.748  66.951  1.00  0.00    -0.235 C  
HETATM    7  C   UNL     1     -11.531  12.101  68.152  1.00  0.00    -0.317 C  
HETATM    8  N   UNL     1     -11.156  10.948  68.889  1.00  0.00    -0.230 N  
HETATM    9  O   UNL     1     -12.215  13.027  68.610  1.00  0.00    -0.223 OA 
HETATM   10  O   UNL     1      -8.536  12.204  66.394  1.00  0.00    -0.126 OA 
HETATM   11  O   UNL     1      -9.319  13.814  67.765  1.00  0.00    -0.198 OA 
BRANCH   8  12
HETATM   12  C   UNL     1     -10.236   9.982  68.370  1.00  0.00    -0.172 A  
HETATM   13  C   UNL     1     -10.639   9.170  67.299  1.00  0.00    -0.303 A  
HETATM   14  C   UNL     1      -8.930   9.854  68.870  1.00  0.00    -0.153 A  
HETATM   15  C   UNL     1      -9.729   8.279  66.714  1.00  0.00    -0.307 A  
HETATM   16  C   UNL     1      -8.421   8.192  67.188  1.00  0.00    -0.124 A  
HETATM   17  C   UNL     1      -8.024   8.979  68.271  1.00  0.00    -0.104 A  
ENDBRANCH   8  12
BRANCH   8  18
HETATM   18  N   UNL     1     -11.070  11.048  70.320  1.00  0.00    -0.466 NA 
HETATM   19  H   UNL     1     -10.578  11.836  70.743  1.00  0.00     0.000 HD 
BRANCH  18  20
HETATM   20  C   UNL     1     -11.661  10.063  71.150  1.00  0.00    -0.378 A  
HETATM   21  C   UNL     1     -11.637   8.037  72.493  1.00  0.00    -0.464 A  
HETATM   22  C   UNL     1     -13.015   8.111  72.668  1.00  0.00     0.023 A  
HETATM   23  C   UNL     1     -10.959   9.030  71.774  1.00  0.00    -0.443 A  
HETATM   24  C   UNL     1     -13.714   9.204  72.165  1.00  0.00    -0.531 A  
HETATM   25  C   UNL     1     -13.035  10.178  71.426  1.00  0.00    -0.528 A  
ENDBRANCH  18  20
ENDBRANCH   8  18
ENDBRANCH   3   4
ENDBRANCH   2   3
TORSDOF 5
ENDMDL
MODEL       12
REMARK 921   NORMALIZED FREE ENERGY PREDICTED BY IDOCK:   -5.77 KCAL/MOL
REMARK 922        TOTAL FREE ENERGY PREDICTED BY IDOCK:   -8.46 KCAL/MOL
REMARK 923 INTER-LIGAND FREE ENERGY PREDICTED BY IDOCK:   -7.57 KCAL/MOL
REMARK 924 INTRA-LIGAND FREE ENERGY PREDICTED BY IDOCK:   -0.89 KCAL/MOL
REMARK 927      BINDING AFFINITY PREDICTED BY RF-SCORE:    0.00 PKD
ROOT
HETATM    1  C   UNL     1     -10.818   9.391  70.705  1.00  0.00    -0.372 C  
HETATM    2  C   UNL     1      -9.349   9.446  70.304  1.00  0.00    -0.294 C  
ENDROOT
BRANCH   2   3
HETATM    3  C   UNL     1      -9.191   9.974  68.877  1.00  0.00    -0.169 C  
BRANCH   3   4
HETATM    4  C   UNL     1      -8.937  11.490  68.828  1.00  0.00    -0.053 C  
HETATM    5  C   UNL     1      -9.859  12.222  67.821  1.00  0.00    -0.201 C  
HETATM    6  C   UNL     1     -11.299  11.954  68.208  1.00  0.00    -0.277 C  
HETATM    7  C   UNL     1      -9.645  13.739  67.816  1.00  0.00    -0.219 C  
HETATM    8  N   UNL     1     -10.197  14.499  66.753  1.00  0.00    -0.262 N  
HETATM    9  O   UNL     1      -9.120  14.233  68.824  1.00  0.00    -0.179 OA 
HETATM   10  O   UNL     1     -12.050  11.245  67.554  1.00  0.00    -0.530 OA 
HETATM   11  O   UNL     1     -11.683  12.540  69.362  1.00  0.00    -0.293 OA 
BRANCH   8  12
HETATM   12  C   UNL     1     -10.933  13.891  65.687  1.00  0.00    -0.290 A  
HETATM   13  C   UNL     1     -10.228  13.237  64.664  1.00  0.00    -0.334 A  
HETATM   14  C   UNL     1     -12.337  13.887  65.657  1.00  0.00    -0.511 A  
HETATM   15  C   UNL     1     -10.925  12.557  63.657  1.00  0.00    -0.507 A  
HETATM   16  C   UNL     1     -12.319  12.521  63.662  1.00  0.00    -0.618 A  
HETATM   17  C   UNL     1     -13.024  13.192  64.663  1.00  0.00    -0.115 A  
ENDBRANCH   8  12
BRANCH   8  18
HETATM   18  N   UNL     1     -10.671  15.827  67.034  1.00  0.00    -0.317 NA 
HETATM   19  H   UNL     1     -11.598  15.958  67.438  1.00  0.00     0.000 HD 
BRANCH  18  20
HETATM   20  C   UNL     1      -9.861  16.956  66.755  1.00  0.00    -0.279 A  
HETATM   21  C   UNL     1      -7.774  18.058  66.173  1.00  0.00    -0.266 A  
HETATM   22  C   UNL     1      -8.355  19.308  66.366  1.00  0.00    -0.330 A  
HETATM   23  C   UNL     1      -8.534  16.892  66.325  1.00  0.00    -0.322 A  
HETATM   24  C   UNL     1      -9.710  19.396  66.666  1.00  0.00    -0.441 A  
HETATM   25  C   UNL     1     -10.457  18.228  66.843  1.00  0.00    -0.396 A  
ENDBRANCH  18  20
ENDBRANCH   8  18
ENDBRANCH   3   4
ENDBRANCH   2   3
TORSDOF 5
ENDMDL
MODEL       13
REMARK 921   NORMALIZED FREE ENERGY PREDICTED BY IDOCK:   -5.76 KCAL/MOL
REMARK 922        TOTAL FREE ENERGY PREDICTED BY IDOCK:   -8.45 KCAL/MOL
REMARK 923 INTER-LIGAND FREE ENERGY PREDICTED BY IDOCK:   -7.35 KCAL/MOL
REMARK 924 INTRA-LIGAND FREE ENERGY PREDICTED BY IDOCK:   -1.10 KCAL/MOL
REMARK 927      BINDING AFFINITY PREDICTED BY RF-SCORE:    0.00 PKD
ROOT
HETATM    1  C   UNL     1     -11.182   4.540  73.338  1.00  0.00    -0.404 C  
HETATM    2  C   UNL     1     -10.524   5.682  74.101  1.00  0.00    -0.281 C  
ENDROOT
BRANCH   2   3
HETATM    3  C   UNL     1      -9.669   6.543  73.168  1.00  0.00    -0.171 C  
BRANCH   3   4
HETATM    4  C   UNL     1     -10.374   7.843  72.746  1.00  0.00    -0.399 C  
HETATM    5  C   UNL     1     -10.322   8.087  71.217  1.00  0.00    -0.230 C  
HETATM    6  C   UNL     1     -10.966   6.903  70.521  1.00  0.00    -0.273 C  
HETATM    7  C   UNL     1     -11.075   9.351  70.792  1.00  0.00    -0.300 C  
HETATM    8  N   UNL     1     -10.869   9.857  69.482  1.00  0.00    -0.236 N  
HETATM    9  O   UNL     1     -11.935   9.780  71.575  1.00  0.00    -0.371 OA 
HETATM   10  O   UNL     1     -10.336   6.084  69.869  1.00  0.00    -0.190 OA 
HETATM   11  O   UNL     1     -12.299   6.806  70.708  1.00  0.00    -0.377 OA 
BRANCH   8  12
HETATM   12  C   UNL     1      -9.974   9.229  68.559  1.00  0.00    -0.175 A  
HETATM   13  C   UNL     1     -10.508   8.560  67.447  1.00  0.00    -0.351 A  
HETATM   14  C   UNL     1      -8.579   9.302  68.707  1.00  0.00    -0.131 A  
HETATM   15  C   UNL     1      -9.652   8.014  66.481  1.00  0.00    -0.295 A  
HETATM   16  C   UNL     1      -8.269   8.131  66.614  1.00  0.00    -0.103 A  
HETATM   17  C   UNL     1      -7.734   8.774  67.732  1.00  0.00    -0.102 A  
ENDBRANCH   8  12
BRANCH   8  18
HETATM   18  N   UNL     1     -11.973  10.485  68.809  1.00  0.00    -0.734 NA 
HETATM   19  H   UNL     1     -12.819   9.950  68.618  1.00  0.00     0.000 HD 
BRANCH  18  20
HETATM   20  C   UNL     1     -11.895  11.842  68.407  1.00  0.00    -0.282 A  
HETATM   21  C   UNL     1     -11.904  14.241  68.800  1.00  0.00    -0.377 A  
HETATM   22  C   UNL     1     -11.864  14.487  67.431  1.00  0.00    -0.416 A  
HETATM   23  C   UNL     1     -11.877  12.928  69.285  1.00  0.00    -0.363 A  
HETATM   24  C   UNL     1     -11.748  13.421  66.544  1.00  0.00    -0.415 A  
HETATM   25  C   UNL     1     -11.748  12.111  67.034  1.00  0.00    -0.373 A  
ENDBRANCH  18  20
ENDBRANCH   8  18
ENDBRANCH   3   4
ENDBRANCH   2   3
TORSDOF 5
ENDMDL
MODEL       14
REMARK 921   NORMALIZED FREE ENERGY PREDICTED BY IDOCK:   -5.73 KCAL/MOL
REMARK 922        TOTAL FREE ENERGY PREDICTED BY IDOCK:   -8.40 KCAL/MOL
REMARK 923 INTER-LIGAND FREE ENERGY PREDICTED BY IDOCK:   -7.54 KCAL/MOL
REMARK 924 INTRA-LIGAND FREE ENERGY PREDICTED BY IDOCK:   -0.86 KCAL/MOL
REMARK 927      BINDING AFFINITY PREDICTED BY RF-SCORE:    0.00 PKD
ROOT
HETATM    1  C   UNL     1     -12.797  15.873  73.344  1.00  0.00    -0.688 C  
HETATM    2  C   UNL     1     -13.964  15.519  72.430  1.00  0.00    -0.653 C  
ENDROOT
BRANCH   2   3
HETATM    3  C   UNL     1     -13.507  15.417  70.973  1.00  0.00    -0.510 C  
BRANCH   3   4
HETATM    4  C   UNL     1     -12.831  14.073  70.655  1.00  0.00    -0.320 C  
HETATM    5  C   UNL     1     -12.126  14.066  69.275  1.00  0.00    -0.380 C  
HETATM    6  C   UNL     1     -11.094  15.177  69.260  1.00  0.00    -0.274 C  
HETATM    7  C   UNL     1     -11.404  12.747  68.986  1.00  0.00    -0.294 C  
HETATM    8  N   UNL     1     -10.970  12.487  67.659  1.00  0.00    -0.233 N  
HETATM    9  O   UNL     1     -11.113  12.042  69.963  1.00  0.00     0.035 OA 
HETATM   10  O   UNL     1     -11.213  16.193  68.592  1.00  0.00    -0.336 OA 
HETATM   11  O   UNL     1     -10.039  14.967  70.075  1.00  0.00    -0.134 OA 
BRANCH   8  12
HETATM   12  C   UNL     1     -11.197  13.412  66.592  1.00  0.00    -0.309 A  
HETATM   13  C   UNL     1     -10.107  14.118  66.063  1.00  0.00    -0.330 A  
HETATM   14  C   UNL     1     -12.470  13.600  66.027  1.00  0.00    -0.477 A  
HETATM   15  C   UNL     1     -10.287  14.963  64.959  1.00  0.00    -0.401 A  
HETATM   16  C   UNL     1     -11.546  15.108  64.378  1.00  0.00    -0.275 A  
HETATM   17  C   UNL     1     -12.639  14.426  64.917  1.00  0.00    -0.298 A  
ENDBRANCH   8  12
BRANCH   8  18
HETATM   18  N   UNL     1      -9.753  11.746  67.470  1.00  0.00    -0.178 NA 
HETATM   19  H   UNL     1      -8.854  12.213  67.586  1.00  0.00     0.000 HD 
BRANCH  18  20
HETATM   20  C   UNL     1      -9.791  10.373  67.122  1.00  0.00    -0.181 A  
HETATM   21  C   UNL     1     -10.493   8.063  67.412  1.00  0.00    -0.357 A  
HETATM   22  C   UNL     1      -9.649   7.655  66.383  1.00  0.00    -0.223 A  
HETATM   23  C   UNL     1     -10.594   9.419  67.750  1.00  0.00    -0.317 A  
HETATM   24  C   UNL     1      -8.940   8.607  65.658  1.00  0.00    -0.231 A  
HETATM   25  C   UNL     1      -9.026   9.955  66.017  1.00  0.00    -0.178 A  
ENDBRANCH  18  20
ENDBRANCH   8  18
ENDBRANCH   3   4
ENDBRANCH   2   3
TORSDOF 5
ENDMDL
MODEL       15
REMARK 921   NORMALIZED FREE ENERGY PREDICTED BY IDOCK:   -5.68 KCAL/MOL
REMARK 922        TOTAL FREE ENERGY PREDICTED BY IDOCK:   -8.35 KCAL/MOL
REMARK 923 INTER-LIGAND FREE ENERGY PREDICTED BY IDOCK:   -8.16 KCAL/MOL
REMARK 924 INTRA-LIGAND FREE ENERGY PREDICTED BY IDOCK:   -0.19 KCAL/MOL
REMARK 927      BINDING AFFINITY PREDICTED BY RF-SCORE:    0.00 PKD
ROOT
HETATM    1  C   UNL     1     -10.045  19.312  67.969  1.00  0.00    -0.496 C  
HETATM    2  C   UNL     1     -10.379  17.872  67.603  1.00  0.00    -0.387 C  
ENDROOT
BRANCH   2   3
HETATM    3  C   UNL     1      -9.609  16.889  68.489  1.00  0.00    -0.262 C  
BRANCH   3   4
HETATM    4  C   UNL     1     -10.499  15.763  69.039  1.00  0.00    -0.225 C  
HETATM    5  C   UNL     1     -10.686  14.598  68.035  1.00  0.00    -0.246 C  
HETATM    6  C   UNL     1      -9.319  14.048  67.680  1.00  0.00    -0.203 C  
HETATM    7  C   UNL     1     -11.524  13.450  68.607  1.00  0.00    -0.310 C  
HETATM    8  N   UNL     1     -12.021  12.463  67.716  1.00  0.00    -0.285 N  
HETATM    9  O   UNL     1     -11.599  13.374  69.841  1.00  0.00    -0.267 OA 
HETATM   10  O   UNL     1      -8.799  14.196  66.584  1.00  0.00    -0.209 OA 
HETATM   11  O   UNL     1      -8.700  13.401  68.691  1.00  0.00    -0.110 OA 
BRANCH   8  12
HETATM   12  C   UNL     1     -11.772  12.517  66.308  1.00  0.00    -0.404 A  
HETATM   13  C   UNL     1     -10.986  11.515  65.720  1.00  0.00    -0.305 A  
HETATM   14  C   UNL     1     -12.330  13.515  65.491  1.00  0.00    -0.524 A  
HETATM   15  C   UNL     1     -10.801  11.495  64.331  1.00  0.00    -0.405 A  
HETATM   16  C   UNL     1     -11.396  12.464  63.524  1.00  0.00    -0.553 A  
HETATM   17  C   UNL     1     -12.159  13.478  64.108  1.00  0.00    -0.488 A  
ENDBRANCH   8  12
BRANCH   8  18
HETATM   18  N   UNL     1     -12.126  11.109  68.186  1.00  0.00    -0.737 NA 
HETATM   19  H   UNL     1     -12.926  10.539  67.909  1.00  0.00     0.000 HD 
BRANCH  18  20
HETATM   20  C   UNL     1     -11.131  10.557  69.029  1.00  0.00    -0.249 A  
HETATM   21  C   UNL     1      -8.887   9.766  69.534  1.00  0.00    -0.202 A  
HETATM   22  C   UNL     1      -9.303   9.321  70.785  1.00  0.00    -0.322 A  
HETATM   23  C   UNL     1      -9.786  10.418  68.679  1.00  0.00    -0.178 A  
HETATM   24  C   UNL     1     -10.606   9.569  71.205  1.00  0.00    -0.388 A  
HETATM   25  C   UNL     1     -11.505  10.196  70.336  1.00  0.00    -0.400 A  
ENDBRANCH  18  20
ENDBRANCH   8  18
ENDBRANCH   3   4
ENDBRANCH   2   3
TORSDOF 5
ENDMDL
MODEL       16
REMARK 921   NORMALIZED FREE ENERGY PREDICTED BY IDOCK:   -5.67 KCAL/MOL
REMARK 922        TOTAL FREE ENERGY PREDICTED BY IDOCK:   -8.33 KCAL/MOL
REMARK 923 INTER-LIGAND FREE ENERGY PREDICTED BY IDOCK:   -7.46 KCAL/MOL
REMARK 924 INTRA-LIGAND FREE ENERGY PREDICTED BY IDOCK:   -0.87 KCAL/MOL
REMARK 927      BINDING AFFINITY PREDICTED BY RF-SCORE:    0.00 PKD
ROOT
HETATM    1  C   UNL     1     -10.422   8.488  70.298  1.00  0.00    -0.233 C  
HETATM    2  C   UNL     1      -9.260   9.465  70.415  1.00  0.00    -0.305 C  
ENDROOT
BRANCH   2   3
HETATM    3  C   UNL     1      -8.776   9.909  69.033  1.00  0.00    -0.151 C  
BRANCH   3   4
HETATM    4  C   UNL     1      -8.664  11.436  68.904  1.00  0.00    -0.012 C  
HETATM    5  C   UNL     1      -9.664  12.030  67.881  1.00  0.00    -0.194 C  
HETATM    6  C   UNL     1     -11.068  11.651  68.310  1.00  0.00    -0.234 C  
HETATM    7  C   UNL     1      -9.592  13.557  67.797  1.00  0.00    -0.219 C  
HETATM    8  N   UNL     1     -10.228  14.209  66.709  1.00  0.00    -0.259 N  
HETATM    9  O   UNL     1      -9.099  14.148  68.769  1.00  0.00    -0.165 OA 
HETATM   10  O   UNL     1     -11.760  10.844  67.706  1.00  0.00    -0.569 OA 
HETATM   11  O   UNL     1     -11.487  12.258  69.441  1.00  0.00    -0.271 OA 
BRANCH   8  12
HETATM   12  C   UNL     1     -10.920  13.482  65.689  1.00  0.00    -0.289 A  
HETATM   13  C   UNL     1     -12.322  13.537  65.650  1.00  0.00    -0.522 A  
HETATM   14  C   UNL     1     -10.238  12.755  64.699  1.00  0.00    -0.321 A  
HETATM   15  C   UNL     1     -13.019  12.908  64.610  1.00  0.00    -0.204 A  
HETATM   16  C   UNL     1     -12.331  12.227  63.608  1.00  0.00    -0.664 A  
HETATM   17  C   UNL     1     -10.937  12.148  63.656  1.00  0.00    -0.527 A  
ENDBRANCH   8  12
BRANCH   8  18
HETATM   18  N   UNL     1     -10.817  15.501  66.934  1.00  0.00    -0.315 NA 
HETATM   19  H   UNL     1     -11.806  15.570  67.175  1.00  0.00     0.000 HD 
BRANCH  18  20
HETATM   20  C   UNL     1     -10.038  16.679  66.823  1.00  0.00    -0.291 A  
HETATM   21  C   UNL     1      -7.986  17.909  66.389  1.00  0.00    -0.302 A  
HETATM   22  C   UNL     1      -8.591  19.098  66.784  1.00  0.00    -0.321 A  
HETATM   23  C   UNL     1      -8.718  16.715  66.369  1.00  0.00    -0.345 A  
HETATM   24  C   UNL     1      -9.942  19.106  67.114  1.00  0.00    -0.435 A  
HETATM   25  C   UNL     1     -10.660  17.906  67.117  1.00  0.00    -0.315 A  
ENDBRANCH  18  20
ENDBRANCH   8  18
ENDBRANCH   3   4
ENDBRANCH   2   3
TORSDOF 5
ENDMDL
MODEL       17
REMARK 921   NORMALIZED FREE ENERGY PREDICTED BY IDOCK:   -5.65 KCAL/MOL
REMARK 922        TOTAL FREE ENERGY PREDICTED BY IDOCK:   -8.31 KCAL/MOL
REMARK 923 INTER-LIGAND FREE ENERGY PREDICTED BY IDOCK:   -7.29 KCAL/MOL
REMARK 924 INTRA-LIGAND FREE ENERGY PREDICTED BY IDOCK:   -1.02 KCAL/MOL
REMARK 927      BINDING AFFINITY PREDICTED BY RF-SCORE:    0.00 PKD
ROOT
HETATM    1  C   UNL     1     -11.220  15.187  64.911  1.00  0.00    -0.424 C  
HETATM    2  C   UNL     1     -12.105  14.261  64.085  1.00  0.00    -0.423 C  
ENDROOT
BRANCH   2   3
HETATM    3  C   UNL     1     -11.918  12.803  64.510  1.00  0.00    -0.454 C  
BRANCH   3   4
HETATM    4  C   UNL     1     -12.118  12.594  66.020  1.00  0.00    -0.429 C  
HETATM    5  C   UNL     1     -11.154  11.537  66.615  1.00  0.00    -0.355 C  
HETATM    6  C   UNL     1      -9.731  11.979  66.341  1.00  0.00    -0.225 C  
HETATM    7  C   UNL     1     -11.315  11.372  68.129  1.00  0.00    -0.304 C  
HETATM    8  N   UNL     1     -10.719  10.248  68.757  1.00  0.00    -0.207 N  
HETATM    9  O   UNL     1     -11.841  12.313  68.741  1.00  0.00    -0.309 OA 
HETATM   10  O   UNL     1      -8.994  11.417  65.544  1.00  0.00    -0.183 OA 
HETATM   11  O   UNL     1      -9.347  13.075  67.031  1.00  0.00    -0.221 OA 
BRANCH   8  12
HETATM   12  C   UNL     1      -9.987   9.265  68.018  1.00  0.00    -0.182 A  
HETATM   13  C   UNL     1      -8.585   9.275  68.082  1.00  0.00    -0.125 A  
HETATM   14  C   UNL     1     -10.629   8.265  67.270  1.00  0.00    -0.335 A  
HETATM   15  C   UNL     1      -7.848   8.271  67.441  1.00  0.00    -0.106 A  
HETATM   16  C   UNL     1      -8.496   7.257  66.738  1.00  0.00    -0.121 A  
HETATM   17  C   UNL     1      -9.890   7.258  66.650  1.00  0.00    -0.257 A  
ENDBRANCH   8  12
BRANCH   8  18
HETATM   18  N   UNL     1     -10.205  10.401  70.091  1.00  0.00    -0.433 NA 
HETATM   19  H   UNL     1      -9.617  11.204  70.317  1.00  0.00     0.000 HD 
BRANCH  18  20
HETATM   20  C   UNL     1     -10.507   9.449  71.095  1.00  0.00    -0.322 A  
HETATM   21  C   UNL     1      -9.932   7.827  72.813  1.00  0.00    -0.321 A  
HETATM   22  C   UNL     1     -11.271   7.477  72.961  1.00  0.00    -0.373 A  
HETATM   23  C   UNL     1      -9.559   8.836  71.917  1.00  0.00    -0.372 A  
HETATM   24  C   UNL     1     -12.245   8.167  72.247  1.00  0.00    -0.397 A  
HETATM   25  C   UNL     1     -11.863   9.156  71.334  1.00  0.00    -0.415 A  
ENDBRANCH  18  20
ENDBRANCH   8  18
ENDBRANCH   3   4
ENDBRANCH   2   3
TORSDOF 5
ENDMDL
MODEL       18
REMARK 921   NORMALIZED FREE ENERGY PREDICTED BY IDOCK:   -5.64 KCAL/MOL
REMARK 922        TOTAL FREE ENERGY PREDICTED BY IDOCK:   -8.29 KCAL/MOL
REMARK 923 INTER-LIGAND FREE ENERGY PREDICTED BY IDOCK:   -7.31 KCAL/MOL
REMARK 924 INTRA-LIGAND FREE ENERGY PREDICTED BY IDOCK:   -0.99 KCAL/MOL
REMARK 927      BINDING AFFINITY PREDICTED BY RF-SCORE:    0.00 PKD
ROOT
HETATM    1  C   UNL     1      -6.160  20.400  64.277  1.00  0.00    -0.335 C  
HETATM    2  C   UNL     1      -5.774  20.848  65.681  1.00  0.00    -0.271 C  
ENDROOT
BRANCH   2   3
HETATM    3  C   UNL     1      -6.993  20.858  66.607  1.00  0.00    -0.285 C  
BRANCH   3   4
HETATM    4  C   UNL     1      -8.145  19.986  66.083  1.00  0.00    -0.307 C  
HETATM    5  C   UNL     1      -8.273  18.639  66.838  1.00  0.00    -0.268 C  
HETATM    6  C   UNL     1      -8.480  18.934  68.310  1.00  0.00    -0.330 C  
HETATM    7  C   UNL     1      -9.458  17.798  66.353  1.00  0.00    -0.264 C  
HETATM    8  N   UNL     1      -9.525  16.434  66.739  1.00  0.00    -0.236 N  
HETATM    9  O   UNL     1     -10.368  18.400  65.766  1.00  0.00    -0.588 OA 
HETATM   10  O   UNL     1      -7.633  18.715  69.164  1.00  0.00    -0.234 OA 
HETATM   11  O   UNL     1      -9.673  19.492  68.603  1.00  0.00    -0.389 OA 
BRANCH   8  12
HETATM   12  C   UNL     1      -8.517  15.825  67.552  1.00  0.00    -0.168 A  
HETATM   13  C   UNL     1      -7.243  15.610  67.005  1.00  0.00    -0.175 A  
HETATM   14  C   UNL     1      -8.751  15.478  68.893  1.00  0.00    -0.206 A  
HETATM   15  C   UNL     1      -6.214  15.098  67.806  1.00  0.00    -0.172 A  
HETATM   16  C   UNL     1      -6.444  14.800  69.148  1.00  0.00    -0.109 A  
HETATM   17  C   UNL     1      -7.717  14.988  69.690  1.00  0.00    -0.115 A  
ENDBRANCH   8  12
BRANCH   8  18
HETATM   18  N   UNL     1     -10.818  15.850  66.970  1.00  0.00    -0.293 NA 
HETATM   19  H   UNL     1     -11.408  16.209  67.720  1.00  0.00     0.000 HD 
BRANCH  18  20
HETATM   20  C   UNL     1     -11.281  14.780  66.165  1.00  0.00    -0.337 A  
HETATM   21  C   UNL     1     -12.061  13.786  64.087  1.00  0.00    -0.478 A  
HETATM   22  C   UNL     1     -12.324  12.584  64.736  1.00  0.00    -0.544 A  
HETATM   23  C   UNL     1     -11.504  14.863  64.789  1.00  0.00    -0.410 A  
HETATM   24  C   UNL     1     -11.985  12.438  66.078  1.00  0.00    -0.419 A  
HETATM   25  C   UNL     1     -11.453  13.525  66.778  1.00  0.00    -0.374 A  
ENDBRANCH  18  20
ENDBRANCH   8  18
ENDBRANCH   3   4
ENDBRANCH   2   3
TORSDOF 5
ENDMDL
MODEL       19
REMARK 921   NORMALIZED FREE ENERGY PREDICTED BY IDOCK:   -5.63 KCAL/MOL
REMARK 922        TOTAL FREE ENERGY PREDICTED BY IDOCK:   -8.29 KCAL/MOL
REMARK 923 INTER-LIGAND FREE ENERGY PREDICTED BY IDOCK:   -7.45 KCAL/MOL
REMARK 924 INTRA-LIGAND FREE ENERGY PREDICTED BY IDOCK:   -0.84 KCAL/MOL
REMARK 927      BINDING AFFINITY PREDICTED BY RF-SCORE:    0.00 PKD
ROOT
HETATM    1  C   UNL     1     -10.865   3.305  73.236  1.00  0.00    -0.283 C  
HETATM    2  C   UNL     1     -10.864   4.705  73.837  1.00  0.00    -0.359 C  
ENDROOT
BRANCH   2   3
HETATM    3  C   UNL     1     -10.306   5.727  72.843  1.00  0.00    -0.226 C  
BRANCH   3   4
HETATM    4  C   UNL     1     -11.008   7.091  72.936  1.00  0.00    -0.337 C  
HETATM    5  C   UNL     1     -10.914   7.908  71.623  1.00  0.00    -0.280 C  
HETATM    6  C   UNL     1     -11.526   7.089  70.504  1.00  0.00    -0.319 C  
HETATM    7  C   UNL     1     -11.664   9.241  71.698  1.00  0.00    -0.392 C  
HETATM    8  N   UNL     1     -11.423  10.213  70.693  1.00  0.00    -0.326 N  
HETATM    9  O   UNL     1     -12.550   9.336  72.559  1.00  0.00    -0.314 OA 
HETATM   10  O   UNL     1     -10.870   6.584  69.605  1.00  0.00    -0.245 OA 
HETATM   11  O   UNL     1     -12.864   6.932  70.598  1.00  0.00    -0.168 OA 
BRANCH   8  12
HETATM   12  C   UNL     1     -10.496   9.989  69.626  1.00  0.00    -0.248 A  
HETATM   13  C   UNL     1     -10.972   9.976  68.306  1.00  0.00    -0.278 A  
HETATM   14  C   UNL     1      -9.120   9.827  69.857  1.00  0.00    -0.257 A  
HETATM   15  C   UNL     1     -10.073   9.847  67.239  1.00  0.00    -0.264 A  
HETATM   16  C   UNL     1      -8.705   9.733  67.477  1.00  0.00    -0.125 A  
HETATM   17  C   UNL     1      -8.229   9.720  68.790  1.00  0.00    -0.108 A  
ENDBRANCH   8  12
BRANCH   8  18
HETATM   18  N   UNL     1     -12.512  11.058  70.282  1.00  0.00    -0.301 NA 
HETATM   19  H   UNL     1     -13.205  10.703  69.623  1.00  0.00     0.000 HD 
BRANCH  18  20
HETATM   20  C   UNL     1     -12.630  12.378  70.782  1.00  0.00    -0.211 A  
HETATM   21  C   UNL     1     -13.446  14.062  72.335  1.00  0.00    -0.639 A  
HETATM   22  C   UNL     1     -12.879  15.074  71.568  1.00  0.00    -0.422 A  
HETATM   23  C   UNL     1     -13.286  12.720  71.967  1.00  0.00    -0.565 A  
HETATM   24  C   UNL     1     -12.110  14.746  70.456  1.00  0.00    -0.378 A  
HETATM   25  C   UNL     1     -11.976  13.406  70.079  1.00  0.00    -0.407 A  
ENDBRANCH  18  20
ENDBRANCH   8  18
ENDBRANCH   3   4
ENDBRANCH   2   3
TORSDOF 5
ENDMDL
MODEL       20
REMARK 921   NORMALIZED FREE ENERGY PREDICTED BY IDOCK:   -5.55 KCAL/MOL
REMARK 922        TOTAL FREE ENERGY PREDICTED BY IDOCK:   -8.18 KCAL/MOL
REMARK 923 INTER-LIGAND FREE ENERGY PREDICTED BY IDOCK:   -7.22 KCAL/MOL
REMARK 924 INTRA-LIGAND FREE ENERGY PREDICTED BY IDOCK:   -0.97 KCAL/MOL
REMARK 927      BINDING AFFINITY PREDICTED BY RF-SCORE:    0.00 PKD
ROOT
HETATM    1  C   UNL     1     -10.433  16.812  65.939  1.00  0.00    -0.311 C  
HETATM    2  C   UNL     1     -11.008  16.086  64.730  1.00  0.00    -0.373 C  
ENDROOT
BRANCH   2   3
HETATM    3  C   UNL     1     -11.010  14.571  64.951  1.00  0.00    -0.421 C  
BRANCH   3   4
HETATM    4  C   UNL     1     -11.678  14.164  66.274  1.00  0.00    -0.402 C  
HETATM    5  C   UNL     1     -10.959  12.984  66.975  1.00  0.00    -0.289 C  
HETATM    6  C   UNL     1      -9.518  13.384  67.227  1.00  0.00    -0.234 C  
HETATM    7  C   UNL     1     -11.591  12.619  68.321  1.00  0.00    -0.332 C  
HETATM    8  N   UNL     1     -11.231  11.388  68.929  1.00  0.00    -0.224 N  
HETATM    9  O   UNL     1     -12.276  13.492  68.872  1.00  0.00    -0.315 OA 
HETATM   10  O   UNL     1      -8.572  12.900  66.624  1.00  0.00    -0.121 OA 
HETATM   11  O   UNL     1      -9.364  14.350  68.157  1.00  0.00    -0.191 OA 
BRANCH   8  12
HETATM   12  C   UNL     1     -10.309  10.480  68.316  1.00  0.00    -0.168 A  
HETATM   13  C   UNL     1     -10.732   9.731  67.207  1.00  0.00    -0.296 A  
HETATM   14  C   UNL     1      -8.983  10.351  68.762  1.00  0.00    -0.157 A  
HETATM   15  C   UNL     1      -9.824   8.902  66.535  1.00  0.00    -0.344 A  
HETATM   16  C   UNL     1      -8.498   8.816  66.957  1.00  0.00    -0.109 A  
HETATM   17  C   UNL     1      -8.080   9.540  68.076  1.00  0.00    -0.102 A  
ENDBRANCH   8  12
BRANCH   8  18
HETATM   18  N   UNL     1     -11.163  11.326  70.363  1.00  0.00    -0.425 NA 
HETATM   19  H   UNL     1     -10.711  12.080  70.881  1.00  0.00     0.000 HD 
BRANCH  18  20
HETATM   20  C   UNL     1     -11.718  10.228  71.065  1.00  0.00    -0.370 A  
HETATM   21  C   UNL     1     -11.605   8.102  72.239  1.00  0.00    -0.436 A  
HETATM   22  C   UNL     1     -12.993   8.047  72.319  1.00  0.00    -0.179 A  
HETATM   23  C   UNL     1     -10.972   9.205  71.654  1.00  0.00    -0.445 A  
HETATM   24  C   UNL     1     -13.751   9.118  71.856  1.00  0.00    -0.485 A  
HETATM   25  C   UNL     1     -13.113  10.205  71.249  1.00  0.00    -0.490 A  
ENDBRANCH  18  20
ENDBRANCH   8  18
ENDBRANCH   3   4
ENDBRANCH   2   3
TORSDOF 5
ENDMDL
MODEL       21
REMARK 921   NORMALIZED FREE ENERGY PREDICTED BY IDOCK:   -5.47 KCAL/MOL
REMARK 922        TOTAL FREE ENERGY PREDICTED BY IDOCK:   -8.07 KCAL/MOL
REMARK 923 INTER-LIGAND FREE ENERGY PREDICTED BY IDOCK:   -7.54 KCAL/MOL
REMARK 924 INTRA-LIGAND FREE ENERGY PREDICTED BY IDOCK:   -0.53 KCAL/MOL
REMARK 927      BINDING AFFINITY PREDICTED BY RF-SCORE:    0.00 PKD
ROOT
HETATM    1  C   UNL     1      -5.694  20.000  71.380  1.00  0.00    -0.382 C  
HETATM    2  C   UNL     1      -5.933  19.211  70.099  1.00  0.00    -0.249 C  
ENDROOT
BRANCH   2   3
HETATM    3  C   UNL     1      -6.407  20.129  68.970  1.00  0.00    -0.360 C  
BRANCH   3   4
HETATM    4  C   UNL     1      -6.736  19.363  67.679  1.00  0.00    -0.239 C  
HETATM    5  C   UNL     1      -7.989  18.462  67.815  1.00  0.00    -0.258 C  
HETATM    6  C   UNL     1      -9.164  19.333  68.210  1.00  0.00    -0.341 C  
HETATM    7  C   UNL     1      -8.349  17.745  66.511  1.00  0.00    -0.265 C  
HETATM    8  N   UNL     1      -9.279  16.674  66.559  1.00  0.00    -0.252 N  
HETATM    9  O   UNL     1      -7.911  18.238  65.462  1.00  0.00    -0.446 OA 
HETATM   10  O   UNL     1      -9.683  19.300  69.316  1.00  0.00    -0.349 OA 
HETATM   11  O   UNL     1      -9.578  20.181  67.244  1.00  0.00    -0.369 OA 
BRANCH   8  12
HETATM   12  C   UNL     1      -9.876  16.242  67.785  1.00  0.00    -0.237 A  
HETATM   13  C   UNL     1     -11.269  16.330  67.929  1.00  0.00    -0.213 A  
HETATM   14  C   UNL     1      -9.116  15.690  68.830  1.00  0.00    -0.208 A  
HETATM   15  C   UNL     1     -11.887  15.832  69.083  1.00  0.00    -0.367 A  
HETATM   16  C   UNL     1     -11.129  15.245  70.095  1.00  0.00    -0.312 A  
HETATM   17  C   UNL     1      -9.740  15.178  69.967  1.00  0.00     0.059 A  
ENDBRANCH   8  12
BRANCH   8  18
HETATM   18  N   UNL     1     -10.164  16.485  65.441  1.00  0.00    -0.603 NA 
HETATM   19  H   UNL     1     -10.486  17.294  64.910  1.00  0.00     0.000 HD 
BRANCH  18  20
HETATM   20  C   UNL     1     -10.594  15.187  65.073  1.00  0.00    -0.413 A  
HETATM   21  C   UNL     1     -10.318  12.784  64.814  1.00  0.00    -0.345 A  
HETATM   22  C   UNL     1     -11.542  12.693  64.159  1.00  0.00    -0.458 A  
HETATM   23  C   UNL     1      -9.867  14.017  65.305  1.00  0.00    -0.186 A  
HETATM   24  C   UNL     1     -12.341  13.825  64.034  1.00  0.00    -0.370 A  
HETATM   25  C   UNL     1     -11.874  15.057  64.503  1.00  0.00    -0.377 A  
ENDBRANCH  18  20
ENDBRANCH   8  18
ENDBRANCH   3   4
ENDBRANCH   2   3
TORSDOF 5
ENDMDL
MODEL       22
REMARK 921   NORMALIZED FREE ENERGY PREDICTED BY IDOCK:   -5.46 KCAL/MOL
REMARK 922        TOTAL FREE ENERGY PREDICTED BY IDOCK:   -8.06 KCAL/MOL
REMARK 923 INTER-LIGAND FREE ENERGY PREDICTED BY IDOCK:   -7.16 KCAL/MOL
REMARK 924 INTRA-LIGAND FREE ENERGY PREDICTED BY IDOCK:   -0.89 KCAL/MOL
REMARK 927      BINDING AFFINITY PREDICTED BY RF-SCORE:    0.00 PKD
ROOT
HETATM    1  C   UNL     1      -7.080  20.466  65.971  1.00  0.00    -0.255 C  
HETATM    2  C   UNL     1      -6.711  20.476  67.449  1.00  0.00    -0.333 C  
ENDROOT
BRANCH   2   3
HETATM    3  C   UNL     1      -7.057  19.139  68.109  1.00  0.00    -0.289 C  
BRANCH   3   4
HETATM    4  C   UNL     1      -7.638  18.119  67.117  1.00  0.00    -0.225 C  
HETATM    5  C   UNL     1      -8.886  17.385  67.668  1.00  0.00    -0.225 C  
HETATM    6  C   UNL     1      -9.936  18.421  68.016  1.00  0.00    -0.351 C  
HETATM    7  C   UNL     1      -9.498  16.412  66.656  1.00  0.00    -0.256 C  
HETATM    8  N   UNL     1     -10.451  15.466  67.114  1.00  0.00    -0.284 N  
HETATM    9  O   UNL     1      -9.228  16.605  65.462  1.00  0.00    -0.438 OA 
HETATM   10  O   UNL     1     -10.255  18.695  69.163  1.00  0.00    -0.315 OA 
HETATM   11  O   UNL     1     -10.474  19.047  66.947  1.00  0.00    -0.379 OA 
BRANCH   8  12
HETATM   12  C   UNL     1     -10.844  15.389  68.488  1.00  0.00    -0.264 A  
HETATM   13  C   UNL     1      -9.873  15.087  69.454  1.00  0.00    -0.170 A  
HETATM   14  C   UNL     1     -12.161  15.651  68.902  1.00  0.00    -0.183 A  
HETATM   15  C   UNL     1     -10.212  15.093  70.814  1.00  0.00     0.395 A  
HETATM   16  C   UNL     1     -11.510  15.399  71.218  1.00  0.00    -0.444 A  
HETATM   17  C   UNL     1     -12.486  15.675  70.258  1.00  0.00    -0.369 A  
ENDBRANCH   8  12
BRANCH   8  18
HETATM   18  N   UNL     1     -11.524  15.093  66.233  1.00  0.00    -0.225 NA 
HETATM   19  H   UNL     1     -12.345  15.693  66.154  1.00  0.00     0.000 HD 
BRANCH  18  20
HETATM   20  C   UNL     1     -11.452  13.899  65.474  1.00  0.00    -0.316 A  
HETATM   21  C   UNL     1     -10.744  11.610  65.063  1.00  0.00    -0.351 A  
HETATM   22  C   UNL     1     -11.286  11.650  63.781  1.00  0.00    -0.498 A  
HETATM   23  C   UNL     1     -10.865  12.713  65.917  1.00  0.00    -0.300 A  
HETATM   24  C   UNL     1     -11.991  12.776  63.368  1.00  0.00    -0.613 A  
HETATM   25  C   UNL     1     -12.085  13.883  64.217  1.00  0.00    -0.477 A  
ENDBRANCH  18  20
ENDBRANCH   8  18
ENDBRANCH   3   4
ENDBRANCH   2   3
TORSDOF 5
ENDMDL
MODEL       23
REMARK 921   NORMALIZED FREE ENERGY PREDICTED BY IDOCK:   -5.45 KCAL/MOL
REMARK 922        TOTAL FREE ENERGY PREDICTED BY IDOCK:   -8.04 KCAL/MOL
REMARK 923 INTER-LIGAND FREE ENERGY PREDICTED BY IDOCK:   -7.06 KCAL/MOL
REMARK 924 INTRA-LIGAND FREE ENERGY PREDICTED BY IDOCK:   -0.98 KCAL/MOL
REMARK 927      BINDING AFFINITY PREDICTED BY RF-SCORE:    0.00 PKD
ROOT
HETATM    1  C   UNL     1      -8.503   8.749  66.168  1.00  0.00    -0.138 C  
HETATM    2  C   UNL     1      -7.539   9.490  67.086  1.00  0.00    -0.091 C  
ENDROOT
BRANCH   2   3
HETATM    3  C   UNL     1      -8.228   9.900  68.389  1.00  0.00    -0.106 C  
BRANCH   3   4
HETATM    4  C   UNL     1      -8.383  11.423  68.526  1.00  0.00    -0.153 C  
HETATM    5  C   UNL     1      -9.510  11.998  67.632  1.00  0.00    -0.185 C  
HETATM    6  C   UNL     1     -10.811  11.313  68.002  1.00  0.00    -0.218 C  
HETATM    7  C   UNL     1      -9.702  13.506  67.814  1.00  0.00    -0.226 C  
HETATM    8  N   UNL     1     -10.482  14.212  66.861  1.00  0.00    -0.271 N  
HETATM    9  O   UNL     1      -9.278  14.000  68.869  1.00  0.00    -0.101 OA 
HETATM   10  O   UNL     1     -11.378  10.511  67.274  1.00  0.00    -0.359 OA 
HETATM   11  O   UNL     1     -11.281  11.637  69.225  1.00  0.00    -0.244 OA 
BRANCH   8  12
HETATM   12  C   UNL     1     -11.081  13.559  65.738  1.00  0.00    -0.286 A  
HETATM   13  C   UNL     1     -10.251  13.069  64.718  1.00  0.00    -0.312 A  
HETATM   14  C   UNL     1     -12.467  13.352  65.648  1.00  0.00    -0.519 A  
HETATM   15  C   UNL     1     -10.803  12.348  63.651  1.00  0.00    -0.509 A  
HETATM   16  C   UNL     1     -12.175  12.109  63.593  1.00  0.00    -0.663 A  
HETATM   17  C   UNL     1     -13.008  12.617  64.594  1.00  0.00    -0.225 A  
ENDBRANCH   8  12
BRANCH   8  18
HETATM   18  N   UNL     1     -11.273  15.324  67.313  1.00  0.00    -0.330 NA 
HETATM   19  H   UNL     1     -12.238  15.171  67.605  1.00  0.00     0.000 HD 
BRANCH  18  20
HETATM   20  C   UNL     1     -10.725  16.629  67.356  1.00  0.00    -0.253 A  
HETATM   21  C   UNL     1      -9.972  18.648  68.483  1.00  0.00    -0.430 A  
HETATM   22  C   UNL     1      -9.754  19.275  67.260  1.00  0.00    -0.409 A  
HETATM   23  C   UNL     1     -10.414  17.319  68.529  1.00  0.00    -0.375 A  
HETATM   24  C   UNL     1      -9.932  18.561  66.080  1.00  0.00    -0.341 A  
HETATM   25  C   UNL     1     -10.398  17.243  66.133  1.00  0.00    -0.320 A  
ENDBRANCH  18  20
ENDBRANCH   8  18
ENDBRANCH   3   4
ENDBRANCH   2   3
TORSDOF 5
ENDMDL
MODEL       24
REMARK 921   NORMALIZED FREE ENERGY PREDICTED BY IDOCK:   -5.42 KCAL/MOL
REMARK 922        TOTAL FREE ENERGY PREDICTED BY IDOCK:   -8.01 KCAL/MOL
REMARK 923 INTER-LIGAND FREE ENERGY PREDICTED BY IDOCK:   -7.06 KCAL/MOL
REMARK 924 INTRA-LIGAND FREE ENERGY PREDICTED BY IDOCK:   -0.94 KCAL/MOL
REMARK 927      BINDING AFFINITY PREDICTED BY RF-SCORE:    0.00 PKD
ROOT
HETATM    1  C   UNL     1      -8.081   8.123  64.610  1.00  0.00    -0.148 C  
HETATM    2  C   UNL     1      -7.081   8.712  65.597  1.00  0.00    -0.083 C  
ENDROOT
BRANCH   2   3
HETATM    3  C   UNL     1      -7.261  10.227  65.720  1.00  0.00    -0.133 C  
BRANCH   3   4
HETATM    4  C   UNL     1      -7.897  10.644  67.056  1.00  0.00    -0.117 C  
HETATM    5  C   UNL     1      -9.154  11.530  66.874  1.00  0.00    -0.181 C  
HETATM    6  C   UNL     1     -10.163  10.764  66.041  1.00  0.00    -0.251 C  
HETATM    7  C   UNL     1      -9.820  11.895  68.204  1.00  0.00    -0.192 C  
HETATM    8  N   UNL     1     -10.793  12.928  68.216  1.00  0.00    -0.233 N  
HETATM    9  O   UNL     1      -9.571  11.164  69.174  1.00  0.00    -0.132 OA 
HETATM   10  O   UNL     1     -10.447  11.061  64.890  1.00  0.00    -0.309 OA 
HETATM   11  O   UNL     1     -10.704   9.696  66.666  1.00  0.00    -0.149 OA 
BRANCH   8  12
HETATM   12  C   UNL     1     -11.157  13.641  67.030  1.00  0.00    -0.301 A  
HETATM   13  C   UNL     1     -10.232  14.530  66.463  1.00  0.00    -0.282 A  
HETATM   14  C   UNL     1     -12.392  13.442  66.391  1.00  0.00    -0.381 A  
HETATM   15  C   UNL     1     -10.528  15.173  65.253  1.00  0.00    -0.434 A  
HETATM   16  C   UNL     1     -11.739  14.934  64.604  1.00  0.00    -0.406 A  
HETATM   17  C   UNL     1     -12.673  14.069  65.178  1.00  0.00    -0.419 A  
ENDBRANCH   8  12
BRANCH   8  18
HETATM   18  N   UNL     1     -11.896  12.819  69.131  1.00  0.00    -0.309 NA 
HETATM   19  H   UNL     1     -12.560  12.051  69.033  1.00  0.00     0.000 HD 
BRANCH  18  20
HETATM   20  C   UNL     1     -12.072  13.770  70.166  1.00  0.00    -0.359 A  
HETATM   21  C   UNL     1     -11.682  15.906  71.262  1.00  0.00    -0.504 A  
HETATM   22  C   UNL     1     -12.414  15.494  72.371  1.00  0.00    -0.490 A  
HETATM   23  C   UNL     1     -11.548  15.065  70.150  1.00  0.00    -0.326 A  
HETATM   24  C   UNL     1     -13.054  14.259  72.353  1.00  0.00    -0.519 A  
HETATM   25  C   UNL     1     -12.895  13.414  71.250  1.00  0.00    -0.407 A  
ENDBRANCH  18  20
ENDBRANCH   8  18
ENDBRANCH   3   4
ENDBRANCH   2   3
TORSDOF 5
ENDMDL
MODEL       25
REMARK 921   NORMALIZED FREE ENERGY PREDICTED BY IDOCK:   -5.39 KCAL/MOL
REMARK 922        TOTAL FREE ENERGY PREDICTED BY IDOCK:   -7.97 KCAL/MOL
REMARK 923 INTER-LIGAND FREE ENERGY PREDICTED BY IDOCK:   -7.06 KCAL/MOL
REMARK 924 INTRA-LIGAND FREE ENERGY PREDICTED BY IDOCK:   -0.91 KCAL/MOL
REMARK 927      BINDING AFFINITY PREDICTED BY RF-SCORE:    0.00 PKD
ROOT
HETATM    1  C   UNL     1     -12.656  11.890  63.495  1.00  0.00    -0.579 C  
HETATM    2  C   UNL     1     -12.135  13.321  63.436  1.00  0.00    -0.508 C  
ENDROOT
BRANCH   2   3
HETATM    3  C   UNL     1     -11.601  13.765  64.799  1.00  0.00    -0.377 C  
BRANCH   3   4
HETATM    4  C   UNL     1     -11.964  12.786  65.928  1.00  0.00    -0.506 C  
HETATM    5  C   UNL     1     -10.723  12.258  66.690  1.00  0.00    -0.276 C  
HETATM    6  C   UNL     1      -9.970  13.444  67.260  1.00  0.00    -0.232 C  
HETATM    7  C   UNL     1     -11.091  11.330  67.851  1.00  0.00    -0.267 C  
HETATM    8  N   UNL     1     -10.067  10.546  68.445  1.00  0.00    -0.158 N  
HETATM    9  O   UNL     1     -12.242  11.424  68.299  1.00  0.00    -0.588 OA 
HETATM   10  O   UNL     1      -8.885  13.816  66.839  1.00  0.00    -0.229 OA 
HETATM   11  O   UNL     1     -10.615  14.084  68.258  1.00  0.00    -0.236 OA 
BRANCH   8  12
HETATM   12  C   UNL     1      -8.713  10.591  67.984  1.00  0.00    -0.128 A  
HETATM   13  C   UNL     1      -7.737  11.178  68.804  1.00  0.00    -0.136 A  
HETATM   14  C   UNL     1      -8.324  10.026  66.758  1.00  0.00    -0.125 A  
HETATM   15  C   UNL     1      -6.391  11.156  68.416  1.00  0.00    -0.049 A  
HETATM   16  C   UNL     1      -6.009  10.552  67.219  1.00  0.00    -0.053 A  
HETATM   17  C   UNL     1      -6.980   9.989  66.388  1.00  0.00    -0.101 A  
ENDBRANCH   8  12
BRANCH   8  18
HETATM   18  N   UNL     1     -10.139  10.281  69.856  1.00  0.00    -0.389 NA 
HETATM   19  H   UNL     1      -9.719  10.935  70.515  1.00  0.00     0.000 HD 
BRANCH  18  20
HETATM   20  C   UNL     1     -10.788   9.118  70.339  1.00  0.00    -0.242 A  
HETATM   21  C   UNL     1     -11.349   6.752  70.300  1.00  0.00    -0.404 A  
HETATM   22  C   UNL     1     -12.258   6.929  71.338  1.00  0.00    -0.418 A  
HETATM   23  C   UNL     1     -10.588   7.831  69.833  1.00  0.00    -0.239 A  
HETATM   24  C   UNL     1     -12.376   8.175  71.944  1.00  0.00    -0.371 A  
HETATM   25  C   UNL     1     -11.633   9.254  71.456  1.00  0.00    -0.452 A  
ENDBRANCH  18  20
ENDBRANCH   8  18
ENDBRANCH   3   4
ENDBRANCH   2   3
TORSDOF 5
ENDMDL
MODEL       26
REMARK 921   NORMALIZED FREE ENERGY PREDICTED BY IDOCK:   -5.39 KCAL/MOL
REMARK 922        TOTAL FREE ENERGY PREDICTED BY IDOCK:   -7.97 KCAL/MOL
REMARK 923 INTER-LIGAND FREE ENERGY PREDICTED BY IDOCK:   -7.21 KCAL/MOL
REMARK 924 INTRA-LIGAND FREE ENERGY PREDICTED BY IDOCK:   -0.76 KCAL/MOL
REMARK 927      BINDING AFFINITY PREDICTED BY RF-SCORE:    0.00 PKD
ROOT
HETATM    1  C   UNL     1      -9.129  19.926  66.242  1.00  0.00    -0.436 C  
HETATM    2  C   UNL     1      -9.844  19.766  67.578  1.00  0.00    -0.516 C  
ENDROOT
BRANCH   2   3
HETATM    3  C   UNL     1     -10.765  18.544  67.563  1.00  0.00    -0.419 C  
BRANCH   3   4
HETATM    4  C   UNL     1     -10.139  17.319  68.250  1.00  0.00    -0.321 C  
HETATM    5  C   UNL     1     -10.191  16.043  67.372  1.00  0.00    -0.273 C  
HETATM    6  C   UNL     1      -9.469  16.329  66.070  1.00  0.00    -0.334 C  
HETATM    7  C   UNL     1      -9.515  14.840  68.034  1.00  0.00    -0.204 C  
HETATM    8  N   UNL     1      -9.740  13.549  67.488  1.00  0.00    -0.222 N  
HETATM    9  O   UNL     1      -8.691  15.082  68.927  1.00  0.00    -0.180 OA 
HETATM   10  O   UNL     1     -10.040  16.441  64.996  1.00  0.00    -0.486 OA 
HETATM   11  O   UNL     1      -8.134  16.483  66.197  1.00  0.00    -0.323 OA 
BRANCH   8  12
HETATM   12  C   UNL     1     -10.585  13.342  66.352  1.00  0.00    -0.285 A  
HETATM   13  C   UNL     1     -11.943  13.681  66.447  1.00  0.00    -0.466 A  
HETATM   14  C   UNL     1     -10.087  12.855  65.132  1.00  0.00    -0.241 A  
HETATM   15  C   UNL     1     -12.773  13.573  65.323  1.00  0.00    -0.481 A  
HETATM   16  C   UNL     1     -12.259  13.132  64.104  1.00  0.00    -0.465 A  
HETATM   17  C   UNL     1     -10.913  12.769  64.012  1.00  0.00    -0.454 A  
ENDBRANCH   8  12
BRANCH   8  18
HETATM   18  N   UNL     1      -8.671  12.589  67.537  1.00  0.00    -0.172 NA 
HETATM   19  H   UNL     1      -7.805  12.771  67.030  1.00  0.00     0.000 HD 
BRANCH  18  20
HETATM   20  C   UNL     1      -8.810  11.392  68.281  1.00  0.00    -0.167 A  
HETATM   21  C   UNL     1      -8.095   9.737  69.914  1.00  0.00    -0.192 A  
HETATM   22  C   UNL     1      -9.164   8.913  69.578  1.00  0.00    -0.150 A  
HETATM   23  C   UNL     1      -7.944  10.987  69.299  1.00  0.00    -0.034 A  
HETATM   24  C   UNL     1     -10.113   9.356  68.662  1.00  0.00    -0.208 A  
HETATM   25  C   UNL     1      -9.942  10.593  68.033  1.00  0.00    -0.180 A  
ENDBRANCH  18  20
ENDBRANCH   8  18
ENDBRANCH   3   4
ENDBRANCH   2   3
TORSDOF 5
ENDMDL
MODEL       27
REMARK 921   NORMALIZED FREE ENERGY PREDICTED BY IDOCK:   -5.34 KCAL/MOL
REMARK 922        TOTAL FREE ENERGY PREDICTED BY IDOCK:   -7.90 KCAL/MOL
REMARK 923 INTER-LIGAND FREE ENERGY PREDICTED BY IDOCK:   -7.09 KCAL/MOL
REMARK 924 INTRA-LIGAND FREE ENERGY PREDICTED BY IDOCK:   -0.81 KCAL/MOL
REMARK 927      BINDING AFFINITY PREDICTED BY RF-SCORE:    0.00 PKD
ROOT
HETATM    1  C   UNL     1     -12.441  11.852  63.500  1.00  0.00    -0.609 C  
HETATM    2  C   UNL     1     -12.160  13.340  63.665  1.00  0.00    -0.551 C  
ENDROOT
BRANCH   2   3
HETATM    3  C   UNL     1     -11.374  13.610  64.950  1.00  0.00    -0.353 C  
BRANCH   3   4
HETATM    4  C   UNL     1     -11.878  12.777  66.140  1.00  0.00    -0.484 C  
HETATM    5  C   UNL     1     -10.728  12.119  66.944  1.00  0.00    -0.271 C  
HETATM    6  C   UNL     1      -9.802  13.213  67.437  1.00  0.00    -0.226 C  
HETATM    7  C   UNL     1     -11.228  11.338  68.163  1.00  0.00    -0.286 C  
HETATM    8  N   UNL     1     -10.333  10.451  68.816  1.00  0.00    -0.184 N  
HETATM    9  O   UNL     1     -12.350  11.637  68.597  1.00  0.00    -0.394 OA 
HETATM   10  O   UNL     1      -8.674  13.386  66.999  1.00  0.00    -0.216 OA 
HETATM   11  O   UNL     1     -10.339  14.010  68.386  1.00  0.00    -0.238 OA 
BRANCH   8  12
HETATM   12  C   UNL     1      -8.990  10.259  68.361  1.00  0.00    -0.132 A  
HETATM   13  C   UNL     1      -8.776   9.614  67.134  1.00  0.00    -0.137 A  
HETATM   14  C   UNL     1      -7.884  10.736  69.084  1.00  0.00    -0.142 A  
HETATM   15  C   UNL     1      -7.476   9.493  66.623  1.00  0.00    -0.093 A  
HETATM   16  C   UNL     1      -6.389  10.010  67.326  1.00  0.00    -0.067 A  
HETATM   17  C   UNL     1      -6.595  10.629  68.561  1.00  0.00    -0.055 A  
ENDBRANCH   8  12
BRANCH   8  18
HETATM   18  N   UNL     1     -10.439  10.296  70.241  1.00  0.00    -0.430 NA 
HETATM   19  H   UNL     1      -9.824  10.830  70.854  1.00  0.00     0.000 HD 
BRANCH  18  20
HETATM   20  C   UNL     1     -11.390   9.408  70.801  1.00  0.00    -0.300 A  
HETATM   21  C   UNL     1     -13.301   8.849  72.197  1.00  0.00    -0.489 A  
HETATM   22  C   UNL     1     -13.119   7.494  71.941  1.00  0.00    -0.291 A  
HETATM   23  C   UNL     1     -12.468   9.802  71.597  1.00  0.00    -0.500 A  
HETATM   24  C   UNL     1     -12.133   7.090  71.046  1.00  0.00    -0.413 A  
HETATM   25  C   UNL     1     -11.288   8.044  70.471  1.00  0.00    -0.229 A  
ENDBRANCH  18  20
ENDBRANCH   8  18
ENDBRANCH   3   4
ENDBRANCH   2   3
TORSDOF 5
ENDMDL
MODEL       28
REMARK 921   NORMALIZED FREE ENERGY PREDICTED BY IDOCK:   -5.32 KCAL/MOL
REMARK 922        TOTAL FREE ENERGY PREDICTED BY IDOCK:   -7.88 KCAL/MOL
REMARK 923 INTER-LIGAND FREE ENERGY PREDICTED BY IDOCK:   -7.15 KCAL/MOL
REMARK 924 INTRA-LIGAND FREE ENERGY PREDICTED BY IDOCK:   -0.73 KCAL/MOL
REMARK 927      BINDING AFFINITY PREDICTED BY RF-SCORE:    0.00 PKD
ROOT
HETATM    1  C   UNL     1      -5.772  19.751  69.977  1.00  0.00    -0.309 C  
HETATM    2  C   UNL     1      -6.429  18.631  69.180  1.00  0.00    -0.287 C  
ENDROOT
BRANCH   2   3
HETATM    3  C   UNL     1      -7.220  19.193  67.997  1.00  0.00    -0.286 C  
BRANCH   3   4
HETATM    4  C   UNL     1      -7.782  18.092  67.082  1.00  0.00    -0.232 C  
HETATM    5  C   UNL     1      -9.012  17.373  67.690  1.00  0.00    -0.233 C  
HETATM    6  C   UNL     1     -10.084  18.409  67.967  1.00  0.00    -0.368 C  
HETATM    7  C   UNL     1      -9.606  16.318  66.752  1.00  0.00    -0.239 C  
HETATM    8  N   UNL     1     -10.538  15.387  67.280  1.00  0.00    -0.288 N  
HETATM    9  O   UNL     1      -9.344  16.431  65.546  1.00  0.00    -0.442 OA 
HETATM   10  O   UNL     1     -10.406  18.758  69.093  1.00  0.00    -0.217 OA 
HETATM   11  O   UNL     1     -10.638  18.946  66.859  1.00  0.00    -0.404 OA 
BRANCH   8  12
HETATM   12  C   UNL     1     -10.926  15.400  68.658  1.00  0.00    -0.273 A  
HETATM   13  C   UNL     1     -12.280  15.576  68.979  1.00  0.00    -0.147 A  
HETATM   14  C   UNL     1      -9.999  15.195  69.694  1.00  0.00    -0.183 A  
HETATM   15  C   UNL     1     -12.698  15.504  70.315  1.00  0.00    -0.310 A  
HETATM   16  C   UNL     1     -11.778  15.255  71.332  1.00  0.00    -0.444 A  
HETATM   17  C   UNL     1     -10.425  15.104  71.019  1.00  0.00     0.305 A  
ENDBRANCH   8  12
BRANCH   8  18
HETATM   18  N   UNL     1     -11.605  14.930  66.433  1.00  0.00    -0.292 NA 
HETATM   19  H   UNL     1     -12.527  15.360  66.505  1.00  0.00     0.000 HD 
BRANCH  18  20
HETATM   20  C   UNL     1     -11.388  13.887  65.498  1.00  0.00    -0.308 A  
HETATM   21  C   UNL     1     -11.852  12.650  63.457  1.00  0.00    -0.619 A  
HETATM   22  C   UNL     1     -10.924  11.676  63.811  1.00  0.00    -0.495 A  
HETATM   23  C   UNL     1     -12.052  13.770  64.275  1.00  0.00    -0.481 A  
HETATM   24  C   UNL     1     -10.158  11.842  64.960  1.00  0.00    -0.297 A  
HETATM   25  C   UNL     1     -10.380  12.949  65.786  1.00  0.00    -0.297 A  
ENDBRANCH  18  20
ENDBRANCH   8  18
ENDBRANCH   3   4
ENDBRANCH   2   3
TORSDOF 5
ENDMDL
MODEL       29
REMARK 921   NORMALIZED FREE ENERGY PREDICTED BY IDOCK:   -5.29 KCAL/MOL
REMARK 922        TOTAL FREE ENERGY PREDICTED BY IDOCK:   -7.84 KCAL/MOL
REMARK 923 INTER-LIGAND FREE ENERGY PREDICTED BY IDOCK:   -7.25 KCAL/MOL
REMARK 924 INTRA-LIGAND FREE ENERGY PREDICTED BY IDOCK:   -0.58 KCAL/MOL
REMARK 927      BINDING AFFINITY PREDICTED BY RF-SCORE:    0.00 PKD
ROOT
HETATM    1  C   UNL     1     -12.400   9.135  71.739  1.00  0.00    -0.444 C  
HETATM    2  C   UNL     1     -12.519  10.629  71.463  1.00  0.00    -0.471 C  
ENDROOT
BRANCH   2   3
HETATM    3  C   UNL     1     -11.744  11.016  70.201  1.00  0.00    -0.442 C  
BRANCH   3   4
HETATM    4  C   UNL     1     -12.124  12.409  69.674  1.00  0.00    -0.271 C  
HETATM    5  C   UNL     1     -10.928  13.157  69.033  1.00  0.00    -0.241 C  
HETATM    6  C   UNL     1     -10.384  12.310  67.901  1.00  0.00    -0.208 C  
HETATM    7  C   UNL     1     -11.322  14.520  68.456  1.00  0.00    -0.286 C  
HETATM    8  N   UNL     1     -10.292  15.434  68.109  1.00  0.00    -0.236 N  
HETATM    9  O   UNL     1     -12.521  14.691  68.193  1.00  0.00    -0.021 OA 
HETATM   10  O   UNL     1      -9.305  11.737  67.949  1.00  0.00    -0.172 OA 
HETATM   11  O   UNL     1     -11.207  12.209  66.836  1.00  0.00    -0.282 OA 
BRANCH   8  12
HETATM   12  C   UNL     1      -8.908  15.122  68.293  1.00  0.00    -0.173 A  
HETATM   13  C   UNL     1      -8.348  15.254  69.572  1.00  0.00    -0.190 A  
HETATM   14  C   UNL     1      -8.106  14.645  67.242  1.00  0.00    -0.230 A  
HETATM   15  C   UNL     1      -7.019  14.871  69.798  1.00  0.00    -0.175 A  
HETATM   16  C   UNL     1      -6.245  14.356  68.759  1.00  0.00    -0.085 A  
HETATM   17  C   UNL     1      -6.790  14.247  67.479  1.00  0.00    -0.158 A  
ENDBRANCH   8  12
BRANCH   8  18
HETATM   18  N   UNL     1     -10.497  16.299  66.979  1.00  0.00    -0.310 NA 
HETATM   19  H   UNL     1     -10.736  15.898  66.072  1.00  0.00     0.000 HD 
BRANCH  18  20
HETATM   20  C   UNL     1     -10.369  17.703  67.113  1.00  0.00    -0.343 A  
HETATM   21  C   UNL     1     -10.287  19.981  66.266  1.00  0.00    -0.570 A  
HETATM   22  C   UNL     1      -9.955  20.461  67.530  1.00  0.00    -0.537 A  
HETATM   23  C   UNL     1     -10.534  18.616  66.070  1.00  0.00    -0.456 A  
HETATM   24  C   UNL     1      -9.915  19.585  68.609  1.00  0.00    -0.538 A  
HETATM   25  C   UNL     1     -10.137  18.220  68.401  1.00  0.00    -0.412 A  
ENDBRANCH  18  20
ENDBRANCH   8  18
ENDBRANCH   3   4
ENDBRANCH   2   3
TORSDOF 5
ENDMDL
MODEL       30
REMARK 921   NORMALIZED FREE ENERGY PREDICTED BY IDOCK:   -5.28 KCAL/MOL
REMARK 922        TOTAL FREE ENERGY PREDICTED BY IDOCK:   -7.83 KCAL/MOL
REMARK 923 INTER-LIGAND FREE ENERGY PREDICTED BY IDOCK:   -6.92 KCAL/MOL
REMARK 924 INTRA-LIGAND FREE ENERGY PREDICTED BY IDOCK:   -0.92 KCAL/MOL
REMARK 927      BINDING AFFINITY PREDICTED BY RF-SCORE:    0.00 PKD
ROOT
HETATM    1  C   UNL     1     -10.977   9.544  70.813  1.00  0.00    -0.389 C  
HETATM    2  C   UNL     1     -11.736  10.737  70.247  1.00  0.00    -0.442 C  
ENDROOT
BRANCH   2   3
HETATM    3  C   UNL     1     -11.437  10.920  68.757  1.00  0.00    -0.376 C  
BRANCH   3   4
HETATM    4  C   UNL     1     -11.781  12.330  68.250  1.00  0.00    -0.392 C  
HETATM    5  C   UNL     1     -10.527  13.215  68.033  1.00  0.00    -0.245 C  
HETATM    6  C   UNL     1      -9.617  12.520  67.041  1.00  0.00    -0.216 C  
HETATM    7  C   UNL     1     -10.868  14.599  67.473  1.00  0.00    -0.286 C  
HETATM    8  N   UNL     1      -9.870  15.608  67.501  1.00  0.00    -0.227 N  
HETATM    9  O   UNL     1     -11.958  14.715  66.894  1.00  0.00    -0.373 OA 
HETATM   10  O   UNL     1      -8.546  12.017  67.350  1.00  0.00    -0.156 OA 
HETATM   11  O   UNL     1     -10.101  12.470  65.782  1.00  0.00    -0.256 OA 
BRANCH   8  12
HETATM   12  C   UNL     1      -8.568  15.372  68.045  1.00  0.00    -0.151 A  
HETATM   13  C   UNL     1      -7.475  15.279  67.171  1.00  0.00    -0.202 A  
HETATM   14  C   UNL     1      -8.345  15.276  69.429  1.00  0.00    -0.232 A  
HETATM   15  C   UNL     1      -6.178  15.138  67.683  1.00  0.00    -0.145 A  
HETATM   16  C   UNL     1      -5.963  15.090  69.060  1.00  0.00    -0.096 A  
HETATM   17  C   UNL     1      -7.051  15.156  69.933  1.00  0.00    -0.119 A  
ENDBRANCH   8  12
BRANCH   8  18
HETATM   18  N   UNL     1      -9.832  16.563  66.427  1.00  0.00    -0.276 NA 
HETATM   19  H   UNL     1      -9.901  16.242  65.462  1.00  0.00     0.000 HD 
BRANCH  18  20
HETATM   20  C   UNL     1      -9.699  17.947  66.698  1.00  0.00    -0.319 A  
HETATM   21  C   UNL     1      -8.532  20.080  66.655  1.00  0.00    -0.370 A  
HETATM   22  C   UNL     1      -9.526  20.664  67.436  1.00  0.00    -0.516 A  
HETATM   23  C   UNL     1      -8.640  18.743  66.254  1.00  0.00    -0.247 A  
HETATM   24  C   UNL     1     -10.654  19.925  67.778  1.00  0.00    -0.460 A  
HETATM   25  C   UNL     1     -10.743  18.582  67.396  1.00  0.00    -0.424 A  
ENDBRANCH  18  20
ENDBRANCH   8  18
ENDBRANCH   3   4
ENDBRANCH   2   3
TORSDOF 5
ENDMDL
MODEL       31
REMARK 921   NORMALIZED FREE ENERGY PREDICTED BY IDOCK:   -5.23 KCAL/MOL
REMARK 922        TOTAL FREE ENERGY PREDICTED BY IDOCK:   -7.77 KCAL/MOL
REMARK 923 INTER-LIGAND FREE ENERGY PREDICTED BY IDOCK:   -6.83 KCAL/MOL
REMARK 924 INTRA-LIGAND FREE ENERGY PREDICTED BY IDOCK:   -0.94 KCAL/MOL
REMARK 927      BINDING AFFINITY PREDICTED BY RF-SCORE:    0.00 PKD
ROOT
HETATM    1  C   UNL     1     -10.166   3.974  74.029  1.00  0.00    -0.223 C  
HETATM    2  C   UNL     1      -9.504   4.107  72.663  1.00  0.00    -0.168 C  
ENDROOT
BRANCH   2   3
HETATM    3  C   UNL     1      -8.255   4.988  72.744  1.00  0.00    -0.109 C  
BRANCH   3   4
HETATM    4  C   UNL     1      -8.217   6.068  71.651  1.00  0.00    -0.119 C  
HETATM    5  C   UNL     1      -9.436   7.023  71.706  1.00  0.00    -0.157 C  
HETATM    6  C   UNL     1      -9.471   7.676  73.074  1.00  0.00    -0.226 C  
HETATM    7  C   UNL     1      -9.367   8.134  70.654  1.00  0.00    -0.154 C  
HETATM    8  N   UNL     1     -10.536   8.895  70.393  1.00  0.00    -0.207 N  
HETATM    9  O   UNL     1      -8.248   8.399  70.192  1.00  0.00    -0.111 OA 
HETATM   10  O   UNL     1     -10.316   7.419  73.919  1.00  0.00    -0.317 OA 
HETATM   11  O   UNL     1      -8.466   8.549  73.300  1.00  0.00    -0.372 OA 
BRANCH   8  12
HETATM   12  C   UNL     1     -11.771   8.647  71.072  1.00  0.00    -0.278 A  
HETATM   13  C   UNL     1     -12.364   9.687  71.803  1.00  0.00    -0.474 A  
HETATM   14  C   UNL     1     -12.430   7.409  70.990  1.00  0.00    -0.285 A  
HETATM   15  C   UNL     1     -13.616   9.497  72.403  1.00  0.00    -0.459 A  
HETATM   16  C   UNL     1     -14.283   8.279  72.278  1.00  0.00    -0.393 A  
HETATM   17  C   UNL     1     -13.685   7.233  71.572  1.00  0.00    -0.451 A  
ENDBRANCH   8  12
BRANCH   8  18
HETATM   18  N   UNL     1     -10.388  10.284  70.052  1.00  0.00    -0.395 NA 
HETATM   19  H   UNL     1     -10.073  10.947  70.760  1.00  0.00     0.000 HD 
BRANCH  18  20
HETATM   20  C   UNL     1     -10.674  10.740  68.742  1.00  0.00    -0.208 A  
HETATM   21  C   UNL     1     -10.534  10.649  66.316  1.00  0.00    -0.268 A  
HETATM   22  C   UNL     1     -11.219  11.856  66.210  1.00  0.00    -0.392 A  
HETATM   23  C   UNL     1     -10.301  10.075  67.572  1.00  0.00    -0.282 A  
HETATM   24  C   UNL     1     -11.714  12.468  67.356  1.00  0.00    -0.432 A  
HETATM   25  C   UNL     1     -11.456  11.903  68.609  1.00  0.00    -0.350 A  
ENDBRANCH  18  20
ENDBRANCH   8  18
ENDBRANCH   3   4
ENDBRANCH   2   3
TORSDOF 5
ENDMDL
MODEL       32
REMARK 921   NORMALIZED FREE ENERGY PREDICTED BY IDOCK:   -5.21 KCAL/MOL
REMARK 922        TOTAL FREE ENERGY PREDICTED BY IDOCK:   -7.73 KCAL/MOL
REMARK 923 INTER-LIGAND FREE ENERGY PREDICTED BY IDOCK:   -7.29 KCAL/MOL
REMARK 924 INTRA-LIGAND FREE ENERGY PREDICTED BY IDOCK:   -0.44 KCAL/MOL
REMARK 927      BINDING AFFINITY PREDICTED BY RF-SCORE:    0.00 PKD
ROOT
HETATM    1  C   UNL     1     -12.350  12.402  63.505  1.00  0.00    -0.648 C  
HETATM    2  C   UNL     1     -11.378  11.876  64.553  1.00  0.00    -0.382 C  
ENDROOT
BRANCH   2   3
HETATM    3  C   UNL     1     -11.712  12.433  65.938  1.00  0.00    -0.476 C  
BRANCH   3   4
HETATM    4  C   UNL     1     -11.207  13.871  66.138  1.00  0.00    -0.303 C  
HETATM    5  C   UNL     1     -11.304  14.344  67.610  1.00  0.00    -0.348 C  
HETATM    6  C   UNL     1     -10.500  13.392  68.473  1.00  0.00    -0.252 C  
HETATM    7  C   UNL     1     -10.746  15.756  67.818  1.00  0.00    -0.307 C  
HETATM    8  N   UNL     1     -11.033  16.427  69.034  1.00  0.00    -0.319 N  
HETATM    9  O   UNL     1      -9.952  16.174  66.963  1.00  0.00    -0.247 OA 
HETATM   10  O   UNL     1     -11.008  12.604  69.257  1.00  0.00    -0.179 OA 
HETATM   11  O   UNL     1      -9.165  13.461  68.282  1.00  0.00    -0.204 OA 
BRANCH   8  12
HETATM   12  C   UNL     1     -11.833  15.831  70.060  1.00  0.00    -0.354 A  
HETATM   13  C   UNL     1     -11.228  15.488  71.278  1.00  0.00    -0.414 A  
HETATM   14  C   UNL     1     -13.213  15.622  69.901  1.00  0.00     0.667 A  
HETATM   15  C   UNL     1     -12.006  14.986  72.330  1.00  0.00    -0.442 A  
HETATM   16  C   UNL     1     -13.382  14.824  72.177  1.00  0.00    -0.471 A  
HETATM   17  C   UNL     1     -13.984  15.140  70.958  1.00  0.00    -0.383 A  
ENDBRANCH   8  12
BRANCH   8  18
HETATM   18  N   UNL     1     -10.037  17.308  69.582  1.00  0.00     0.028 NA 
HETATM   19  H   UNL     1      -9.653  17.122  70.508  1.00  0.00     0.000 HD 
BRANCH  18  20
HETATM   20  C   UNL     1      -9.584  18.431  68.847  1.00  0.00    -0.259 A  
HETATM   21  C   UNL     1      -9.892  20.494  67.597  1.00  0.00    -0.484 A  
HETATM   22  C   UNL     1      -8.537  20.532  67.284  1.00  0.00    -0.372 A  
HETATM   23  C   UNL     1     -10.404  19.473  68.408  1.00  0.00    -0.486 A  
HETATM   24  C   UNL     1      -7.681  19.576  67.821  1.00  0.00    -0.321 A  
HETATM   25  C   UNL     1      -8.202  18.545  68.608  1.00  0.00    -0.335 A  
ENDBRANCH  18  20
ENDBRANCH   8  18
ENDBRANCH   3   4
ENDBRANCH   2   3
TORSDOF 5
ENDMDL
MODEL       33
REMARK 921   NORMALIZED FREE ENERGY PREDICTED BY IDOCK:   -5.15 KCAL/MOL
REMARK 922        TOTAL FREE ENERGY PREDICTED BY IDOCK:   -7.66 KCAL/MOL
REMARK 923 INTER-LIGAND FREE ENERGY PREDICTED BY IDOCK:   -7.46 KCAL/MOL
REMARK 924 INTRA-LIGAND FREE ENERGY PREDICTED BY IDOCK:   -0.20 KCAL/MOL
REMARK 927      BINDING AFFINITY PREDICTED BY RF-SCORE:    0.00 PKD
ROOT
HETATM    1  C   UNL     1     -11.152   6.351  72.532  1.00  0.00    -0.298 C  
HETATM    2  C   UNL     1     -11.157   5.976  71.056  1.00  0.00    -0.348 C  
ENDROOT
BRANCH   2   3
HETATM    3  C   UNL     1      -9.813   6.305  70.402  1.00  0.00    -0.207 C  
BRANCH   3   4
HETATM    4  C   UNL     1      -9.958   7.206  69.165  1.00  0.00    -0.168 C  
HETATM    5  C   UNL     1     -10.435   8.638  69.514  1.00  0.00    -0.222 C  
HETATM    6  C   UNL     1      -9.442   9.250  70.482  1.00  0.00    -0.264 C  
HETATM    7  C   UNL     1     -10.522   9.550  68.287  1.00  0.00    -0.223 C  
HETATM    8  N   UNL     1     -11.216  10.783  68.405  1.00  0.00    -0.263 N  
HETATM    9  O   UNL     1      -9.855   9.220  67.296  1.00  0.00    -0.161 OA 
HETATM   10  O   UNL     1      -9.693   9.458  71.660  1.00  0.00    -0.241 OA 
HETATM   11  O   UNL     1      -8.234   9.519  69.943  1.00  0.00    -0.124 OA 
BRANCH   8  12
HETATM   12  C   UNL     1     -11.841  11.188  69.627  1.00  0.00    -0.348 A  
HETATM   13  C   UNL     1     -11.743  12.529  70.026  1.00  0.00    -0.297 A  
HETATM   14  C   UNL     1     -12.587  10.294  70.414  1.00  0.00    -0.277 A  
HETATM   15  C   UNL     1     -12.420  12.971  71.171  1.00  0.00    -0.364 A  
HETATM   16  C   UNL     1     -13.195  12.087  71.920  1.00  0.00    -0.469 A  
HETATM   17  C   UNL     1     -13.274  10.745  71.540  1.00  0.00    -0.434 A  
ENDBRANCH   8  12
BRANCH   8  18
HETATM   18  N   UNL     1     -10.740  11.911  67.653  1.00  0.00    -0.208 NA 
HETATM   19  H   UNL     1     -10.038  12.530  68.059  1.00  0.00     0.000 HD 
BRANCH  18  20
HETATM   20  C   UNL     1     -11.236  12.172  66.352  1.00  0.00    -0.331 A  
HETATM   21  C   UNL     1     -11.297  11.885  63.938  1.00  0.00    -0.509 A  
HETATM   22  C   UNL     1     -12.237  12.905  63.819  1.00  0.00    -0.555 A  
HETATM   23  C   UNL     1     -10.832  11.494  65.199  1.00  0.00    -0.326 A  
HETATM   24  C   UNL     1     -12.750  13.503  64.965  1.00  0.00    -0.399 A  
HETATM   25  C   UNL     1     -12.262  13.125  66.220  1.00  0.00    -0.423 A  
ENDBRANCH  18  20
ENDBRANCH   8  18
ENDBRANCH   3   4
ENDBRANCH   2   3
TORSDOF 5
ENDMDL
MODEL       34
REMARK 921   NORMALIZED FREE ENERGY PREDICTED BY IDOCK:   -5.14 KCAL/MOL
REMARK 922        TOTAL FREE ENERGY PREDICTED BY IDOCK:   -7.65 KCAL/MOL
REMARK 923 INTER-LIGAND FREE ENERGY PREDICTED BY IDOCK:   -6.83 KCAL/MOL
REMARK 924 INTRA-LIGAND FREE ENERGY PREDICTED BY IDOCK:   -0.82 KCAL/MOL
REMARK 927      BINDING AFFINITY PREDICTED BY RF-SCORE:    0.00 PKD
ROOT
HETATM    1  C   UNL     1     -10.601  12.219  63.647  1.00  0.00    -0.501 C  
HETATM    2  C   UNL     1      -9.776  11.103  63.018  1.00  0.00    -0.384 C  
ENDROOT
BRANCH   2   3
HETATM    3  C   UNL     1      -9.289  10.116  64.081  1.00  0.00    -0.340 C  
BRANCH   3   4
HETATM    4  C   UNL     1     -10.029  10.271  65.420  1.00  0.00    -0.371 C  
HETATM    5  C   UNL     1      -9.868   9.038  66.343  1.00  0.00    -0.356 C  
HETATM    6  C   UNL     1      -8.390   8.818  66.595  1.00  0.00    -0.108 C  
HETATM    7  C   UNL     1     -10.557   9.218  67.699  1.00  0.00    -0.261 C  
HETATM    8  N   UNL     1     -10.745   8.077  68.522  1.00  0.00    -0.087 N  
HETATM    9  O   UNL     1     -10.784  10.381  68.061  1.00  0.00    -0.210 OA 
HETATM   10  O   UNL     1      -7.761   7.879  66.130  1.00  0.00    -0.087 OA 
HETATM   11  O   UNL     1      -7.808   9.770  67.356  1.00  0.00    -0.098 OA 
BRANCH   8  12
HETATM   12  C   UNL     1     -10.323   6.771  68.117  1.00  0.00    -0.188 A  
HETATM   13  C   UNL     1     -10.903   6.194  66.978  1.00  0.00    -0.435 A  
HETATM   14  C   UNL     1      -9.313   6.071  68.799  1.00  0.00    -0.128 A  
HETATM   15  C   UNL     1     -10.444   4.956  66.508  1.00  0.00    -0.299 A  
HETATM   16  C   UNL     1      -9.411   4.290  67.166  1.00  0.00    -0.187 A  
HETATM   17  C   UNL     1      -8.848   4.848  68.315  1.00  0.00    -0.114 A  
ENDBRANCH   8  12
BRANCH   8  18
HETATM   18  N   UNL     1     -10.670   8.242  69.948  1.00  0.00    -0.240 NA 
HETATM   19  H   UNL     1      -9.759   8.319  70.400  1.00  0.00     0.000 HD 
BRANCH  18  20
HETATM   20  C   UNL     1     -11.849   8.297  70.731  1.00  0.00    -0.162 A  
HETATM   21  C   UNL     1     -13.840   7.346  71.755  1.00  0.00    -0.438 A  
HETATM   22  C   UNL     1     -14.239   8.603  72.197  1.00  0.00    -0.520 A  
HETATM   23  C   UNL     1     -12.632   7.188  71.063  1.00  0.00    -0.335 A  
HETATM   24  C   UNL     1     -13.408   9.700  71.991  1.00  0.00    -0.547 A  
HETATM   25  C   UNL     1     -12.216   9.540  71.278  1.00  0.00    -0.433 A  
ENDBRANCH  18  20
ENDBRANCH   8  18
ENDBRANCH   3   4
ENDBRANCH   2   3
TORSDOF 5
ENDMDL
MODEL       35
REMARK 921   NORMALIZED FREE ENERGY PREDICTED BY IDOCK:   -5.13 KCAL/MOL
REMARK 922        TOTAL FREE ENERGY PREDICTED BY IDOCK:   -7.63 KCAL/MOL
REMARK 923 INTER-LIGAND FREE ENERGY PREDICTED BY IDOCK:   -7.19 KCAL/MOL
REMARK 924 INTRA-LIGAND FREE ENERGY PREDICTED BY IDOCK:   -0.44 KCAL/MOL
REMARK 927      BINDING AFFINITY PREDICTED BY RF-SCORE:    0.00 PKD
ROOT
HETATM    1  C   UNL     1     -11.728  12.439  65.472  1.00  0.00    -0.459 C  
HETATM    2  C   UNL     1     -12.124  13.491  66.500  1.00  0.00    -0.460 C  
ENDROOT
BRANCH   2   3
HETATM    3  C   UNL     1     -11.660  13.088  67.902  1.00  0.00    -0.385 C  
BRANCH   3   4
HETATM    4  C   UNL     1     -10.203  13.489  68.184  1.00  0.00    -0.249 C  
HETATM    5  C   UNL     1     -10.004  15.023  68.258  1.00  0.00    -0.225 C  
HETATM    6  C   UNL     1     -10.907  15.572  69.344  1.00  0.00    -0.261 C  
HETATM    7  C   UNL     1      -8.563  15.419  68.597  1.00  0.00    -0.179 C  
HETATM    8  N   UNL     1      -8.168  16.769  68.410  1.00  0.00    -0.215 N  
HETATM    9  O   UNL     1      -7.864  14.560  69.153  1.00  0.00    -0.134 OA 
HETATM   10  O   UNL     1     -11.896  16.252  69.115  1.00  0.00    -0.249 OA 
HETATM   11  O   UNL     1     -10.548  15.218  70.597  1.00  0.00    -0.255 OA 
BRANCH   8  12
HETATM   12  C   UNL     1      -9.068  17.760  67.906  1.00  0.00    -0.259 A  
HETATM   13  C   UNL     1      -9.509  17.663  66.578  1.00  0.00    -0.294 A  
HETATM   14  C   UNL     1      -9.558  18.800  68.714  1.00  0.00    -0.411 A  
HETATM   15  C   UNL     1     -10.458  18.569  66.086  1.00  0.00    -0.447 A  
HETATM   16  C   UNL     1     -10.973  19.569  66.909  1.00  0.00    -0.422 A  
HETATM   17  C   UNL     1     -10.518  19.686  68.224  1.00  0.00    -0.453 A  
ENDBRANCH   8  12
BRANCH   8  18
HETATM   18  N   UNL     1      -7.210  17.334  69.321  1.00  0.00    -0.180 NA 
HETATM   19  H   UNL     1      -7.034  16.877  70.216  1.00  0.00     0.000 HD 
BRANCH  18  20
HETATM   20  C   UNL     1      -6.510  18.520  68.989  1.00  0.00    -0.252 A  
HETATM   21  C   UNL     1      -5.653  20.751  69.437  1.00  0.00    -0.408 A  
HETATM   22  C   UNL     1      -5.208  20.866  68.124  1.00  0.00    -0.324 A  
HETATM   23  C   UNL     1      -6.262  19.569  69.877  1.00  0.00    -0.328 A  
HETATM   24  C   UNL     1      -5.327  19.783  67.259  1.00  0.00    -0.160 A  
HETATM   25  C   UNL     1      -5.959  18.615  67.697  1.00  0.00    -0.183 A  
ENDBRANCH  18  20
ENDBRANCH   8  18
ENDBRANCH   3   4
ENDBRANCH   2   3
TORSDOF 5
ENDMDL
MODEL       36
REMARK 921   NORMALIZED FREE ENERGY PREDICTED BY IDOCK:   -5.06 KCAL/MOL
REMARK 922        TOTAL FREE ENERGY PREDICTED BY IDOCK:   -7.55 KCAL/MOL
REMARK 923 INTER-LIGAND FREE ENERGY PREDICTED BY IDOCK:   -6.71 KCAL/MOL
REMARK 924 INTRA-LIGAND FREE ENERGY PREDICTED BY IDOCK:   -0.84 KCAL/MOL
REMARK 927      BINDING AFFINITY PREDICTED BY RF-SCORE:    0.00 PKD
ROOT
HETATM    1  C   UNL     1      -8.840  19.156  67.232  1.00  0.00    -0.317 C  
HETATM    2  C   UNL     1      -9.948  18.748  68.194  1.00  0.00    -0.412 C  
ENDROOT
BRANCH   2   3
HETATM    3  C   UNL     1     -10.746  17.566  67.640  1.00  0.00    -0.306 C  
BRANCH   3   4
HETATM    4  C   UNL     1     -11.033  16.492  68.703  1.00  0.00    -0.344 C  
HETATM    5  C   UNL     1     -10.689  15.061  68.221  1.00  0.00    -0.253 C  
HETATM    6  C   UNL     1      -9.223  15.025  67.836  1.00  0.00    -0.182 C  
HETATM    7  C   UNL     1     -10.920  14.000  69.301  1.00  0.00    -0.206 C  
HETATM    8  N   UNL     1     -10.931  12.633  68.919  1.00  0.00    -0.243 N  
HETATM    9  O   UNL     1     -10.942  14.394  70.476  1.00  0.00     0.022 OA 
HETATM   10  O   UNL     1      -8.834  14.927  66.682  1.00  0.00    -0.260 OA 
HETATM   11  O   UNL     1      -8.372  15.143  68.877  1.00  0.00    -0.165 OA 
BRANCH   8  12
HETATM   12  C   UNL     1     -10.745  12.223  67.561  1.00  0.00    -0.225 A  
HETATM   13  C   UNL     1      -9.585  11.512  67.221  1.00  0.00    -0.183 A  
HETATM   14  C   UNL     1     -11.710  12.470  66.570  1.00  0.00    -0.454 A  
HETATM   15  C   UNL     1      -9.421  11.021  65.918  1.00  0.00    -0.244 A  
HETATM   16  C   UNL     1     -10.404  11.233  64.953  1.00  0.00    -0.362 A  
HETATM   17  C   UNL     1     -11.549  11.963  65.281  1.00  0.00    -0.278 A  
ENDBRANCH   8  12
BRANCH   8  18
HETATM   18  N   UNL     1     -10.416  11.659  69.843  1.00  0.00    -0.030 NA 
HETATM   19  H   UNL     1      -9.408  11.559  69.961  1.00  0.00     0.000 HD 
BRANCH  18  20
HETATM   20  C   UNL     1     -11.295  10.838  70.591  1.00  0.00    -0.110 A  
HETATM   21  C   UNL     1     -11.988   8.747  71.620  1.00  0.00    -0.399 A  
HETATM   22  C   UNL     1     -13.213   9.303  71.974  1.00  0.00    -0.519 A  
HETATM   23  C   UNL     1     -11.019   9.523  70.970  1.00  0.00    -0.424 A  
HETATM   24  C   UNL     1     -13.456  10.649  71.723  1.00  0.00    -0.325 A  
HETATM   25  C   UNL     1     -12.495  11.411  71.051  1.00  0.00    -0.486 A  
ENDBRANCH  18  20
ENDBRANCH   8  18
ENDBRANCH   3   4
ENDBRANCH   2   3
TORSDOF 5
ENDMDL
MODEL       37
REMARK 921   NORMALIZED FREE ENERGY PREDICTED BY IDOCK:   -5.01 KCAL/MOL
REMARK 922        TOTAL FREE ENERGY PREDICTED BY IDOCK:   -7.48 KCAL/MOL
REMARK 923 INTER-LIGAND FREE ENERGY PREDICTED BY IDOCK:   -6.69 KCAL/MOL
REMARK 924 INTRA-LIGAND FREE ENERGY PREDICTED BY IDOCK:   -0.79 KCAL/MOL
REMARK 927      BINDING AFFINITY PREDICTED BY RF-SCORE:    0.00 PKD
ROOT
HETATM    1  C   UNL     1      -5.950   9.563  62.831  1.00  0.00    -0.098 C  
HETATM    2  C   UNL     1      -6.073   9.171  64.298  1.00  0.00    -0.072 C  
ENDROOT
BRANCH   2   3
HETATM    3  C   UNL     1      -6.138  10.411  65.193  1.00  0.00    -0.124 C  
BRANCH   3   4
HETATM    4  C   UNL     1      -7.095  10.237  66.383  1.00  0.00    -0.112 C  
HETATM    5  C   UNL     1      -8.432  10.998  66.197  1.00  0.00    -0.168 C  
HETATM    6  C   UNL     1      -9.093  10.501  64.927  1.00  0.00    -0.205 C  
HETATM    7  C   UNL     1      -9.408  10.776  67.356  1.00  0.00    -0.150 C  
HETATM    8  N   UNL     1     -10.536  11.629  67.467  1.00  0.00    -0.195 N  
HETATM    9  O   UNL     1      -9.229   9.766  68.051  1.00  0.00    -0.125 OA 
HETATM   10  O   UNL     1      -9.190  11.174  63.911  1.00  0.00    -0.190 OA 
HETATM   11  O   UNL     1      -9.544   9.230  64.995  1.00  0.00    -0.169 OA 
BRANCH   8  12
HETATM   12  C   UNL     1     -10.778  12.692  66.540  1.00  0.00    -0.250 A  
HETATM   13  C   UNL     1      -9.894  13.781  66.511  1.00  0.00    -0.294 A  
HETATM   14  C   UNL     1     -11.846  12.655  65.627  1.00  0.00    -0.488 A  
HETATM   15  C   UNL     1     -10.057  14.791  65.553  1.00  0.00    -0.409 A  
HETATM   16  C   UNL     1     -11.093  14.722  64.622  1.00  0.00    -0.337 A  
HETATM   17  C   UNL     1     -11.990  13.652  64.664  1.00  0.00    -0.441 A  
ENDBRANCH   8  12
BRANCH   8  18
HETATM   18  N   UNL     1     -11.762  11.080  67.979  1.00  0.00    -0.616 NA 
HETATM   19  H   UNL     1     -12.347  10.502  67.376  1.00  0.00     0.000 HD 
BRANCH  18  20
HETATM   20  C   UNL     1     -12.166  11.336  69.312  1.00  0.00    -0.222 A  
HETATM   21  C   UNL     1     -13.007  10.695  71.502  1.00  0.00    -0.566 A  
HETATM   22  C   UNL     1     -13.069  12.029  71.892  1.00  0.00    -0.475 A  
HETATM   23  C   UNL     1     -12.519  10.349  70.236  1.00  0.00    -0.296 A  
HETATM   24  C   UNL     1     -12.599  13.019  71.035  1.00  0.00    -0.386 A  
HETATM   25  C   UNL     1     -12.137  12.669  69.762  1.00  0.00    -0.301 A  
ENDBRANCH  18  20
ENDBRANCH   8  18
ENDBRANCH   3   4
ENDBRANCH   2   3
TORSDOF 5
ENDMDL
MODEL       38
REMARK 921   NORMALIZED FREE ENERGY PREDICTED BY IDOCK:   -4.98 KCAL/MOL
REMARK 922        TOTAL FREE ENERGY PREDICTED BY IDOCK:   -7.44 KCAL/MOL
REMARK 923 INTER-LIGAND FREE ENERGY PREDICTED BY IDOCK:   -6.41 KCAL/MOL
REMARK 924 INTRA-LIGAND FREE ENERGY PREDICTED BY IDOCK:   -1.04 KCAL/MOL
REMARK 927      BINDING AFFINITY PREDICTED BY RF-SCORE:    0.00 PKD
ROOT
HETATM    1  C   UNL     1     -10.771  12.139  63.400  1.00  0.00    -0.461 C  
HETATM    2  C   UNL     1      -9.600  11.300  62.905  1.00  0.00    -0.377 C  
ENDROOT
BRANCH   2   3
HETATM    3  C   UNL     1      -9.356  10.102  63.826  1.00  0.00    -0.336 C  
BRANCH   3   4
HETATM    4  C   UNL     1     -10.234  10.134  65.087  1.00  0.00    -0.233 C  
HETATM    5  C   UNL     1      -9.409  10.070  66.397  1.00  0.00    -0.211 C  
HETATM    6  C   UNL     1      -8.444  11.239  66.413  1.00  0.00    -0.169 C  
HETATM    7  C   UNL     1     -10.282  10.161  67.653  1.00  0.00    -0.203 C  
HETATM    8  N   UNL     1      -9.706   9.823  68.905  1.00  0.00    -0.165 N  
HETATM    9  O   UNL     1     -11.406  10.664  67.517  1.00  0.00    -0.408 OA 
HETATM   10  O   UNL     1      -7.236  11.114  66.279  1.00  0.00    -0.122 OA 
HETATM   11  O   UNL     1      -9.034  12.445  66.554  1.00  0.00    -0.207 OA 
BRANCH   8  12
HETATM   12  C   UNL     1      -8.347   9.392  69.025  1.00  0.00    -0.124 A  
HETATM   13  C   UNL     1      -7.429  10.222  69.686  1.00  0.00    -0.159 A  
HETATM   14  C   UNL     1      -7.916   8.145  68.542  1.00  0.00    -0.126 A  
HETATM   15  C   UNL     1      -6.114   9.784  69.895  1.00  0.00    -0.045 A  
HETATM   16  C   UNL     1      -5.708   8.527  69.451  1.00  0.00    -0.031 A  
HETATM   17  C   UNL     1      -6.612   7.708  68.770  1.00  0.00    -0.049 A  
ENDBRANCH   8  12
BRANCH   8  18
HETATM   18  N   UNL     1     -10.141  10.539  70.074  1.00  0.00    -0.416 NA 
HETATM   19  H   UNL     1      -9.707  11.431  70.311  1.00  0.00     0.000 HD 
BRANCH  18  20
HETATM   20  C   UNL     1     -11.167  10.017  70.900  1.00  0.00    -0.341 A  
HETATM   21  C   UNL     1     -13.386  10.018  71.894  1.00  0.00    -0.516 A  
HETATM   22  C   UNL     1     -13.052   8.930  72.694  1.00  0.00    -0.349 A  
HETATM   23  C   UNL     1     -12.463  10.531  70.973  1.00  0.00    -0.501 A  
HETATM   24  C   UNL     1     -11.811   8.320  72.541  1.00  0.00    -0.439 A  
HETATM   25  C   UNL     1     -10.885   8.853  71.639  1.00  0.00    -0.420 A  
ENDBRANCH  18  20
ENDBRANCH   8  18
ENDBRANCH   3   4
ENDBRANCH   2   3
TORSDOF 5
ENDMDL
MODEL       39
REMARK 921   NORMALIZED FREE ENERGY PREDICTED BY IDOCK:   -4.98 KCAL/MOL
REMARK 922        TOTAL FREE ENERGY PREDICTED BY IDOCK:   -7.44 KCAL/MOL
REMARK 923 INTER-LIGAND FREE ENERGY PREDICTED BY IDOCK:   -6.47 KCAL/MOL
REMARK 924 INTRA-LIGAND FREE ENERGY PREDICTED BY IDOCK:   -0.97 KCAL/MOL
REMARK 927      BINDING AFFINITY PREDICTED BY RF-SCORE:    0.00 PKD
ROOT
HETATM    1  C   UNL     1     -11.462  14.756  68.303  1.00  0.00    -0.338 C  
HETATM    2  C   UNL     1     -10.180  14.355  67.585  1.00  0.00    -0.229 C  
ENDROOT
BRANCH   2   3
HETATM    3  C   UNL     1      -9.450  13.246  68.347  1.00  0.00    -0.172 C  
BRANCH   3   4
HETATM    4  C   UNL     1      -9.557  11.879  67.653  1.00  0.00    -0.185 C  
HETATM    5  C   UNL     1      -9.995  10.747  68.616  1.00  0.00    -0.189 C  
HETATM    6  C   UNL     1     -11.333  11.124  69.221  1.00  0.00    -0.281 C  
HETATM    7  C   UNL     1     -10.159   9.398  67.911  1.00  0.00    -0.194 C  
HETATM    8  N   UNL     1     -10.265   8.225  68.704  1.00  0.00    -0.201 N  
HETATM    9  O   UNL     1     -10.332   9.425  66.684  1.00  0.00    -0.249 OA 
HETATM   10  O   UNL     1     -11.475  11.443  70.392  1.00  0.00    -0.247 OA 
HETATM   11  O   UNL     1     -12.362  11.112  68.346  1.00  0.00    -0.556 OA 
BRANCH   8  12
HETATM   12  C   UNL     1     -10.212   8.268  70.133  1.00  0.00    -0.199 A  
HETATM   13  C   UNL     1     -11.409   8.172  70.858  1.00  0.00    -0.286 A  
HETATM   14  C   UNL     1      -8.996   8.358  70.831  1.00  0.00    -0.188 A  
HETATM   15  C   UNL     1     -11.378   8.122  72.259  1.00  0.00    -0.429 A  
HETATM   16  C   UNL     1     -10.163   8.166  72.941  1.00  0.00    -0.341 A  
HETATM   17  C   UNL     1      -8.971   8.287  72.223  1.00  0.00    -0.280 A  
ENDBRANCH   8  12
BRANCH   8  18
HETATM   18  N   UNL     1     -11.103   7.155  68.235  1.00  0.00    -0.479 NA 
HETATM   19  H   UNL     1     -12.096   7.325  68.075  1.00  0.00     0.000 HD 
BRANCH  18  20
HETATM   20  C   UNL     1     -10.563   5.868  67.994  1.00  0.00    -0.252 A  
HETATM   21  C   UNL     1      -9.589   3.745  68.669  1.00  0.00    -0.173 A  
HETATM   22  C   UNL     1      -9.381   3.393  67.339  1.00  0.00    -0.243 A  
HETATM   23  C   UNL     1     -10.215   4.956  68.992  1.00  0.00    -0.164 A  
HETATM   24  C   UNL     1      -9.841   4.229  66.327  1.00  0.00    -0.234 A  
HETATM   25  C   UNL     1     -10.441   5.449  66.656  1.00  0.00    -0.356 A  
ENDBRANCH  18  20
ENDBRANCH   8  18
ENDBRANCH   3   4
ENDBRANCH   2   3
TORSDOF 5
ENDMDL
MODEL       40
REMARK 921   NORMALIZED FREE ENERGY PREDICTED BY IDOCK:   -4.93 KCAL/MOL
REMARK 922        TOTAL FREE ENERGY PREDICTED BY IDOCK:   -7.37 KCAL/MOL
REMARK 923 INTER-LIGAND FREE ENERGY PREDICTED BY IDOCK:   -7.12 KCAL/MOL
REMARK 924 INTRA-LIGAND FREE ENERGY PREDICTED BY IDOCK:   -0.25 KCAL/MOL
REMARK 927      BINDING AFFINITY PREDICTED BY RF-SCORE:    0.00 PKD
ROOT
HETATM    1  C   UNL     1      -5.545  13.907  71.436  1.00  0.00    -0.231 C  
HETATM    2  C   UNL     1      -5.137  15.296  70.961  1.00  0.00    -0.147 C  
ENDROOT
BRANCH   2   3
HETATM    3  C   UNL     1      -5.943  15.712  69.728  1.00  0.00    -0.151 C  
BRANCH   3   4
HETATM    4  C   UNL     1      -7.384  15.177  69.752  1.00  0.00    -0.141 C  
HETATM    5  C   UNL     1      -8.351  16.011  68.874  1.00  0.00    -0.231 C  
HETATM    6  C   UNL     1      -7.826  16.011  67.452  1.00  0.00    -0.161 C  
HETATM    7  C   UNL     1      -9.773  15.442  68.853  1.00  0.00    -0.220 C  
HETATM    8  N   UNL     1     -10.820  16.251  68.340  1.00  0.00    -0.318 N  
HETATM    9  O   UNL     1      -9.902  14.247  69.156  1.00  0.00    -0.125 OA 
HETATM   10  O   UNL     1      -7.346  16.997  66.914  1.00  0.00    -0.167 OA 
HETATM   11  O   UNL     1      -7.903  14.814  66.831  1.00  0.00    -0.128 OA 
BRANCH   8  12
HETATM   12  C   UNL     1     -10.587  17.578  67.857  1.00  0.00    -0.390 A  
HETATM   13  C   UNL     1     -10.260  18.586  68.776  1.00  0.00    -0.326 A  
HETATM   14  C   UNL     1     -10.631  17.890  66.488  1.00  0.00    -0.238 A  
HETATM   15  C   UNL     1      -9.940  19.872  68.320  1.00  0.00    -0.552 A  
HETATM   16  C   UNL     1      -9.942  20.160  66.957  1.00  0.00    -0.596 A  
HETATM   17  C   UNL     1     -10.292  19.166  66.040  1.00  0.00    -0.538 A  
ENDBRANCH   8  12
BRANCH   8  18
HETATM   18  N   UNL     1     -11.898  15.611  67.637  1.00  0.00    -0.138 NA 
HETATM   19  H   UNL     1     -12.856  15.932  67.779  1.00  0.00     0.000 HD 
BRANCH  18  20
HETATM   20  C   UNL     1     -11.643  14.538  66.748  1.00  0.00    -0.376 A  
HETATM   21  C   UNL     1     -11.594  12.192  66.111  1.00  0.00    -0.418 A  
HETATM   22  C   UNL     1     -10.948  12.507  64.919  1.00  0.00    -0.335 A  
HETATM   23  C   UNL     1     -11.976  13.205  66.999  1.00  0.00    -0.412 A  
HETATM   24  C   UNL     1     -10.726  13.840  64.590  1.00  0.00    -0.427 A  
HETATM   25  C   UNL     1     -11.086  14.845  65.492  1.00  0.00    -0.353 A  
ENDBRANCH  18  20
ENDBRANCH   8  18
ENDBRANCH   3   4
ENDBRANCH   2   3
TORSDOF 5
ENDMDL
MODEL       41
REMARK 921   NORMALIZED FREE ENERGY PREDICTED BY IDOCK:   -4.93 KCAL/MOL
REMARK 922        TOTAL FREE ENERGY PREDICTED BY IDOCK:   -7.37 KCAL/MOL
REMARK 923 INTER-LIGAND FREE ENERGY PREDICTED BY IDOCK:   -7.23 KCAL/MOL
REMARK 924 INTRA-LIGAND FREE ENERGY PREDICTED BY IDOCK:   -0.14 KCAL/MOL
REMARK 927      BINDING AFFINITY PREDICTED BY RF-SCORE:    0.00 PKD
ROOT
HETATM    1  C   UNL     1     -12.374  15.796  72.149  1.00  0.00    -0.539 C  
HETATM    2  C   UNL     1     -13.170  15.401  70.912  1.00  0.00    -0.512 C  
ENDROOT
BRANCH   2   3
HETATM    3  C   UNL     1     -12.238  15.032  69.756  1.00  0.00    -0.324 C  
BRANCH   3   4
HETATM    4  C   UNL     1     -11.822  13.552  69.776  1.00  0.00    -0.395 C  
HETATM    5  C   UNL     1     -11.338  13.044  68.395  1.00  0.00    -0.326 C  
HETATM    6  C   UNL     1     -10.168  13.900  67.953  1.00  0.00    -0.241 C  
HETATM    7  C   UNL     1     -10.869  11.586  68.430  1.00  0.00    -0.211 C  
HETATM    8  N   UNL     1     -10.680  10.903  67.200  1.00  0.00    -0.255 N  
HETATM    9  O   UNL     1     -10.544  11.130  69.536  1.00  0.00    -0.194 OA 
HETATM   10  O   UNL     1     -10.233  14.703  67.033  1.00  0.00    -0.257 OA 
HETATM   11  O   UNL     1      -9.046  13.729  68.684  1.00  0.00    -0.163 OA 
BRANCH   8  12
HETATM   12  C   UNL     1     -10.925  11.531  65.938  1.00  0.00    -0.243 A  
HETATM   13  C   UNL     1     -12.109  12.263  65.764  1.00  0.00    -0.287 A  
HETATM   14  C   UNL     1      -9.995  11.477  64.886  1.00  0.00    -0.303 A  
HETATM   15  C   UNL     1     -12.332  12.961  64.569  1.00  0.00    -0.483 A  
HETATM   16  C   UNL     1     -11.383  12.938  63.549  1.00  0.00    -0.408 A  
HETATM   17  C   UNL     1     -10.214  12.190  63.709  1.00  0.00    -0.449 A  
ENDBRANCH   8  12
BRANCH   8  18
HETATM   18  N   UNL     1      -9.628   9.928  67.114  1.00  0.00    -0.158 NA 
HETATM   19  H   UNL     1      -8.724  10.194  66.723  1.00  0.00     0.000 HD 
BRANCH  18  20
HETATM   20  C   UNL     1      -9.834   8.601  67.564  1.00  0.00    -0.180 A  
HETATM   21  C   UNL     1     -10.952   6.441  67.563  1.00  0.00    -0.454 A  
HETATM   22  C   UNL     1     -10.210   6.034  68.668  1.00  0.00    -0.233 A  
HETATM   23  C   UNL     1     -10.734   7.701  66.990  1.00  0.00    -0.340 A  
HETATM   24  C   UNL     1      -9.216   6.865  69.173  1.00  0.00    -0.141 A  
HETATM   25  C   UNL     1      -9.022   8.131  68.613  1.00  0.00    -0.137 A  
ENDBRANCH  18  20
ENDBRANCH   8  18
ENDBRANCH   3   4
ENDBRANCH   2   3
TORSDOF 5
ENDMDL
MODEL       42
REMARK 921   NORMALIZED FREE ENERGY PREDICTED BY IDOCK:   -4.91 KCAL/MOL
REMARK 922        TOTAL FREE ENERGY PREDICTED BY IDOCK:   -7.35 KCAL/MOL
REMARK 923 INTER-LIGAND FREE ENERGY PREDICTED BY IDOCK:   -6.52 KCAL/MOL
REMARK 924 INTRA-LIGAND FREE ENERGY PREDICTED BY IDOCK:   -0.83 KCAL/MOL
REMARK 927      BINDING AFFINITY PREDICTED BY RF-SCORE:    0.00 PKD
ROOT
HETATM    1  C   UNL     1     -13.053   8.972  72.214  1.00  0.00    -0.508 C  
HETATM    2  C   UNL     1     -11.670   8.364  72.410  1.00  0.00    -0.452 C  
ENDROOT
BRANCH   2   3
HETATM    3  C   UNL     1     -10.611   9.152  71.635  1.00  0.00    -0.427 C  
BRANCH   3   4
HETATM    4  C   UNL     1     -11.216  10.030  70.527  1.00  0.00    -0.408 C  
HETATM    5  C   UNL     1     -10.195  10.389  69.419  1.00  0.00    -0.257 C  
HETATM    6  C   UNL     1      -9.663   9.101  68.823  1.00  0.00    -0.162 C  
HETATM    7  C   UNL     1     -10.814  11.214  68.287  1.00  0.00    -0.212 C  
HETATM    8  N   UNL     1      -9.949  11.859  67.364  1.00  0.00    -0.189 N  
HETATM    9  O   UNL     1     -12.046  11.152  68.158  1.00  0.00    -0.633 OA 
HETATM   10  O   UNL     1      -8.521   8.703  68.996  1.00  0.00    -0.122 OA 
HETATM   11  O   UNL     1     -10.569   8.405  68.103  1.00  0.00    -0.197 OA 
BRANCH   8  12
HETATM   12  C   UNL     1      -8.525  11.770  67.470  1.00  0.00    -0.154 A  
HETATM   13  C   UNL     1      -7.883  12.418  68.536  1.00  0.00    -0.112 A  
HETATM   14  C   UNL     1      -7.757  11.016  66.568  1.00  0.00    -0.154 A  
HETATM   15  C   UNL     1      -6.501  12.273  68.714  1.00  0.00    -0.082 A  
HETATM   16  C   UNL     1      -5.754  11.486  67.839  1.00  0.00    -0.045 A  
HETATM   17  C   UNL     1      -6.385  10.860  66.762  1.00  0.00    -0.097 A  
ENDBRANCH   8  12
BRANCH   8  18
HETATM   18  N   UNL     1     -10.374  11.979  65.996  1.00  0.00    -0.231 NA 
HETATM   19  H   UNL     1     -10.317  11.171  65.377  1.00  0.00     0.000 HD 
BRANCH  18  20
HETATM   20  C   UNL     1     -10.871  13.210  65.501  1.00  0.00    -0.283 A  
HETATM   21  C   UNL     1     -12.505  14.611  64.370  1.00  0.00    -0.312 A  
HETATM   22  C   UNL     1     -11.652  15.707  64.450  1.00  0.00    -0.250 A  
HETATM   23  C   UNL     1     -12.134  13.382  64.930  1.00  0.00    -0.430 A  
HETATM   24  C   UNL     1     -10.445  15.591  65.131  1.00  0.00    -0.431 A  
HETATM   25  C   UNL     1     -10.068  14.354  65.665  1.00  0.00    -0.377 A  
ENDBRANCH  18  20
ENDBRANCH   8  18
ENDBRANCH   3   4
ENDBRANCH   2   3
TORSDOF 5
ENDMDL
MODEL       43
REMARK 921   NORMALIZED FREE ENERGY PREDICTED BY IDOCK:   -4.88 KCAL/MOL
REMARK 922        TOTAL FREE ENERGY PREDICTED BY IDOCK:   -7.32 KCAL/MOL
REMARK 923 INTER-LIGAND FREE ENERGY PREDICTED BY IDOCK:   -6.35 KCAL/MOL
REMARK 924 INTRA-LIGAND FREE ENERGY PREDICTED BY IDOCK:   -0.96 KCAL/MOL
REMARK 927      BINDING AFFINITY PREDICTED BY RF-SCORE:    0.00 PKD
ROOT
HETATM    1  C   UNL     1      -6.150   6.792  69.707  1.00  0.00    -0.027 C  
HETATM    2  C   UNL     1      -6.666   6.620  71.130  1.00  0.00    -0.058 C  
ENDROOT
BRANCH   2   3
HETATM    3  C   UNL     1      -8.122   6.149  71.131  1.00  0.00    -0.121 C  
BRANCH   3   4
HETATM    4  C   UNL     1      -9.093   7.219  71.655  1.00  0.00    -0.143 C  
HETATM    5  C   UNL     1      -9.583   8.183  70.545  1.00  0.00    -0.177 C  
HETATM    6  C   UNL     1     -10.257   7.363  69.463  1.00  0.00    -0.204 C  
HETATM    7  C   UNL     1     -10.595   9.211  71.058  1.00  0.00    -0.292 C  
HETATM    8  N   UNL     1     -10.904  10.328  70.237  1.00  0.00    -0.298 N  
HETATM    9  O   UNL     1     -11.196   8.931  72.105  1.00  0.00    -0.360 OA 
HETATM   10  O   UNL     1      -9.776   7.191  68.353  1.00  0.00    -0.140 OA 
HETATM   11  O   UNL     1     -11.428   6.804  69.837  1.00  0.00    -0.323 OA 
BRANCH   8  12
HETATM   12  C   UNL     1     -10.290  10.523  68.960  1.00  0.00    -0.213 A  
HETATM   13  C   UNL     1      -8.932  10.871  68.906  1.00  0.00    -0.146 A  
HETATM   14  C   UNL     1     -10.993  10.331  67.759  1.00  0.00    -0.360 A  
HETATM   15  C   UNL     1      -8.285  10.981  67.668  1.00  0.00    -0.117 A  
HETATM   16  C   UNL     1      -8.981  10.744  66.483  1.00  0.00    -0.168 A  
HETATM   17  C   UNL     1     -10.339  10.422  66.531  1.00  0.00    -0.287 A  
ENDBRANCH   8  12
BRANCH   8  18
HETATM   18  N   UNL     1     -12.241  10.853  70.271  1.00  0.00    -0.322 NA 
HETATM   19  H   UNL     1     -13.019  10.275  69.955  1.00  0.00     0.000 HD 
BRANCH  18  20
HETATM   20  C   UNL     1     -12.489  12.168  70.737  1.00  0.00    -0.271 A  
HETATM   21  C   UNL     1     -12.329  14.592  70.628  1.00  0.00    -0.398 A  
HETATM   22  C   UNL     1     -12.944  14.709  71.871  1.00  0.00    -0.406 A  
HETATM   23  C   UNL     1     -12.141  13.331  70.047  1.00  0.00    -0.385 A  
HETATM   24  C   UNL     1     -13.417  13.570  72.514  1.00  0.00    -0.660 A  
HETATM   25  C   UNL     1     -13.203  12.313  71.941  1.00  0.00    -0.481 A  
ENDBRANCH  18  20
ENDBRANCH   8  18
ENDBRANCH   3   4
ENDBRANCH   2   3
TORSDOF 5
ENDMDL
MODEL       44
REMARK 921   NORMALIZED FREE ENERGY PREDICTED BY IDOCK:   -4.85 KCAL/MOL
REMARK 922        TOTAL FREE ENERGY PREDICTED BY IDOCK:   -7.28 KCAL/MOL
REMARK 923 INTER-LIGAND FREE ENERGY PREDICTED BY IDOCK:   -6.24 KCAL/MOL
REMARK 924 INTRA-LIGAND FREE ENERGY PREDICTED BY IDOCK:   -1.04 KCAL/MOL
REMARK 927      BINDING AFFINITY PREDICTED BY RF-SCORE:    0.00 PKD
ROOT
HETATM    1  C   UNL     1     -11.006   7.786  72.872  1.00  0.00    -0.467 C  
HETATM    2  C   UNL     1      -9.494   7.613  72.934  1.00  0.00    -0.262 C  
ENDROOT
BRANCH   2   3
HETATM    3  C   UNL     1      -8.800   8.481  71.882  1.00  0.00    -0.284 C  
BRANCH   3   4
HETATM    4  C   UNL     1      -9.741   9.522  71.255  1.00  0.00    -0.040 C  
HETATM    5  C   UNL     1      -9.657   9.556  69.708  1.00  0.00    -0.235 C  
HETATM    6  C   UNL     1      -9.991   8.176  69.180  1.00  0.00    -0.192 C  
HETATM    7  C   UNL     1     -10.638  10.552  69.083  1.00  0.00    -0.229 C  
HETATM    8  N   UNL     1     -10.471  10.904  67.718  1.00  0.00    -0.192 N  
HETATM    9  O   UNL     1     -11.613  10.886  69.772  1.00  0.00    -0.264 OA 
HETATM   10  O   UNL     1      -9.164   7.433  68.672  1.00  0.00    -0.144 OA 
HETATM   11  O   UNL     1     -11.281   7.814  69.346  1.00  0.00    -0.026 OA 
BRANCH   8  12
HETATM   12  C   UNL     1      -9.412  10.366  66.920  1.00  0.00    -0.168 A  
HETATM   13  C   UNL     1      -9.706   9.347  66.001  1.00  0.00    -0.345 A  
HETATM   14  C   UNL     1      -8.099  10.859  66.995  1.00  0.00    -0.131 A  
HETATM   15  C   UNL     1      -8.706   8.865  65.146  1.00  0.00    -0.213 A  
HETATM   16  C   UNL     1      -7.416   9.393  65.197  1.00  0.00    -0.105 A  
HETATM   17  C   UNL     1      -7.113  10.389  66.128  1.00  0.00    -0.130 A  
ENDBRANCH   8  12
BRANCH   8  18
HETATM   18  N   UNL     1     -11.644  11.173  66.932  1.00  0.00    -0.382 NA 
HETATM   19  H   UNL     1     -12.414  10.505  66.928  1.00  0.00     0.000 HD 
BRANCH  18  20
HETATM   20  C   UNL     1     -11.740  12.359  66.162  1.00  0.00    -0.400 A  
HETATM   21  C   UNL     1     -12.267  13.625  64.154  1.00  0.00    -0.450 A  
HETATM   22  C   UNL     1     -11.736  14.781  64.718  1.00  0.00    -0.422 A  
HETATM   23  C   UNL     1     -12.307  12.432  64.888  1.00  0.00    -0.475 A  
HETATM   24  C   UNL     1     -11.287  14.760  66.034  1.00  0.00    -0.332 A  
HETATM   25  C   UNL     1     -11.305  13.560  66.752  1.00  0.00    -0.351 A  
ENDBRANCH  18  20
ENDBRANCH   8  18
ENDBRANCH   3   4
ENDBRANCH   2   3
TORSDOF 5
ENDMDL
MODEL       45
REMARK 921   NORMALIZED FREE ENERGY PREDICTED BY IDOCK:   -4.84 KCAL/MOL
REMARK 922        TOTAL FREE ENERGY PREDICTED BY IDOCK:   -7.26 KCAL/MOL
REMARK 923 INTER-LIGAND FREE ENERGY PREDICTED BY IDOCK:   -6.19 KCAL/MOL
REMARK 924 INTRA-LIGAND FREE ENERGY PREDICTED BY IDOCK:   -1.07 KCAL/MOL
REMARK 927      BINDING AFFINITY PREDICTED BY RF-SCORE:    0.00 PKD
ROOT
HETATM    1  C   UNL     1      -9.381   3.174  69.355  1.00  0.00    -0.225 C  
HETATM    2  C   UNL     1      -9.645   4.066  70.561  1.00  0.00    -0.261 C  
ENDROOT
BRANCH   2   3
HETATM    3  C   UNL     1      -8.860   5.376  70.456  1.00  0.00    -0.148 C  
BRANCH   3   4
HETATM    4  C   UNL     1      -9.748   6.617  70.642  1.00  0.00    -0.183 C  
HETATM    5  C   UNL     1      -9.730   7.560  69.413  1.00  0.00    -0.164 C  
HETATM    6  C   UNL     1     -10.191   6.776  68.201  1.00  0.00    -0.174 C  
HETATM    7  C   UNL     1     -10.660   8.766  69.577  1.00  0.00    -0.219 C  
HETATM    8  N   UNL     1     -10.527   9.854  68.675  1.00  0.00    -0.198 N  
HETATM    9  O   UNL     1     -11.574   8.658  70.406  1.00  0.00    -0.209 OA 
HETATM   10  O   UNL     1      -9.446   6.452  67.287  1.00  0.00    -0.120 OA 
HETATM   11  O   UNL     1     -11.496   6.431  68.225  1.00  0.00    -0.186 OA 
BRANCH   8  12
HETATM   12  C   UNL     1      -9.548   9.859  67.631  1.00  0.00    -0.148 A  
HETATM   13  C   UNL     1      -9.970   9.680  66.305  1.00  0.00    -0.335 A  
HETATM   14  C   UNL     1      -8.186  10.084  67.889  1.00  0.00    -0.113 A  
HETATM   15  C   UNL     1      -9.044   9.769  65.257  1.00  0.00    -0.259 A  
HETATM   16  C   UNL     1      -7.702  10.038  65.520  1.00  0.00    -0.135 A  
HETATM   17  C   UNL     1      -7.273  10.192  66.840  1.00  0.00    -0.092 A  
ENDBRANCH   8  12
BRANCH   8  18
HETATM   18  N   UNL     1     -11.710  10.578  68.297  1.00  0.00    -0.744 NA 
HETATM   19  H   UNL     1     -12.506  10.076  67.903  1.00  0.00     0.000 HD 
BRANCH  18  20
HETATM   20  C   UNL     1     -11.781  11.983  68.467  1.00  0.00    -0.332 A  
HETATM   21  C   UNL     1     -11.691  14.286  67.692  1.00  0.00    -0.421 A  
HETATM   22  C   UNL     1     -11.813  14.752  68.997  1.00  0.00    -0.337 A  
HETATM   23  C   UNL     1     -11.718  12.911  67.426  1.00  0.00    -0.428 A  
HETATM   24  C   UNL     1     -12.010  13.847  70.035  1.00  0.00    -0.404 A  
HETATM   25  C   UNL     1     -12.009  12.475  69.766  1.00  0.00    -0.359 A  
ENDBRANCH  18  20
ENDBRANCH   8  18
ENDBRANCH   3   4
ENDBRANCH   2   3
TORSDOF 5
ENDMDL
MODEL       46
REMARK 921   NORMALIZED FREE ENERGY PREDICTED BY IDOCK:   -4.83 KCAL/MOL
REMARK 922        TOTAL FREE ENERGY PREDICTED BY IDOCK:   -7.25 KCAL/MOL
REMARK 923 INTER-LIGAND FREE ENERGY PREDICTED BY IDOCK:   -7.52 KCAL/MOL
REMARK 924 INTRA-LIGAND FREE ENERGY PREDICTED BY IDOCK:    0.28 KCAL/MOL
REMARK 927      BINDING AFFINITY PREDICTED BY RF-SCORE:    0.00 PKD
ROOT
HETATM    1  C   UNL     1     -10.737  11.119  66.118  1.00  0.00    -0.285 C  
HETATM    2  C   UNL     1     -11.286  12.152  65.143  1.00  0.00    -0.379 C  
ENDROOT
BRANCH   2   3
HETATM    3  C   UNL     1     -10.171  13.064  64.626  1.00  0.00    -0.324 C  
BRANCH   3   4
HETATM    4  C   UNL     1     -10.473  14.555  64.844  1.00  0.00    -0.435 C  
HETATM    5  C   UNL     1     -10.597  14.932  66.342  1.00  0.00    -0.307 C  
HETATM    6  C   UNL     1      -9.302  14.563  67.037  1.00  0.00    -0.238 C  
HETATM    7  C   UNL     1     -10.840  16.429  66.559  1.00  0.00    -0.073 C  
HETATM    8  N   UNL     1     -11.263  16.870  67.840  1.00  0.00    -0.151 N  
HETATM    9  O   UNL     1     -10.512  17.188  65.635  1.00  0.00    -0.541 OA 
HETATM   10  O   UNL     1      -9.206  13.639  67.832  1.00  0.00    -0.187 OA 
HETATM   11  O   UNL     1      -8.243  15.322  66.681  1.00  0.00    -0.226 OA 
BRANCH   8  12
HETATM   12  C   UNL     1     -11.479  15.959  68.922  1.00  0.00    -0.386 A  
HETATM   13  C   UNL     1     -11.086  16.339  70.215  1.00  0.00    -0.340 A  
HETATM   14  C   UNL     1     -12.113  14.720  68.738  1.00  0.00    -0.225 A  
HETATM   15  C   UNL     1     -11.366  15.504  71.305  1.00  0.00    -0.449 A  
HETATM   16  C   UNL     1     -12.037  14.296  71.117  1.00  0.00    -0.409 A  
HETATM   17  C   UNL     1     -12.407  13.904  69.829  1.00  0.00    -0.330 A  
ENDBRANCH   8  12
BRANCH   8  18
HETATM   18  N   UNL     1     -10.812  18.153  68.306  1.00  0.00    -0.267 NA 
HETATM   19  H   UNL     1     -11.460  18.768  68.798  1.00  0.00     0.000 HD 
BRANCH  18  20
HETATM   20  C   UNL     1      -9.476  18.571  68.088  1.00  0.00    -0.317 A  
HETATM   21  C   UNL     1      -7.062  18.384  68.319  1.00  0.00    -0.269 A  
HETATM   22  C   UNL     1      -6.886  19.612  67.686  1.00  0.00    -0.270 A  
HETATM   23  C   UNL     1      -8.346  17.849  68.480  1.00  0.00    -0.305 A  
HETATM   24  C   UNL     1      -7.989  20.284  67.171  1.00  0.00    -0.378 A  
HETATM   25  C   UNL     1      -9.270  19.756  67.359  1.00  0.00    -0.433 A  
ENDBRANCH  18  20
ENDBRANCH   8  18
ENDBRANCH   3   4
ENDBRANCH   2   3
TORSDOF 5
ENDMDL
MODEL       47
REMARK 921   NORMALIZED FREE ENERGY PREDICTED BY IDOCK:   -4.81 KCAL/MOL
REMARK 922        TOTAL FREE ENERGY PREDICTED BY IDOCK:   -7.23 KCAL/MOL
REMARK 923 INTER-LIGAND FREE ENERGY PREDICTED BY IDOCK:   -6.24 KCAL/MOL
REMARK 924 INTRA-LIGAND FREE ENERGY PREDICTED BY IDOCK:   -0.98 KCAL/MOL
REMARK 927      BINDING AFFINITY PREDICTED BY RF-SCORE:    0.00 PKD
ROOT
HETATM    1  C   UNL     1      -8.119  20.373  67.556  1.00  0.00    -0.331 C  
HETATM    2  C   UNL     1      -9.003  20.163  66.333  1.00  0.00    -0.362 C  
ENDROOT
BRANCH   2   3
HETATM    3  C   UNL     1     -10.378  19.627  66.737  1.00  0.00    -0.591 C  
BRANCH   3   4
HETATM    4  C   UNL     1     -10.690  18.258  66.112  1.00  0.00    -0.185 C  
HETATM    5  C   UNL     1      -9.907  17.099  66.778  1.00  0.00    -0.288 C  
HETATM    6  C   UNL     1     -10.247  17.080  68.256  1.00  0.00    -0.326 C  
HETATM    7  C   UNL     1     -10.264  15.729  66.194  1.00  0.00    -0.315 C  
HETATM    8  N   UNL     1      -9.425  14.624  66.494  1.00  0.00    -0.282 N  
HETATM    9  O   UNL     1     -11.350  15.638  65.605  1.00  0.00    -0.168 OA 
HETATM   10  O   UNL     1      -9.456  17.400  69.131  1.00  0.00    -0.163 OA 
HETATM   11  O   UNL     1     -11.515  16.707  68.530  1.00  0.00    -0.266 OA 
BRANCH   8  12
HETATM   12  C   UNL     1      -8.258  14.756  67.311  1.00  0.00    -0.213 A  
HETATM   13  C   UNL     1      -8.151  13.973  68.470  1.00  0.00    -0.139 A  
HETATM   14  C   UNL     1      -7.199  15.611  66.965  1.00  0.00    -0.175 A  
HETATM   15  C   UNL     1      -6.981  14.017  69.240  1.00  0.00    -0.084 A  
HETATM   16  C   UNL     1      -5.917  14.836  68.863  1.00  0.00    -0.085 A  
HETATM   17  C   UNL     1      -6.030  15.636  67.724  1.00  0.00    -0.171 A  
ENDBRANCH   8  12
BRANCH   8  18
HETATM   18  N   UNL     1     -10.027  13.326  66.632  1.00  0.00    -0.265 NA 
HETATM   19  H   UNL     1     -10.594  13.117  67.454  1.00  0.00     0.000 HD 
BRANCH  18  20
HETATM   20  C   UNL     1      -9.840  12.333  65.639  1.00  0.00    -0.231 A  
HETATM   21  C   UNL     1     -10.050  11.420  63.395  1.00  0.00    -0.444 A  
HETATM   22  C   UNL     1      -9.515  10.206  63.816  1.00  0.00    -0.330 A  
HETATM   23  C   UNL     1     -10.172  12.489  64.291  1.00  0.00    -0.359 A  
HETATM   24  C   UNL     1      -9.056  10.074  65.122  1.00  0.00    -0.247 A  
HETATM   25  C   UNL     1      -9.204  11.137  66.019  1.00  0.00    -0.223 A  
ENDBRANCH  18  20
ENDBRANCH   8  18
ENDBRANCH   3   4
ENDBRANCH   2   3
TORSDOF 5
ENDMDL
MODEL       48
REMARK 921   NORMALIZED FREE ENERGY PREDICTED BY IDOCK:   -4.80 KCAL/MOL
REMARK 922        TOTAL FREE ENERGY PREDICTED BY IDOCK:   -7.21 KCAL/MOL
REMARK 923 INTER-LIGAND FREE ENERGY PREDICTED BY IDOCK:   -7.10 KCAL/MOL
REMARK 924 INTRA-LIGAND FREE ENERGY PREDICTED BY IDOCK:   -0.11 KCAL/MOL
REMARK 927      BINDING AFFINITY PREDICTED BY RF-SCORE:    0.00 PKD
ROOT
HETATM    1  C   UNL     1      -7.659  18.493  68.306  1.00  0.00    -0.305 C  
HETATM    2  C   UNL     1      -7.836  17.112  68.924  1.00  0.00    -0.217 C  
ENDROOT
BRANCH   2   3
HETATM    3  C   UNL     1      -8.385  16.119  67.898  1.00  0.00    -0.165 C  
BRANCH   3   4
HETATM    4  C   UNL     1      -9.601  15.335  68.420  1.00  0.00    -0.206 C  
HETATM    5  C   UNL     1      -9.876  14.042  67.613  1.00  0.00    -0.233 C  
HETATM    6  C   UNL     1      -8.638  13.169  67.671  1.00  0.00    -0.193 C  
HETATM    7  C   UNL     1     -11.051  13.233  68.171  1.00  0.00    -0.259 C  
HETATM    8  N   UNL     1     -11.600  12.195  67.375  1.00  0.00    -0.343 N  
HETATM    9  O   UNL     1     -11.362  13.442  69.353  1.00  0.00    -0.260 OA 
HETATM   10  O   UNL     1      -7.910  12.972  66.709  1.00  0.00     0.063 OA 
HETATM   11  O   UNL     1      -8.382  12.647  68.889  1.00  0.00     0.078 OA 
BRANCH   8  12
HETATM   12  C   UNL     1     -11.097  11.894  66.069  1.00  0.00    -0.322 A  
HETATM   13  C   UNL     1     -10.343  10.725  65.887  1.00  0.00    -0.302 A  
HETATM   14  C   UNL     1     -11.376  12.707  64.958  1.00  0.00    -0.345 A  
HETATM   15  C   UNL     1      -9.915  10.361  64.603  1.00  0.00    -0.408 A  
HETATM   16  C   UNL     1     -10.235  11.151  63.500  1.00  0.00    -0.446 A  
HETATM   17  C   UNL     1     -10.964  12.328  63.681  1.00  0.00    -0.532 A  
ENDBRANCH   8  12
BRANCH   8  18
HETATM   18  N   UNL     1     -12.107  11.022  68.033  1.00  0.00    -0.727 NA 
HETATM   19  H   UNL     1     -12.958  10.577  67.688  1.00  0.00     0.000 HD 
BRANCH  18  20
HETATM   20  C   UNL     1     -11.436  10.478  69.156  1.00  0.00    -0.247 A  
HETATM   21  C   UNL     1      -9.551   9.431  70.280  1.00  0.00    -0.294 A  
HETATM   22  C   UNL     1     -10.294   9.301  71.450  1.00  0.00    -0.392 A  
HETATM   23  C   UNL     1     -10.105  10.054  69.154  1.00  0.00    -0.219 A  
HETATM   24  C   UNL     1     -11.576   9.836  71.513  1.00  0.00    -0.424 A  
HETATM   25  C   UNL     1     -12.133  10.433  70.377  1.00  0.00    -0.402 A  
ENDBRANCH  18  20
ENDBRANCH   8  18
ENDBRANCH   3   4
ENDBRANCH   2   3
TORSDOF 5
ENDMDL
MODEL       49
REMARK 921   NORMALIZED FREE ENERGY PREDICTED BY IDOCK:   -4.79 KCAL/MOL
REMARK 922        TOTAL FREE ENERGY PREDICTED BY IDOCK:   -7.20 KCAL/MOL
REMARK 923 INTER-LIGAND FREE ENERGY PREDICTED BY IDOCK:   -7.10 KCAL/MOL
REMARK 924 INTRA-LIGAND FREE ENERGY PREDICTED BY IDOCK:   -0.10 KCAL/MOL
REMARK 927      BINDING AFFINITY PREDICTED BY RF-SCORE:    0.00 PKD
ROOT
HETATM    1  C   UNL     1     -13.741   9.053  71.936  1.00  0.00    -0.495 C  
HETATM    2  C   UNL     1     -13.144  10.443  71.759  1.00  0.00    -0.567 C  
ENDROOT
BRANCH   2   3
HETATM    3  C   UNL     1     -11.942  10.406  70.812  1.00  0.00    -0.462 C  
BRANCH   3   4
HETATM    4  C   UNL     1     -11.820  11.678  69.957  1.00  0.00    -0.435 C  
HETATM    5  C   UNL     1     -10.573  11.669  69.038  1.00  0.00    -0.188 C  
HETATM    6  C   UNL     1     -10.651  10.451  68.139  1.00  0.00    -0.211 C  
HETATM    7  C   UNL     1     -10.484  12.910  68.145  1.00  0.00    -0.237 C  
HETATM    8  N   UNL     1      -9.262  13.179  67.475  1.00  0.00    -0.197 N  
HETATM    9  O   UNL     1     -11.537  13.533  67.947  1.00  0.00    -0.300 OA 
HETATM   10  O   UNL     1      -9.910   9.485  68.251  1.00  0.00    -0.148 OA 
HETATM   11  O   UNL     1     -11.634  10.503  67.216  1.00  0.00    -0.327 OA 
BRANCH   8  12
HETATM   12  C   UNL     1      -8.116  12.334  67.619  1.00  0.00    -0.165 A  
HETATM   13  C   UNL     1      -7.778  11.466  66.571  1.00  0.00    -0.093 A  
HETATM   14  C   UNL     1      -7.294  12.383  68.757  1.00  0.00    -0.076 A  
HETATM   15  C   UNL     1      -6.611  10.693  66.649  1.00  0.00    -0.101 A  
HETATM   16  C   UNL     1      -5.778  10.782  67.763  1.00  0.00    -0.043 A  
HETATM   17  C   UNL     1      -6.124  11.627  68.820  1.00  0.00    -0.050 A  
ENDBRANCH   8  12
BRANCH   8  18
HETATM   18  N   UNL     1      -9.315  13.786  66.173  1.00  0.00    -0.487 NA 
HETATM   19  H   UNL     1      -8.629  14.498  65.920  1.00  0.00     0.000 HD 
BRANCH  18  20
HETATM   20  C   UNL     1     -10.309  13.406  65.239  1.00  0.00    -0.319 A  
HETATM   21  C   UNL     1     -12.333  13.757  63.937  1.00  0.00    -0.346 A  
HETATM   22  C   UNL     1     -12.285  12.447  63.470  1.00  0.00    -0.661 A  
HETATM   23  C   UNL     1     -11.328  14.245  64.782  1.00  0.00    -0.382 A  
HETATM   24  C   UNL     1     -11.207  11.636  63.808  1.00  0.00    -0.498 A  
HETATM   25  C   UNL     1     -10.221  12.121  64.673  1.00  0.00    -0.312 A  
ENDBRANCH  18  20
ENDBRANCH   8  18
ENDBRANCH   3   4
ENDBRANCH   2   3
TORSDOF 5
ENDMDL
MODEL       50
REMARK 921   NORMALIZED FREE ENERGY PREDICTED BY IDOCK:   -4.79 KCAL/MOL
REMARK 922        TOTAL FREE ENERGY PREDICTED BY IDOCK:   -7.20 KCAL/MOL
REMARK 923 INTER-LIGAND FREE ENERGY PREDICTED BY IDOCK:   -6.43 KCAL/MOL
REMARK 924 INTRA-LIGAND FREE ENERGY PREDICTED BY IDOCK:   -0.77 KCAL/MOL
REMARK 927      BINDING AFFINITY PREDICTED BY RF-SCORE:    0.00 PKD
ROOT
HETATM    1  C   UNL     1      -8.791   4.927  65.402  1.00  0.00    -0.149 C  
HETATM    2  C   UNL     1     -10.192   4.425  65.727  1.00  0.00    -0.257 C  
ENDROOT
BRANCH   2   3
HETATM    3  C   UNL     1     -10.737   5.100  66.987  1.00  0.00    -0.103 C  
BRANCH   3   4
HETATM    4  C   UNL     1     -10.793   6.632  66.865  1.00  0.00    -0.415 C  
HETATM    5  C   UNL     1     -10.482   7.354  68.200  1.00  0.00    -0.241 C  
HETATM    6  C   UNL     1      -9.105   6.925  68.667  1.00  0.00    -0.131 C  
HETATM    7  C   UNL     1     -10.480   8.880  68.062  1.00  0.00    -0.208 C  
HETATM    8  N   UNL     1     -10.504   9.668  69.242  1.00  0.00    -0.208 N  
HETATM    9  O   UNL     1     -10.313   9.338  66.922  1.00  0.00    -0.249 OA 
HETATM   10  O   UNL     1      -8.919   6.204  69.636  1.00  0.00    -0.132 OA 
HETATM   11  O   UNL     1      -8.091   7.381  67.900  1.00  0.00    -0.117 OA 
BRANCH   8  12
HETATM   12  C   UNL     1     -10.541   9.081  70.546  1.00  0.00    -0.227 A  
HETATM   13  C   UNL     1     -11.744   8.524  71.004  1.00  0.00    -0.310 A  
HETATM   14  C   UNL     1      -9.399   9.005  71.361  1.00  0.00    -0.310 A  
HETATM   15  C   UNL     1     -11.785   7.864  72.240  1.00  0.00    -0.408 A  
HETATM   16  C   UNL     1     -10.636   7.754  73.021  1.00  0.00    -0.441 A  
HETATM   17  C   UNL     1      -9.442   8.330  72.581  1.00  0.00    -0.354 A  
ENDBRANCH   8  12
BRANCH   8  18
HETATM   18  N   UNL     1      -9.798  10.921  69.242  1.00  0.00    -0.396 NA 
HETATM   19  H   UNL     1      -8.877  10.981  69.675  1.00  0.00     0.000 HD 
BRANCH  18  20
HETATM   20  C   UNL     1     -10.371  12.072  68.649  1.00  0.00    -0.196 A  
HETATM   21  C   UNL     1     -10.469  13.869  67.013  1.00  0.00    -0.278 A  
HETATM   22  C   UNL     1     -11.555  14.438  67.672  1.00  0.00    -0.396 A  
HETATM   23  C   UNL     1      -9.908  12.672  67.475  1.00  0.00    -0.203 A  
HETATM   24  C   UNL     1     -12.114  13.785  68.766  1.00  0.00    -0.344 A  
HETATM   25  C   UNL     1     -11.534  12.604  69.237  1.00  0.00    -0.354 A  
ENDBRANCH  18  20
ENDBRANCH   8  18
ENDBRANCH   3   4
ENDBRANCH   2   3
TORSDOF 5
ENDMDL
MODEL       51
REMARK 921   NORMALIZED FREE ENERGY PREDICTED BY IDOCK:   -4.75 KCAL/MOL
REMARK 922        TOTAL FREE ENERGY PREDICTED BY IDOCK:   -7.14 KCAL/MOL
REMARK 923 INTER-LIGAND FREE ENERGY PREDICTED BY IDOCK:   -7.06 KCAL/MOL
REMARK 924 INTRA-LIGAND FREE ENERGY PREDICTED BY IDOCK:   -0.08 KCAL/MOL
REMARK 927      BINDING AFFINITY PREDICTED BY RF-SCORE:    0.00 PKD
ROOT
HETATM    1  C   UNL     1     -11.103   8.115  71.412  1.00  0.00    -0.291 C  
HETATM    2  C   UNL     1     -10.483   9.440  70.988  1.00  0.00    -0.392 C  
ENDROOT
BRANCH   2   3
HETATM    3  C   UNL     1     -10.173   9.445  69.489  1.00  0.00    -0.219 C  
BRANCH   3   4
HETATM    4  C   UNL     1      -9.280  10.624  69.071  1.00  0.00    -0.177 C  
HETATM    5  C   UNL     1      -9.842  11.404  67.856  1.00  0.00    -0.188 C  
HETATM    6  C   UNL     1     -11.227  11.909  68.211  1.00  0.00    -0.261 C  
HETATM    7  C   UNL     1      -8.981  12.613  67.478  1.00  0.00    -0.187 C  
HETATM    8  N   UNL     1      -9.204  13.239  66.224  1.00  0.00    -0.123 N  
HETATM    9  O   UNL     1      -8.232  13.063  68.356  1.00  0.00    -0.151 OA 
HETATM   10  O   UNL     1     -12.251  11.463  67.715  1.00  0.00    -0.537 OA 
HETATM   11  O   UNL     1     -11.242  12.877  69.151  1.00  0.00    -0.256 OA 
BRANCH   8  12
HETATM   12  C   UNL     1     -10.195  12.768  65.305  1.00  0.00    -0.279 A  
HETATM   13  C   UNL     1     -11.335  13.554  65.077  1.00  0.00    -0.334 A  
HETATM   14  C   UNL     1     -10.040  11.568  64.593  1.00  0.00    -0.318 A  
HETATM   15  C   UNL     1     -12.277  13.160  64.117  1.00  0.00    -0.465 A  
HETATM   16  C   UNL     1     -12.091  11.989  63.383  1.00  0.00    -0.597 A  
HETATM   17  C   UNL     1     -10.971  11.191  63.626  1.00  0.00    -0.237 A  
ENDBRANCH   8  12
BRANCH   8  18
HETATM   18  N   UNL     1      -9.024  14.662  66.127  1.00  0.00    -0.491 NA 
HETATM   19  H   UNL     1      -8.547  15.058  65.317  1.00  0.00     0.000 HD 
BRANCH  18  20
HETATM   20  C   UNL     1      -9.501  15.521  67.148  1.00  0.00    -0.215 A  
HETATM   21  C   UNL     1     -11.221  16.455  68.591  1.00  0.00    -0.332 A  
HETATM   22  C   UNL     1     -10.320  17.388  69.096  1.00  0.00    -0.271 A  
HETATM   23  C   UNL     1     -10.803  15.502  67.654  1.00  0.00    -0.306 A  
HETATM   24  C   UNL     1      -8.987  17.339  68.702  1.00  0.00    -0.265 A  
HETATM   25  C   UNL     1      -8.582  16.401  67.748  1.00  0.00    -0.172 A  
ENDBRANCH  18  20
ENDBRANCH   8  18
ENDBRANCH   3   4
ENDBRANCH   2   3
TORSDOF 5
ENDMDL
MODEL       52
REMARK 921   NORMALIZED FREE ENERGY PREDICTED BY IDOCK:   -4.73 KCAL/MOL
REMARK 922        TOTAL FREE ENERGY PREDICTED BY IDOCK:   -7.12 KCAL/MOL
REMARK 923 INTER-LIGAND FREE ENERGY PREDICTED BY IDOCK:   -7.04 KCAL/MOL
REMARK 924 INTRA-LIGAND FREE ENERGY PREDICTED BY IDOCK:   -0.08 KCAL/MOL
REMARK 927      BINDING AFFINITY PREDICTED BY RF-SCORE:    0.00 PKD
ROOT
HETATM    1  C   UNL     1      -6.782  19.305  68.959  1.00  0.00    -0.351 C  
HETATM    2  C   UNL     1      -8.218  19.135  68.478  1.00  0.00    -0.399 C  
ENDROOT
BRANCH   2   3
HETATM    3  C   UNL     1      -8.258  18.471  67.099  1.00  0.00    -0.256 C  
BRANCH   3   4
HETATM    4  C   UNL     1      -8.077  16.946  67.168  1.00  0.00    -0.214 C  
HETATM    5  C   UNL     1      -9.262  16.229  67.862  1.00  0.00    -0.201 C  
HETATM    6  C   UNL     1     -10.532  16.563  67.106  1.00  0.00    -0.300 C  
HETATM    7  C   UNL     1      -9.107  14.706  67.877  1.00  0.00    -0.189 C  
HETATM    8  N   UNL     1      -9.953  13.945  68.725  1.00  0.00    -0.183 N  
HETATM    9  O   UNL     1      -8.342  14.213  67.035  1.00  0.00    -0.191 OA 
HETATM   10  O   UNL     1     -11.409  17.287  67.552  1.00  0.00     0.057 OA 
HETATM   11  O   UNL     1     -10.605  16.017  65.873  1.00  0.00    -0.327 OA 
BRANCH   8  12
HETATM   12  C   UNL     1     -10.932  14.559  69.569  1.00  0.00    -0.224 A  
HETATM   13  C   UNL     1     -12.259  14.110  69.506  1.00  0.00    -0.351 A  
HETATM   14  C   UNL     1     -10.595  15.565  70.491  1.00  0.00    -0.243 A  
HETATM   15  C   UNL     1     -13.219  14.633  70.384  1.00  0.00    -0.049 A  
HETATM   16  C   UNL     1     -12.864  15.598  71.325  1.00  0.00    -0.550 A  
HETATM   17  C   UNL     1     -11.549  16.066  71.375  1.00  0.00    -0.520 A  
ENDBRANCH   8  12
BRANCH   8  18
HETATM   18  N   UNL     1     -10.374  12.643  68.284  1.00  0.00    -0.236 NA 
HETATM   19  H   UNL     1     -10.402  11.869  68.947  1.00  0.00     0.000 HD 
BRANCH  18  20
HETATM   20  C   UNL     1     -10.750  12.425  66.935  1.00  0.00    -0.240 A  
HETATM   21  C   UNL     1     -10.464  11.486  64.711  1.00  0.00    -0.354 A  
HETATM   22  C   UNL     1     -11.560  12.205  64.243  1.00  0.00    -0.444 A  
HETATM   23  C   UNL     1     -10.088  11.564  66.058  1.00  0.00    -0.270 A  
HETATM   24  C   UNL     1     -12.312  12.966  65.131  1.00  0.00    -0.547 A  
HETATM   25  C   UNL     1     -11.917  13.060  66.469  1.00  0.00    -0.457 A  
ENDBRANCH  18  20
ENDBRANCH   8  18
ENDBRANCH   3   4
ENDBRANCH   2   3
TORSDOF 5
ENDMDL
MODEL       53
REMARK 921   NORMALIZED FREE ENERGY PREDICTED BY IDOCK:   -4.70 KCAL/MOL
REMARK 922        TOTAL FREE ENERGY PREDICTED BY IDOCK:   -7.08 KCAL/MOL
REMARK 923 INTER-LIGAND FREE ENERGY PREDICTED BY IDOCK:   -6.27 KCAL/MOL
REMARK 924 INTRA-LIGAND FREE ENERGY PREDICTED BY IDOCK:   -0.82 KCAL/MOL
REMARK 927      BINDING AFFINITY PREDICTED BY RF-SCORE:    0.00 PKD
ROOT
HETATM    1  C   UNL     1      -8.608   2.108  69.992  1.00  0.00    -0.099 C  
HETATM    2  C   UNL     1      -9.613   3.244  69.850  1.00  0.00    -0.172 C  
ENDROOT
BRANCH   2   3
HETATM    3  C   UNL     1      -9.038   4.555  70.391  1.00  0.00    -0.169 C  
BRANCH   3   4
HETATM    4  C   UNL     1     -10.128   5.567  70.778  1.00  0.00    -0.277 C  
HETATM    5  C   UNL     1      -9.952   6.939  70.081  1.00  0.00    -0.188 C  
HETATM    6  C   UNL     1      -9.964   6.719  68.581  1.00  0.00    -0.146 C  
HETATM    7  C   UNL     1     -11.072   7.927  70.423  1.00  0.00    -0.245 C  
HETATM    8  N   UNL     1     -10.891   9.297  70.100  1.00  0.00    -0.233 N  
HETATM    9  O   UNL     1     -12.136   7.444  70.835  1.00  0.00    -0.307 OA 
HETATM   10  O   UNL     1      -8.973   6.839  67.877  1.00  0.00    -0.116 OA 
HETATM   11  O   UNL     1     -11.162   6.345  68.084  1.00  0.00    -0.312 OA 
BRANCH   8  12
HETATM   12  C   UNL     1      -9.695   9.779  69.480  1.00  0.00    -0.212 A  
HETATM   13  C   UNL     1      -8.501   9.777  70.217  1.00  0.00    -0.163 A  
HETATM   14  C   UNL     1      -9.671  10.210  68.143  1.00  0.00    -0.155 A  
HETATM   15  C   UNL     1      -7.300  10.159  69.605  1.00  0.00    -0.138 A  
HETATM   16  C   UNL     1      -7.279  10.542  68.265  1.00  0.00    -0.083 A  
HETATM   17  C   UNL     1      -8.469  10.570  67.535  1.00  0.00    -0.118 A  
ENDBRANCH   8  12
BRANCH   8  18
HETATM   18  N   UNL     1     -12.041  10.065  69.707  1.00  0.00    -0.480 NA 
HETATM   19  H   UNL     1     -12.631   9.737  68.943  1.00  0.00     0.000 HD 
BRANCH  18  20
HETATM   20  C   UNL     1     -12.361  11.275  70.370  1.00  0.00    -0.329 A  
HETATM   21  C   UNL     1     -13.408  12.596  72.123  1.00  0.00    -0.570 A  
HETATM   22  C   UNL     1     -13.029  13.775  71.490  1.00  0.00    -0.444 A  
HETATM   23  C   UNL     1     -13.040  11.355  71.588  1.00  0.00    -0.498 A  
HETATM   24  C   UNL     1     -12.240  13.719  70.347  1.00  0.00    -0.433 A  
HETATM   25  C   UNL     1     -11.897  12.477  69.803  1.00  0.00    -0.380 A  
ENDBRANCH  18  20
ENDBRANCH   8  18
ENDBRANCH   3   4
ENDBRANCH   2   3
TORSDOF 5
ENDMDL
MODEL       54
REMARK 921   NORMALIZED FREE ENERGY PREDICTED BY IDOCK:   -4.70 KCAL/MOL
REMARK 922        TOTAL FREE ENERGY PREDICTED BY IDOCK:   -7.07 KCAL/MOL
REMARK 923 INTER-LIGAND FREE ENERGY PREDICTED BY IDOCK:   -6.31 KCAL/MOL
REMARK 924 INTRA-LIGAND FREE ENERGY PREDICTED BY IDOCK:   -0.77 KCAL/MOL
REMARK 927      BINDING AFFINITY PREDICTED BY RF-SCORE:    0.00 PKD
ROOT
HETATM    1  C   UNL     1     -12.346   8.868  72.127  1.00  0.00    -0.449 C  
HETATM    2  C   UNL     1     -11.585   9.904  71.310  1.00  0.00    -0.456 C  
ENDROOT
BRANCH   2   3
HETATM    3  C   UNL     1     -12.541  10.733  70.450  1.00  0.00    -0.395 C  
BRANCH   3   4
HETATM    4  C   UNL     1     -11.900  12.029  69.928  1.00  0.00    -0.405 C  
HETATM    5  C   UNL     1     -10.736  11.770  68.940  1.00  0.00    -0.241 C  
HETATM    6  C   UNL     1     -11.267  10.955  67.777  1.00  0.00    -0.317 C  
HETATM    7  C   UNL     1     -10.137  13.062  68.376  1.00  0.00    -0.225 C  
HETATM    8  N   UNL     1      -8.891  12.995  67.699  1.00  0.00    -0.179 N  
HETATM    9  O   UNL     1     -10.850  14.075  68.422  1.00  0.00    -0.235 OA 
HETATM   10  O   UNL     1     -10.974   9.783  67.589  1.00  0.00    -0.280 OA 
HETATM   11  O   UNL     1     -12.124  11.623  66.976  1.00  0.00    -0.547 OA 
BRANCH   8  12
HETATM   12  C   UNL     1      -8.180  11.764  67.540  1.00  0.00    -0.152 A  
HETATM   13  C   UNL     1      -7.597  11.168  68.669  1.00  0.00    -0.127 A  
HETATM   14  C   UNL     1      -8.087  11.112  66.299  1.00  0.00    -0.142 A  
HETATM   15  C   UNL     1      -6.972   9.918  68.557  1.00  0.00    -0.067 A  
HETATM   16  C   UNL     1      -6.924   9.259  67.330  1.00  0.00    -0.081 A  
HETATM   17  C   UNL     1      -7.480   9.861  66.199  1.00  0.00    -0.104 A  
ENDBRANCH   8  12
BRANCH   8  18
HETATM   18  N   UNL     1      -8.663  13.887  66.596  1.00  0.00    -0.445 NA 
HETATM   19  H   UNL     1      -8.749  13.541  65.640  1.00  0.00     0.000 HD 
BRANCH  18  20
HETATM   20  C   UNL     1      -8.319  15.243  66.823  1.00  0.00    -0.223 A  
HETATM   21  C   UNL     1      -7.031  17.027  67.856  1.00  0.00    -0.169 A  
HETATM   22  C   UNL     1      -7.853  17.987  67.273  1.00  0.00    -0.224 A  
HETATM   23  C   UNL     1      -7.238  15.666  67.598  1.00  0.00    -0.197 A  
HETATM   24  C   UNL     1      -8.854  17.591  66.393  1.00  0.00    -0.269 A  
HETATM   25  C   UNL     1      -9.072  16.230  66.160  1.00  0.00    -0.377 A  
ENDBRANCH  18  20
ENDBRANCH   8  18
ENDBRANCH   3   4
ENDBRANCH   2   3
TORSDOF 5
ENDMDL
MODEL       55
REMARK 921   NORMALIZED FREE ENERGY PREDICTED BY IDOCK:   -4.61 KCAL/MOL
REMARK 922        TOTAL FREE ENERGY PREDICTED BY IDOCK:   -6.97 KCAL/MOL
REMARK 923 INTER-LIGAND FREE ENERGY PREDICTED BY IDOCK:   -6.76 KCAL/MOL
REMARK 924 INTRA-LIGAND FREE ENERGY PREDICTED BY IDOCK:   -0.21 KCAL/MOL
REMARK 927      BINDING AFFINITY PREDICTED BY RF-SCORE:    0.00 PKD
ROOT
HETATM    1  C   UNL     1     -11.593   9.292  71.682  1.00  0.00    -0.463 C  
HETATM    2  C   UNL     1     -10.136   8.969  71.380  1.00  0.00    -0.399 C  
ENDROOT
BRANCH   2   3
HETATM    3  C   UNL     1      -9.581   9.901  70.300  1.00  0.00    -0.184 C  
BRANCH   3   4
HETATM    4  C   UNL     1     -10.678  10.713  69.594  1.00  0.00    -0.290 C  
HETATM    5  C   UNL     1     -10.127  11.962  68.862  1.00  0.00    -0.060 C  
HETATM    6  C   UNL     1      -9.093  11.507  67.852  1.00  0.00    -0.167 C  
HETATM    7  C   UNL     1     -11.213  12.737  68.111  1.00  0.00    -0.272 C  
HETATM    8  N   UNL     1     -10.917  14.046  67.647  1.00  0.00    -0.265 N  
HETATM    9  O   UNL     1     -12.248  12.117  67.826  1.00  0.00    -0.451 OA 
HETATM   10  O   UNL     1      -7.895  11.716  67.976  1.00  0.00    -0.114 OA 
HETATM   11  O   UNL     1      -9.602  10.818  66.808  1.00  0.00    -0.167 OA 
BRANCH   8  12
HETATM   12  C   UNL     1      -9.644  14.660  67.871  1.00  0.00    -0.212 A  
HETATM   13  C   UNL     1      -8.822  14.936  66.769  1.00  0.00    -0.291 A  
HETATM   14  C   UNL     1      -9.214  15.036  69.155  1.00  0.00    -0.183 A  
HETATM   15  C   UNL     1      -7.610  15.617  66.952  1.00  0.00    -0.201 A  
HETATM   16  C   UNL     1      -7.214  16.026  68.224  1.00  0.00    -0.132 A  
HETATM   17  C   UNL     1      -8.018  15.731  69.327  1.00  0.00    -0.239 A  
ENDBRANCH   8  12
BRANCH   8  18
HETATM   18  N   UNL     1     -11.509  14.486  66.414  1.00  0.00    -0.354 NA 
HETATM   19  H   UNL     1     -11.836  15.448  66.325  1.00  0.00     0.000 HD 
BRANCH  18  20
HETATM   20  C   UNL     1     -11.644  13.595  65.320  1.00  0.00    -0.320 A  
HETATM   21  C   UNL     1     -12.901  12.164  63.809  1.00  0.00    -0.451 A  
HETATM   22  C   UNL     1     -11.724  11.726  63.211  1.00  0.00    -0.340 A  
HETATM   23  C   UNL     1     -12.863  13.124  64.828  1.00  0.00    -0.298 A  
HETATM   24  C   UNL     1     -10.509  12.281  63.597  1.00  0.00    -0.483 A  
HETATM   25  C   UNL     1     -10.475  13.220  64.632  1.00  0.00    -0.420 A  
ENDBRANCH  18  20
ENDBRANCH   8  18
ENDBRANCH   3   4
ENDBRANCH   2   3
TORSDOF 5
ENDMDL
MODEL       56
REMARK 921   NORMALIZED FREE ENERGY PREDICTED BY IDOCK:   -4.60 KCAL/MOL
REMARK 922        TOTAL FREE ENERGY PREDICTED BY IDOCK:   -6.95 KCAL/MOL
REMARK 923 INTER-LIGAND FREE ENERGY PREDICTED BY IDOCK:   -6.10 KCAL/MOL
REMARK 924 INTRA-LIGAND FREE ENERGY PREDICTED BY IDOCK:   -0.85 KCAL/MOL
REMARK 927      BINDING AFFINITY PREDICTED BY RF-SCORE:    0.00 PKD
ROOT
HETATM    1  C   UNL     1     -12.150  13.861  63.994  1.00  0.00    -0.437 C  
HETATM    2  C   UNL     1     -12.314  12.436  63.482  1.00  0.00    -0.648 C  
ENDROOT
BRANCH   2   3
HETATM    3  C   UNL     1     -11.137  11.559  63.915  1.00  0.00    -0.458 C  
BRANCH   3   4
HETATM    4  C   UNL     1     -10.869  11.628  65.427  1.00  0.00    -0.336 C  
HETATM    5  C   UNL     1     -10.221  10.336  65.985  1.00  0.00    -0.298 C  
HETATM    6  C   UNL     1      -8.922  10.094  65.243  1.00  0.00    -0.187 C  
HETATM    7  C   UNL     1      -9.901  10.430  67.479  1.00  0.00    -0.172 C  
HETATM    8  N   UNL     1      -9.584   9.238  68.182  1.00  0.00    -0.141 N  
HETATM    9  O   UNL     1      -9.800  11.568  67.959  1.00  0.00    -0.176 OA 
HETATM   10  O   UNL     1      -8.765   9.185  64.441  1.00  0.00    -0.193 OA 
HETATM   11  O   UNL     1      -7.950  10.992  65.515  1.00  0.00    -0.061 OA 
BRANCH   8  12
HETATM   12  C   UNL     1      -9.566   7.960  67.539  1.00  0.00    -0.152 A  
HETATM   13  C   UNL     1      -8.329   7.368  67.244  1.00  0.00    -0.119 A  
HETATM   14  C   UNL     1     -10.747   7.261  67.237  1.00  0.00    -0.391 A  
HETATM   15  C   UNL     1      -8.282   6.078  66.696  1.00  0.00    -0.106 A  
HETATM   16  C   UNL     1      -9.459   5.375  66.442  1.00  0.00    -0.164 A  
HETATM   17  C   UNL     1     -10.693   5.971  66.711  1.00  0.00    -0.374 A  
ENDBRANCH   8  12
BRANCH   8  18
HETATM   18  N   UNL     1      -8.626   9.309  69.251  1.00  0.00    -0.134 NA 
HETATM   19  H   UNL     1      -7.699   9.696  69.075  1.00  0.00     0.000 HD 
BRANCH  18  20
HETATM   20  C   UNL     1      -8.956   8.844  70.548  1.00  0.00    -0.192 A  
HETATM   21  C   UNL     1     -10.503   8.230  72.322  1.00  0.00    -0.392 A  
HETATM   22  C   UNL     1      -9.446   8.043  73.207  1.00  0.00    -0.336 A  
HETATM   23  C   UNL     1     -10.256   8.587  70.990  1.00  0.00    -0.255 A  
HETATM   24  C   UNL     1      -8.137   8.165  72.752  1.00  0.00    -0.221 A  
HETATM   25  C   UNL     1      -7.899   8.548  71.428  1.00  0.00    -0.153 A  
ENDBRANCH  18  20
ENDBRANCH   8  18
ENDBRANCH   3   4
ENDBRANCH   2   3
TORSDOF 5
ENDMDL
MODEL       57
REMARK 921   NORMALIZED FREE ENERGY PREDICTED BY IDOCK:   -4.53 KCAL/MOL
REMARK 922        TOTAL FREE ENERGY PREDICTED BY IDOCK:   -6.87 KCAL/MOL
REMARK 923 INTER-LIGAND FREE ENERGY PREDICTED BY IDOCK:   -5.92 KCAL/MOL
REMARK 924 INTRA-LIGAND FREE ENERGY PREDICTED BY IDOCK:   -0.95 KCAL/MOL
REMARK 927      BINDING AFFINITY PREDICTED BY RF-SCORE:    0.00 PKD
ROOT
HETATM    1  C   UNL     1     -10.655  18.740  68.037  1.00  0.00    -0.356 C  
HETATM    2  C   UNL     1     -10.573  17.339  68.630  1.00  0.00    -0.329 C  
ENDROOT
BRANCH   2   3
HETATM    3  C   UNL     1      -9.134  16.995  69.024  1.00  0.00    -0.146 C  
BRANCH   3   4
HETATM    4  C   UNL     1      -8.927  15.491  69.264  1.00  0.00    -0.267 C  
HETATM    5  C   UNL     1      -9.402  14.620  68.075  1.00  0.00    -0.198 C  
HETATM    6  C   UNL     1      -8.647  15.052  66.834  1.00  0.00    -0.249 C  
HETATM    7  C   UNL     1      -9.141  13.127  68.291  1.00  0.00    -0.181 C  
HETATM    8  N   UNL     1      -9.779  12.194  67.433  1.00  0.00    -0.178 N  
HETATM    9  O   UNL     1      -8.269  12.826  69.119  1.00  0.00     0.299 OA 
HETATM   10  O   UNL     1      -9.168  15.652  65.905  1.00  0.00    -0.340 OA 
HETATM   11  O   UNL     1      -7.331  14.747  66.849  1.00  0.00    -0.036 OA 
BRANCH   8  12
HETATM   12  C   UNL     1     -10.663  12.607  66.386  1.00  0.00    -0.255 A  
HETATM   13  C   UNL     1     -11.900  13.174  66.729  1.00  0.00    -0.444 A  
HETATM   14  C   UNL     1     -10.310  12.506  65.030  1.00  0.00    -0.323 A  
HETATM   15  C   UNL     1     -12.746  13.668  65.726  1.00  0.00    -0.470 A  
HETATM   16  C   UNL     1     -12.367  13.604  64.386  1.00  0.00    -0.387 A  
HETATM   17  C   UNL     1     -11.148  13.018  64.039  1.00  0.00    -0.433 A  
ENDBRANCH   8  12
BRANCH   8  18
HETATM   18  N   UNL     1      -9.077  10.987  67.090  1.00  0.00    -0.145 NA 
HETATM   19  H   UNL     1      -8.214  11.041  66.550  1.00  0.00     0.000 HD 
BRANCH  18  20
HETATM   20  C   UNL     1      -9.574   9.724  67.494  1.00  0.00    -0.150 A  
HETATM   21  C   UNL     1     -10.545   7.529  67.102  1.00  0.00    -0.415 A  
HETATM   22  C   UNL     1     -10.660   7.312  68.471  1.00  0.00    -0.207 A  
HETATM   23  C   UNL     1      -9.967   8.710  66.618  1.00  0.00    -0.357 A  
HETATM   24  C   UNL     1     -10.154   8.253  69.361  1.00  0.00    -0.198 A  
HETATM   25  C   UNL     1      -9.602   9.441  68.872  1.00  0.00    -0.155 A  
ENDBRANCH  18  20
ENDBRANCH   8  18
ENDBRANCH   3   4
ENDBRANCH   2   3
TORSDOF 5
ENDMDL
MODEL       58
REMARK 921   NORMALIZED FREE ENERGY PREDICTED BY IDOCK:   -4.53 KCAL/MOL
REMARK 922        TOTAL FREE ENERGY PREDICTED BY IDOCK:   -6.86 KCAL/MOL
REMARK 923 INTER-LIGAND FREE ENERGY PREDICTED BY IDOCK:   -6.00 KCAL/MOL
REMARK 924 INTRA-LIGAND FREE ENERGY PREDICTED BY IDOCK:   -0.87 KCAL/MOL
REMARK 927      BINDING AFFINITY PREDICTED BY RF-SCORE:    0.00 PKD
ROOT
HETATM    1  C   UNL     1      -7.199   8.321  65.604  1.00  0.00    -0.071 C  
HETATM    2  C   UNL     1      -8.453   8.120  66.445  1.00  0.00    -0.133 C  
ENDROOT
BRANCH   2   3
HETATM    3  C   UNL     1      -8.195   8.485  67.908  1.00  0.00    -0.119 C  
BRANCH   3   4
HETATM    4  C   UNL     1      -7.904   9.981  68.106  1.00  0.00    -0.089 C  
HETATM    5  C   UNL     1      -9.000  10.893  67.501  1.00  0.00    -0.136 C  
HETATM    6  C   UNL     1     -10.326  10.538  68.144  1.00  0.00    -0.172 C  
HETATM    7  C   UNL     1      -8.738  12.381  67.751  1.00  0.00    -0.176 C  
HETATM    8  N   UNL     1      -9.487  13.336  67.014  1.00  0.00    -0.235 N  
HETATM    9  O   UNL     1      -7.982  12.666  68.691  1.00  0.00    -0.118 OA 
HETATM   10  O   UNL     1     -11.230   9.968  67.549  1.00  0.00    -0.228 OA 
HETATM   11  O   UNL     1     -10.420  10.875  69.448  1.00  0.00    -0.219 OA 
BRANCH   8  12
HETATM   12  C   UNL     1     -10.464  12.948  66.043  1.00  0.00    -0.276 A  
HETATM   13  C   UNL     1     -11.810  13.269  66.271  1.00  0.00    -0.444 A  
HETATM   14  C   UNL     1     -10.110  12.298  64.848  1.00  0.00    -0.274 A  
HETATM   15  C   UNL     1     -12.774  12.980  65.296  1.00  0.00    -0.432 A  
HETATM   16  C   UNL     1     -12.407  12.376  64.095  1.00  0.00    -0.558 A  
HETATM   17  C   UNL     1     -11.071  12.032  63.874  1.00  0.00    -0.474 A  
ENDBRANCH   8  12
BRANCH   8  18
HETATM   18  N   UNL     1      -9.836  14.575  67.654  1.00  0.00    -0.221 NA 
HETATM   19  H   UNL     1     -10.731  14.660  68.135  1.00  0.00     0.000 HD 
BRANCH  18  20
HETATM   20  C   UNL     1      -8.949  15.678  67.623  1.00  0.00    -0.180 A  
HETATM   21  C   UNL     1      -7.658  17.474  68.633  1.00  0.00    -0.273 A  
HETATM   22  C   UNL     1      -7.287  17.943  67.377  1.00  0.00    -0.205 A  
HETATM   23  C   UNL     1      -8.448  16.325  68.755  1.00  0.00    -0.240 A  
HETATM   24  C   UNL     1      -7.666  17.237  66.240  1.00  0.00    -0.353 A  
HETATM   25  C   UNL     1      -8.477  16.105  66.367  1.00  0.00    -0.369 A  
ENDBRANCH  18  20
ENDBRANCH   8  18
ENDBRANCH   3   4
ENDBRANCH   2   3
TORSDOF 5
ENDMDL
MODEL       59
REMARK 921   NORMALIZED FREE ENERGY PREDICTED BY IDOCK:   -4.52 KCAL/MOL
REMARK 922        TOTAL FREE ENERGY PREDICTED BY IDOCK:   -6.85 KCAL/MOL
REMARK 923 INTER-LIGAND FREE ENERGY PREDICTED BY IDOCK:   -6.73 KCAL/MOL
REMARK 924 INTRA-LIGAND FREE ENERGY PREDICTED BY IDOCK:   -0.12 KCAL/MOL
REMARK 927      BINDING AFFINITY PREDICTED BY RF-SCORE:    0.00 PKD
ROOT
HETATM    1  C   UNL     1     -12.919   9.778  71.088  1.00  0.00    -0.431 C  
HETATM    2  C   UNL     1     -12.067  11.021  70.865  1.00  0.00    -0.444 C  
ENDROOT
BRANCH   2   3
HETATM    3  C   UNL     1     -11.872  11.290  69.371  1.00  0.00    -0.424 C  
BRANCH   3   4
HETATM    4  C   UNL     1     -10.584  12.074  69.072  1.00  0.00    -0.136 C  
HETATM    5  C   UNL     1     -10.680  12.918  67.776  1.00  0.00    -0.238 C  
HETATM    6  C   UNL     1     -11.845  13.877  67.914  1.00  0.00    -0.378 C  
HETATM    7  C   UNL     1      -9.417  13.743  67.511  1.00  0.00    -0.220 C  
HETATM    8  N   UNL     1      -9.244  14.326  66.229  1.00  0.00    -0.206 N  
HETATM    9  O   UNL     1      -8.684  13.972  68.484  1.00  0.00    -0.181 OA 
HETATM   10  O   UNL     1     -12.884  13.768  67.280  1.00  0.00     0.309 OA 
HETATM   11  O   UNL     1     -11.656  14.853  68.828  1.00  0.00    -0.293 OA 
BRANCH   8  12
HETATM   12  C   UNL     1     -10.204  14.156  65.181  1.00  0.00    -0.384 A  
HETATM   13  C   UNL     1     -10.311  12.903  64.559  1.00  0.00    -0.380 A  
HETATM   14  C   UNL     1     -11.071  15.189  64.790  1.00  0.00    -0.395 A  
HETATM   15  C   UNL     1     -11.303  12.684  63.593  1.00  0.00    -0.544 A  
HETATM   16  C   UNL     1     -12.188  13.702  63.244  1.00  0.00    -0.096 A  
HETATM   17  C   UNL     1     -12.068  14.958  63.843  1.00  0.00     0.024 A  
ENDBRANCH   8  12
BRANCH   8  18
HETATM   18  N   UNL     1      -8.580  15.598  66.139  1.00  0.00    -0.390 NA 
HETATM   19  H   UNL     1      -7.801  15.717  65.491  1.00  0.00     0.000 HD 
BRANCH  18  20
HETATM   20  C   UNL     1      -8.997  16.688  66.943  1.00  0.00    -0.222 A  
HETATM   21  C   UNL     1     -10.571  18.395  67.665  1.00  0.00    -0.437 A  
HETATM   22  C   UNL     1      -9.620  18.938  68.524  1.00  0.00    -0.432 A  
HETATM   23  C   UNL     1     -10.274  17.252  66.911  1.00  0.00    -0.322 A  
HETATM   24  C   UNL     1      -8.386  18.313  68.667  1.00  0.00    -0.305 A  
HETATM   25  C   UNL     1      -8.087  17.187  67.893  1.00  0.00    -0.201 A  
ENDBRANCH  18  20
ENDBRANCH   8  18
ENDBRANCH   3   4
ENDBRANCH   2   3
TORSDOF 5
ENDMDL
MODEL       60
REMARK 921   NORMALIZED FREE ENERGY PREDICTED BY IDOCK:   -4.51 KCAL/MOL
REMARK 922        TOTAL FREE ENERGY PREDICTED BY IDOCK:   -6.83 KCAL/MOL
REMARK 923 INTER-LIGAND FREE ENERGY PREDICTED BY IDOCK:   -5.96 KCAL/MOL
REMARK 924 INTRA-LIGAND FREE ENERGY PREDICTED BY IDOCK:   -0.87 KCAL/MOL
REMARK 927      BINDING AFFINITY PREDICTED BY RF-SCORE:    0.00 PKD
ROOT
HETATM    1  C   UNL     1      -7.121  19.368  68.618  1.00  0.00    -0.364 C  
HETATM    2  C   UNL     1      -8.092  18.194  68.643  1.00  0.00    -0.301 C  
ENDROOT
BRANCH   2   3
HETATM    3  C   UNL     1      -8.201  17.544  67.262  1.00  0.00    -0.222 C  
BRANCH   3   4
HETATM    4  C   UNL     1      -8.384  16.019  67.336  1.00  0.00    -0.188 C  
HETATM    5  C   UNL     1      -9.604  15.599  68.193  1.00  0.00    -0.196 C  
HETATM    6  C   UNL     1     -10.846  16.238  67.604  1.00  0.00    -0.293 C  
HETATM    7  C   UNL     1      -9.818  14.083  68.217  1.00  0.00    -0.233 C  
HETATM    8  N   UNL     1     -10.703  13.537  69.184  1.00  0.00    -0.146 N  
HETATM    9  O   UNL     1      -9.312  13.432  67.292  1.00  0.00    -0.216 OA 
HETATM   10  O   UNL     1     -11.457  17.146  68.148  1.00  0.00     0.021 OA 
HETATM   11  O   UNL     1     -11.209  15.741  66.402  1.00  0.00    -0.148 OA 
BRANCH   8  12
HETATM   12  C   UNL     1     -11.385  14.358  70.137  1.00  0.00    -0.165 A  
HETATM   13  C   UNL     1     -12.788  14.379  70.131  1.00  0.00    -0.152 A  
HETATM   14  C   UNL     1     -10.695  15.105  71.106  1.00  0.00     0.063 A  
HETATM   15  C   UNL     1     -13.482  15.104  71.109  1.00  0.00    -0.533 A  
HETATM   16  C   UNL     1     -12.788  15.805  72.095  1.00  0.00    -0.510 A  
HETATM   17  C   UNL     1     -11.392  15.807  72.089  1.00  0.00    -0.311 A  
ENDBRANCH   8  12
BRANCH   8  18
HETATM   18  N   UNL     1     -11.478  12.380  68.827  1.00  0.00    -0.279 NA 
HETATM   19  H   UNL     1     -12.258  12.476  68.177  1.00  0.00     0.000 HD 
BRANCH  18  20
HETATM   20  C   UNL     1     -11.169  11.109  69.369  1.00  0.00    -0.270 A  
HETATM   21  C   UNL     1     -11.116   9.442  71.139  1.00  0.00    -0.432 A  
HETATM   22  C   UNL     1     -10.360   8.588  70.341  1.00  0.00    -0.222 A  
HETATM   23  C   UNL     1     -11.553  10.676  70.640  1.00  0.00    -0.432 A  
HETATM   24  C   UNL     1     -10.080   8.945  69.027  1.00  0.00    -0.205 A  
HETATM   25  C   UNL     1     -10.497  10.189  68.543  1.00  0.00    -0.221 A  
ENDBRANCH  18  20
ENDBRANCH   8  18
ENDBRANCH   3   4
ENDBRANCH   2   3
TORSDOF 5
ENDMDL
MODEL       61
REMARK 921   NORMALIZED FREE ENERGY PREDICTED BY IDOCK:   -4.49 KCAL/MOL
REMARK 922        TOTAL FREE ENERGY PREDICTED BY IDOCK:   -6.81 KCAL/MOL
REMARK 923 INTER-LIGAND FREE ENERGY PREDICTED BY IDOCK:   -6.65 KCAL/MOL
REMARK 924 INTRA-LIGAND FREE ENERGY PREDICTED BY IDOCK:   -0.16 KCAL/MOL
REMARK 927      BINDING AFFINITY PREDICTED BY RF-SCORE:    0.00 PKD
ROOT
HETATM    1  C   UNL     1      -7.110   7.234  68.844  1.00  0.00    -0.084 C  
HETATM    2  C   UNL     1      -7.390   8.698  69.159  1.00  0.00    -0.076 C  
ENDROOT
BRANCH   2   3
HETATM    3  C   UNL     1      -7.621   9.500  67.877  1.00  0.00    -0.087 C  
BRANCH   3   4
HETATM    4  C   UNL     1      -7.732  11.012  68.133  1.00  0.00    -0.105 C  
HETATM    5  C   UNL     1      -8.951  11.655  67.424  1.00  0.00    -0.166 C  
HETATM    6  C   UNL     1     -10.207  10.958  67.906  1.00  0.00    -0.179 C  
HETATM    7  C   UNL     1      -9.093  13.149  67.728  1.00  0.00    -0.200 C  
HETATM    8  N   UNL     1      -9.973  13.925  66.929  1.00  0.00    -0.258 N  
HETATM    9  O   UNL     1      -8.535  13.567  68.753  1.00  0.00    -0.065 OA 
HETATM   10  O   UNL     1     -10.873  10.213  67.203  1.00  0.00    -0.251 OA 
HETATM   11  O   UNL     1     -10.519  11.202  69.197  1.00  0.00    -0.213 OA 
BRANCH   8  12
HETATM   12  C   UNL     1     -10.716  13.354  65.846  1.00  0.00    -0.279 A  
HETATM   13  C   UNL     1     -12.113  13.280  65.949  1.00  0.00    -0.493 A  
HETATM   14  C   UNL     1     -10.093  12.911  64.668  1.00  0.00    -0.254 A  
HETATM   15  C   UNL     1     -12.870  12.808  64.869  1.00  0.00    -0.357 A  
HETATM   16  C   UNL     1     -12.246  12.413  63.686  1.00  0.00    -0.653 A  
HETATM   17  C   UNL     1     -10.854  12.462  63.589  1.00  0.00    -0.509 A  
ENDBRANCH   8  12
BRANCH   8  18
HETATM   18  N   UNL     1     -10.684  15.010  67.547  1.00  0.00    -0.278 NA 
HETATM   19  H   UNL     1     -10.788  15.894  67.049  1.00  0.00     0.000 HD 
BRANCH  18  20
HETATM   20  C   UNL     1     -11.239  14.864  68.842  1.00  0.00    -0.269 A  
HETATM   21  C   UNL     1     -12.725  13.856  70.482  1.00  0.00    -0.318 A  
HETATM   22  C   UNL     1     -12.344  14.795  71.436  1.00  0.00    -0.398 A  
HETATM   23  C   UNL     1     -12.145  13.866  69.207  1.00  0.00    -0.383 A  
HETATM   24  C   UNL     1     -11.346  15.715  71.133  1.00  0.00    -0.446 A  
HETATM   25  C   UNL     1     -10.789  15.736  69.851  1.00  0.00    -0.330 A  
ENDBRANCH  18  20
ENDBRANCH   8  18
ENDBRANCH   3   4
ENDBRANCH   2   3
TORSDOF 5
ENDMDL
MODEL       62
REMARK 921   NORMALIZED FREE ENERGY PREDICTED BY IDOCK:   -4.49 KCAL/MOL
REMARK 922        TOTAL FREE ENERGY PREDICTED BY IDOCK:   -6.81 KCAL/MOL
REMARK 923 INTER-LIGAND FREE ENERGY PREDICTED BY IDOCK:   -5.90 KCAL/MOL
REMARK 924 INTRA-LIGAND FREE ENERGY PREDICTED BY IDOCK:   -0.90 KCAL/MOL
REMARK 927      BINDING AFFINITY PREDICTED BY RF-SCORE:    0.00 PKD
ROOT
HETATM    1  C   UNL     1      -9.624   4.536  67.305  1.00  0.00    -0.213 C  
HETATM    2  C   UNL     1     -10.577   5.684  66.998  1.00  0.00    -0.358 C  
ENDROOT
BRANCH   2   3
HETATM    3  C   UNL     1      -9.813   6.999  66.828  1.00  0.00    -0.250 C  
BRANCH   3   4
HETATM    4  C   UNL     1     -10.601   8.215  67.343  1.00  0.00    -0.325 C  
HETATM    5  C   UNL     1      -9.742   9.501  67.420  1.00  0.00    -0.201 C  
HETATM    6  C   UNL     1      -9.191   9.793  66.038  1.00  0.00    -0.179 C  
HETATM    7  C   UNL     1     -10.543  10.724  67.877  1.00  0.00    -0.221 C  
HETATM    8  N   UNL     1      -9.837  11.889  68.274  1.00  0.00    -0.196 N  
HETATM    9  O   UNL     1     -11.773  10.670  67.737  1.00  0.00    -0.503 OA 
HETATM   10  O   UNL     1      -8.011   9.667  65.745  1.00  0.00    -0.106 OA 
HETATM   11  O   UNL     1     -10.122  10.175  65.138  1.00  0.00    -0.326 OA 
BRANCH   8  12
HETATM   12  C   UNL     1      -8.407  11.948  68.270  1.00  0.00    -0.159 A  
HETATM   13  C   UNL     1      -7.766  12.778  67.338  1.00  0.00    -0.165 A  
HETATM   14  C   UNL     1      -7.630  11.238  69.200  1.00  0.00    -0.070 A  
HETATM   15  C   UNL     1      -6.373  12.923  67.371  1.00  0.00    -0.119 A  
HETATM   16  C   UNL     1      -5.614  12.249  68.327  1.00  0.00    -0.054 A  
HETATM   17  C   UNL     1      -6.246  11.402  69.240  1.00  0.00    -0.073 A  
ENDBRANCH   8  12
BRANCH   8  18
HETATM   18  N   UNL     1     -10.423  13.172  67.997  1.00  0.00    -0.232 NA 
HETATM   19  H   UNL     1     -10.439  13.524  67.040  1.00  0.00     0.000 HD 
BRANCH  18  20
HETATM   20  C   UNL     1     -10.977  13.953  69.041  1.00  0.00    -0.250 A  
HETATM   21  C   UNL     1     -12.550  14.394  70.842  1.00  0.00    -0.422 A  
HETATM   22  C   UNL     1     -12.052  15.686  70.989  1.00  0.00    -0.448 A  
HETATM   23  C   UNL     1     -11.987  13.521  69.903  1.00  0.00    -0.416 A  
HETATM   24  C   UNL     1     -10.959  16.091  70.231  1.00  0.00    -0.360 A  
HETATM   25  C   UNL     1     -10.418  15.223  69.277  1.00  0.00    -0.258 A  
ENDBRANCH  18  20
ENDBRANCH   8  18
ENDBRANCH   3   4
ENDBRANCH   2   3
TORSDOF 5
ENDMDL
MODEL       63
REMARK 921   NORMALIZED FREE ENERGY PREDICTED BY IDOCK:   -4.46 KCAL/MOL
REMARK 922        TOTAL FREE ENERGY PREDICTED BY IDOCK:   -6.76 KCAL/MOL
REMARK 923 INTER-LIGAND FREE ENERGY PREDICTED BY IDOCK:   -6.86 KCAL/MOL
REMARK 924 INTRA-LIGAND FREE ENERGY PREDICTED BY IDOCK:    0.09 KCAL/MOL
REMARK 927      BINDING AFFINITY PREDICTED BY RF-SCORE:    0.00 PKD
ROOT
HETATM    1  C   UNL     1      -9.368  10.667  65.943  1.00  0.00    -0.224 C  
HETATM    2  C   UNL     1     -10.105  11.049  67.220  1.00  0.00    -0.222 C  
ENDROOT
BRANCH   2   3
HETATM    3  C   UNL     1     -11.409  11.784  66.901  1.00  0.00    -0.386 C  
BRANCH   3   4
HETATM    4  C   UNL     1     -11.700  12.932  67.882  1.00  0.00    -0.405 C  
HETATM    5  C   UNL     1     -10.575  13.996  67.914  1.00  0.00    -0.246 C  
HETATM    6  C   UNL     1     -10.398  14.549  66.514  1.00  0.00    -0.283 C  
HETATM    7  C   UNL     1     -10.894  15.168  68.847  1.00  0.00    -0.241 C  
HETATM    8  N   UNL     1      -9.847  16.058  69.202  1.00  0.00    -0.233 N  
HETATM    9  O   UNL     1     -12.088  15.352  69.126  1.00  0.00    -0.315 OA 
HETATM   10  O   UNL     1      -9.420  14.316  65.819  1.00  0.00    -0.203 OA 
HETATM   11  O   UNL     1     -11.432  15.299  66.077  1.00  0.00    -0.239 OA 
BRANCH   8  12
HETATM   12  C   UNL     1      -8.510  15.885  68.725  1.00  0.00    -0.204 A  
HETATM   13  C   UNL     1      -7.698  14.910  69.324  1.00  0.00    -0.166 A  
HETATM   14  C   UNL     1      -8.002  16.628  67.646  1.00  0.00    -0.188 A  
HETATM   15  C   UNL     1      -6.415  14.659  68.818  1.00  0.00    -0.088 A  
HETATM   16  C   UNL     1      -5.937  15.370  67.718  1.00  0.00    -0.164 A  
HETATM   17  C   UNL     1      -6.733  16.359  67.135  1.00  0.00    -0.239 A  
ENDBRANCH   8  12
BRANCH   8  18
HETATM   18  N   UNL     1     -10.166  17.446  69.399  1.00  0.00    -0.202 NA 
HETATM   19  H   UNL     1     -10.428  17.777  70.327  1.00  0.00     0.000 HD 
BRANCH  18  20
HETATM   20  C   UNL     1     -10.119  18.358  68.316  1.00  0.00    -0.383 A  
HETATM   21  C   UNL     1     -10.652  19.106  66.065  1.00  0.00    -0.524 A  
HETATM   22  C   UNL     1      -9.812  20.206  66.209  1.00  0.00    -0.541 A  
HETATM   23  C   UNL     1     -10.837  18.212  67.127  1.00  0.00    -0.212 A  
HETATM   24  C   UNL     1      -9.191  20.441  67.431  1.00  0.00    -0.513 A  
HETATM   25  C   UNL     1      -9.359  19.531  68.478  1.00  0.00    -0.435 A  
ENDBRANCH  18  20
ENDBRANCH   8  18
ENDBRANCH   3   4
ENDBRANCH   2   3
TORSDOF 5
ENDMDL
MODEL       64
REMARK 921   NORMALIZED FREE ENERGY PREDICTED BY IDOCK:   -4.44 KCAL/MOL
REMARK 922        TOTAL FREE ENERGY PREDICTED BY IDOCK:   -6.74 KCAL/MOL
REMARK 923 INTER-LIGAND FREE ENERGY PREDICTED BY IDOCK:   -5.96 KCAL/MOL
REMARK 924 INTRA-LIGAND FREE ENERGY PREDICTED BY IDOCK:   -0.79 KCAL/MOL
REMARK 927      BINDING AFFINITY PREDICTED BY RF-SCORE:    0.00 PKD
ROOT
HETATM    1  C   UNL     1     -11.051  14.762  64.735  1.00  0.00    -0.393 C  
HETATM    2  C   UNL     1     -11.733  13.836  63.736  1.00  0.00    -0.219 C  
ENDROOT
BRANCH   2   3
HETATM    3  C   UNL     1     -11.389  12.373  64.022  1.00  0.00    -0.465 C  
BRANCH   3   4
HETATM    4  C   UNL     1     -11.851  11.915  65.416  1.00  0.00    -0.149 C  
HETATM    5  C   UNL     1     -10.809  11.019  66.131  1.00  0.00    -0.212 C  
HETATM    6  C   UNL     1      -9.511  11.794  66.248  1.00  0.00    -0.224 C  
HETATM    7  C   UNL     1     -11.245  10.613  67.542  1.00  0.00    -0.253 C  
HETATM    8  N   UNL     1     -10.541   9.568  68.196  1.00  0.00    -0.222 N  
HETATM    9  O   UNL     1     -12.102  11.322  68.088  1.00  0.00    -0.635 OA 
HETATM   10  O   UNL     1      -8.507  11.522  65.606  1.00  0.00     0.009 OA 
HETATM   11  O   UNL     1      -9.562  12.839  67.101  1.00  0.00    -0.208 OA 
BRANCH   8  12
HETATM   12  C   UNL     1      -9.451   8.881  67.573  1.00  0.00    -0.141 A  
HETATM   13  C   UNL     1      -9.721   8.004  66.512  1.00  0.00    -0.297 A  
HETATM   14  C   UNL     1      -8.118   9.095  67.960  1.00  0.00    -0.105 A  
HETATM   15  C   UNL     1      -8.665   7.387  65.827  1.00  0.00    -0.132 A  
HETATM   16  C   UNL     1      -7.343   7.641  66.190  1.00  0.00    -0.078 A  
HETATM   17  C   UNL     1      -7.071   8.494  67.261  1.00  0.00    -0.076 A  
ENDBRANCH   8  12
BRANCH   8  18
HETATM   18  N   UNL     1     -10.378   9.641  69.622  1.00  0.00    -0.211 NA 
HETATM   19  H   UNL     1      -9.937  10.461  70.039  1.00  0.00     0.000 HD 
BRANCH  18  20
HETATM   20  C   UNL     1     -10.823   8.584  70.454  1.00  0.00    -0.234 A  
HETATM   21  C   UNL     1     -11.190   6.245  71.009  1.00  0.00    -0.372 A  
HETATM   22  C   UNL     1     -11.886   6.606  72.159  1.00  0.00    -0.337 A  
HETATM   23  C   UNL     1     -10.626   7.228  70.186  1.00  0.00    -0.245 A  
HETATM   24  C   UNL     1     -11.980   7.947  72.514  1.00  0.00    -0.349 A  
HETATM   25  C   UNL     1     -11.437   8.924  71.674  1.00  0.00    -0.409 A  
ENDBRANCH  18  20
ENDBRANCH   8  18
ENDBRANCH   3   4
ENDBRANCH   2   3
TORSDOF 5
ENDMDL
MODEL       65
REMARK 921   NORMALIZED FREE ENERGY PREDICTED BY IDOCK:   -4.43 KCAL/MOL
REMARK 922        TOTAL FREE ENERGY PREDICTED BY IDOCK:   -6.73 KCAL/MOL
REMARK 923 INTER-LIGAND FREE ENERGY PREDICTED BY IDOCK:   -5.69 KCAL/MOL
REMARK 924 INTRA-LIGAND FREE ENERGY PREDICTED BY IDOCK:   -1.04 KCAL/MOL
REMARK 927      BINDING AFFINITY PREDICTED BY RF-SCORE:    0.00 PKD
ROOT
HETATM    1  C   UNL     1     -12.877  10.822  71.465  1.00  0.00    -0.567 C  
HETATM    2  C   UNL     1     -13.362   9.476  71.989  1.00  0.00    -0.535 C  
ENDROOT
BRANCH   2   3
HETATM    3  C   UNL     1     -12.182   8.590  72.396  1.00  0.00    -0.432 C  
BRANCH   3   4
HETATM    4  C   UNL     1     -11.917   7.456  71.393  1.00  0.00    -0.340 C  
HETATM    5  C   UNL     1     -10.924   7.861  70.275  1.00  0.00    -0.249 C  
HETATM    6  C   UNL     1      -9.622   8.291  70.923  1.00  0.00    -0.165 C  
HETATM    7  C   UNL     1     -10.615   6.712  69.311  1.00  0.00    -0.238 C  
HETATM    8  N   UNL     1      -9.965   7.011  68.085  1.00  0.00    -0.147 N  
HETATM    9  O   UNL     1     -10.826   5.563  69.724  1.00  0.00    -0.331 OA 
HETATM   10  O   UNL     1      -9.233   9.449  70.946  1.00  0.00    -0.244 OA 
HETATM   11  O   UNL     1      -8.935   7.286  71.508  1.00  0.00    -0.130 OA 
BRANCH   8  12
HETATM   12  C   UNL     1      -9.603   8.347  67.723  1.00  0.00    -0.156 A  
HETATM   13  C   UNL     1     -10.616   9.251  67.370  1.00  0.00    -0.324 A  
HETATM   14  C   UNL     1      -8.271   8.793  67.756  1.00  0.00    -0.111 A  
HETATM   15  C   UNL     1     -10.298  10.589  67.099  1.00  0.00    -0.285 A  
HETATM   16  C   UNL     1      -8.979  11.032  67.178  1.00  0.00    -0.145 A  
HETATM   17  C   UNL     1      -7.964  10.130  67.504  1.00  0.00    -0.106 A  
ENDBRANCH   8  12
BRANCH   8  18
HETATM   18  N   UNL     1      -9.044   6.047  67.546  1.00  0.00    -0.111 NA 
HETATM   19  H   UNL     1      -8.197   5.813  68.063  1.00  0.00     0.000 HD 
BRANCH  18  20
HETATM   20  C   UNL     1      -9.303   5.420  66.302  1.00  0.00    -0.154 A  
HETATM   21  C   UNL     1     -10.630   4.087  64.760  1.00  0.00    -0.173 A  
HETATM   22  C   UNL     1      -9.603   4.113  63.821  1.00  0.00    -0.137 A  
HETATM   23  C   UNL     1     -10.496   4.772  65.975  1.00  0.00    -0.332 A  
HETATM   24  C   UNL     1      -8.459   4.862  64.074  1.00  0.00    -0.137 A  
HETATM   25  C   UNL     1      -8.321   5.522  65.300  1.00  0.00    -0.144 A  
ENDBRANCH  18  20
ENDBRANCH   8  18
ENDBRANCH   3   4
ENDBRANCH   2   3
TORSDOF 5
ENDMDL
MODEL       66
REMARK 921   NORMALIZED FREE ENERGY PREDICTED BY IDOCK:   -4.43 KCAL/MOL
REMARK 922        TOTAL FREE ENERGY PREDICTED BY IDOCK:   -6.73 KCAL/MOL
REMARK 923 INTER-LIGAND FREE ENERGY PREDICTED BY IDOCK:   -6.94 KCAL/MOL
REMARK 924 INTRA-LIGAND FREE ENERGY PREDICTED BY IDOCK:    0.21 KCAL/MOL
REMARK 927      BINDING AFFINITY PREDICTED BY RF-SCORE:    0.00 PKD
ROOT
HETATM    1  C   UNL     1     -12.222  11.722  63.231  1.00  0.00    -0.400 C  
HETATM    2  C   UNL     1     -10.764  11.501  62.850  1.00  0.00     0.023 C  
ENDROOT
BRANCH   2   3
HETATM    3  C   UNL     1      -9.832  11.903  63.996  1.00  0.00    -0.259 C  
BRANCH   3   4
HETATM    4  C   UNL     1     -10.488  11.751  65.378  1.00  0.00    -0.317 C  
HETATM    5  C   UNL     1     -10.252  12.976  66.295  1.00  0.00    -0.291 C  
HETATM    6  C   UNL     1     -10.798  14.207  65.599  1.00  0.00    -0.305 C  
HETATM    7  C   UNL     1     -10.956  12.848  67.649  1.00  0.00    -0.247 C  
HETATM    8  N   UNL     1     -10.595  13.743  68.690  1.00  0.00    -0.251 N  
HETATM    9  O   UNL     1     -11.907  12.056  67.712  1.00  0.00    -0.488 OA 
HETATM   10  O   UNL     1     -10.088  15.091  65.142  1.00  0.00    -0.361 OA 
HETATM   11  O   UNL     1     -12.144  14.236  65.495  1.00  0.00    -0.377 OA 
BRANCH   8  12
HETATM   12  C   UNL     1      -9.590  14.746  68.514  1.00  0.00    -0.218 A  
HETATM   13  C   UNL     1      -9.977  16.095  68.487  1.00  0.00    -0.229 A  
HETATM   14  C   UNL     1      -8.226  14.425  68.413  1.00  0.00    -0.145 A  
HETATM   15  C   UNL     1      -9.005  17.101  68.405  1.00  0.00    -0.259 A  
HETATM   16  C   UNL     1      -7.651  16.773  68.351  1.00  0.00    -0.205 A  
HETATM   17  C   UNL     1      -7.263  15.431  68.351  1.00  0.00    -0.114 A  
ENDBRANCH   8  12
BRANCH   8  18
HETATM   18  N   UNL     1     -11.613  14.166  69.613  1.00  0.00    -0.277 NA 
HETATM   19  H   UNL     1     -11.894  15.146  69.640  1.00  0.00     0.000 HD 
BRANCH  18  20
HETATM   20  C   UNL     1     -12.227  13.235  70.486  1.00  0.00    -0.340 A  
HETATM   21  C   UNL     1     -12.666  11.002  71.343  1.00  0.00    -0.534 A  
HETATM   22  C   UNL     1     -13.638  11.501  72.205  1.00  0.00    -0.105 A  
HETATM   23  C   UNL     1     -11.936  11.870  70.520  1.00  0.00    -0.360 A  
HETATM   24  C   UNL     1     -13.850  12.873  72.281  1.00  0.00    -0.464 A  
HETATM   25  C   UNL     1     -13.137  13.731  71.438  1.00  0.00    -0.413 A  
ENDBRANCH  18  20
ENDBRANCH   8  18
ENDBRANCH   3   4
ENDBRANCH   2   3
TORSDOF 5
ENDMDL
MODEL       67
REMARK 921   NORMALIZED FREE ENERGY PREDICTED BY IDOCK:   -4.39 KCAL/MOL
REMARK 922        TOTAL FREE ENERGY PREDICTED BY IDOCK:   -6.68 KCAL/MOL
REMARK 923 INTER-LIGAND FREE ENERGY PREDICTED BY IDOCK:   -5.71 KCAL/MOL
REMARK 924 INTRA-LIGAND FREE ENERGY PREDICTED BY IDOCK:   -0.97 KCAL/MOL
REMARK 927      BINDING AFFINITY PREDICTED BY RF-SCORE:    0.00 PKD
ROOT
HETATM    1  C   UNL     1      -8.837  16.141  66.107  1.00  0.00    -0.367 C  
HETATM    2  C   UNL     1     -10.288  16.492  66.411  1.00  0.00    -0.316 C  
ENDROOT
BRANCH   2   3
HETATM    3  C   UNL     1     -11.207  15.298  66.147  1.00  0.00    -0.225 C  
BRANCH   3   4
HETATM    4  C   UNL     1     -10.568  14.249  65.222  1.00  0.00    -0.396 C  
HETATM    5  C   UNL     1     -10.442  12.856  65.887  1.00  0.00    -0.294 C  
HETATM    6  C   UNL     1     -11.825  12.398  66.305  1.00  0.00    -0.364 C  
HETATM    7  C   UNL     1      -9.859  11.799  64.944  1.00  0.00    -0.223 C  
HETATM    8  N   UNL     1      -9.415  10.568  65.495  1.00  0.00    -0.200 N  
HETATM    9  O   UNL     1      -9.941  12.027  63.729  1.00  0.00    -0.349 OA 
HETATM   10  O   UNL     1     -12.184  12.326  67.471  1.00  0.00    -0.457 OA 
HETATM   11  O   UNL     1     -12.648  12.104  65.276  1.00  0.00    -0.494 OA 
BRANCH   8  12
HETATM   12  C   UNL     1      -9.486  10.295  66.898  1.00  0.00    -0.169 A  
HETATM   13  C   UNL     1     -10.467   9.409  67.366  1.00  0.00    -0.343 A  
HETATM   14  C   UNL     1      -8.575  10.850  67.811  1.00  0.00    -0.128 A  
HETATM   15  C   UNL     1     -10.502   9.055  68.722  1.00  0.00    -0.230 A  
HETATM   16  C   UNL     1      -9.565   9.577  69.613  1.00  0.00    -0.216 A  
HETATM   17  C   UNL     1      -8.603  10.479  69.155  1.00  0.00    -0.157 A  
ENDBRANCH   8  12
BRANCH   8  18
HETATM   18  N   UNL     1      -9.571   9.372  64.712  1.00  0.00    -0.425 NA 
HETATM   19  H   UNL     1     -10.485   9.135  64.328  1.00  0.00     0.000 HD 
BRANCH  18  20
HETATM   20  C   UNL     1      -8.465   8.520  64.470  1.00  0.00    -0.090 A  
HETATM   21  C   UNL     1      -6.320   7.951  63.477  1.00  0.00    -0.063 A  
HETATM   22  C   UNL     1      -6.410   6.654  63.973  1.00  0.00    -0.034 A  
HETATM   23  C   UNL     1      -7.321   8.889  63.760  1.00  0.00    -0.101 A  
HETATM   24  C   UNL     1      -7.478   6.305  64.793  1.00  0.00    -0.086 A  
HETATM   25  C   UNL     1      -8.487   7.238  65.050  1.00  0.00     0.015 A  
ENDBRANCH  18  20
ENDBRANCH   8  18
ENDBRANCH   3   4
ENDBRANCH   2   3
TORSDOF 5
ENDMDL
MODEL       68
REMARK 921   NORMALIZED FREE ENERGY PREDICTED BY IDOCK:   -4.36 KCAL/MOL
REMARK 922        TOTAL FREE ENERGY PREDICTED BY IDOCK:   -6.64 KCAL/MOL
REMARK 923 INTER-LIGAND FREE ENERGY PREDICTED BY IDOCK:   -5.88 KCAL/MOL
REMARK 924 INTRA-LIGAND FREE ENERGY PREDICTED BY IDOCK:   -0.76 KCAL/MOL
REMARK 927      BINDING AFFINITY PREDICTED BY RF-SCORE:    0.00 PKD
ROOT
HETATM    1  C   UNL     1     -10.799  16.475  69.327  1.00  0.00    -0.326 C  
HETATM    2  C   UNL     1     -11.667  15.490  70.100  1.00  0.00    -0.367 C  
ENDROOT
BRANCH   2   3
HETATM    3  C   UNL     1     -11.435  14.057  69.616  1.00  0.00    -0.317 C  
BRANCH   3   4
HETATM    4  C   UNL     1     -10.563  13.991  68.351  1.00  0.00    -0.259 C  
HETATM    5  C   UNL     1     -10.393  12.549  67.811  1.00  0.00    -0.224 C  
HETATM    6  C   UNL     1     -11.769  11.983  67.518  1.00  0.00    -0.280 C  
HETATM    7  C   UNL     1      -9.574  12.493  66.519  1.00  0.00    -0.242 C  
HETATM    8  N   UNL     1      -9.092  11.234  66.075  1.00  0.00    -0.206 N  
HETATM    9  O   UNL     1      -9.500  13.538  65.857  1.00  0.00    -0.167 OA 
HETATM   10  O   UNL     1     -12.286  11.098  68.183  1.00  0.00    -0.612 OA 
HETATM   11  O   UNL     1     -12.398  12.563  66.473  1.00  0.00    -0.507 OA 
BRANCH   8  12
HETATM   12  C   UNL     1      -9.339  10.027  66.803  1.00  0.00    -0.160 A  
HETATM   13  C   UNL     1      -8.666   9.818  68.016  1.00  0.00    -0.118 A  
HETATM   14  C   UNL     1     -10.268   9.069  66.364  1.00  0.00    -0.297 A  
HETATM   15  C   UNL     1      -8.956   8.688  68.792  1.00  0.00    -0.138 A  
HETATM   16  C   UNL     1      -9.912   7.766  68.370  1.00  0.00    -0.195 A  
HETATM   17  C   UNL     1     -10.566   7.957  67.151  1.00  0.00    -0.383 A  
ENDBRANCH   8  12
BRANCH   8  18
HETATM   18  N   UNL     1      -9.007  10.993  64.660  1.00  0.00    -0.348 NA 
HETATM   19  H   UNL     1      -9.690  11.419  64.033  1.00  0.00     0.000 HD 
BRANCH  18  20
HETATM   20  C   UNL     1      -7.985  10.169  64.128  1.00  0.00    -0.154 A  
HETATM   21  C   UNL     1      -5.687   9.404  63.908  1.00  0.00    -0.079 A  
HETATM   22  C   UNL     1      -6.049   8.549  62.871  1.00  0.00    -0.086 A  
HETATM   23  C   UNL     1      -6.657  10.177  64.560  1.00  0.00    -0.118 A  
HETATM   24  C   UNL     1      -7.388   8.429  62.515  1.00  0.00    -0.097 A  
HETATM   25  C   UNL     1      -8.347   9.223  63.152  1.00  0.00    -0.196 A  
ENDBRANCH  18  20
ENDBRANCH   8  18
ENDBRANCH   3   4
ENDBRANCH   2   3
TORSDOF 5
ENDMDL
MODEL       69
REMARK 921   NORMALIZED FREE ENERGY PREDICTED BY IDOCK:   -4.35 KCAL/MOL
REMARK 922        TOTAL FREE ENERGY PREDICTED BY IDOCK:   -6.63 KCAL/MOL
REMARK 923 INTER-LIGAND FREE ENERGY PREDICTED BY IDOCK:   -5.71 KCAL/MOL
REMARK 924 INTRA-LIGAND FREE ENERGY PREDICTED BY IDOCK:   -0.92 KCAL/MOL
REMARK 927      BINDING AFFINITY PREDICTED BY RF-SCORE:    0.00 PKD
ROOT
HETATM    1  C   UNL     1      -8.128   4.702  64.556  1.00  0.00    -0.105 C  
HETATM    2  C   UNL     1      -9.566   4.207  64.640  1.00  0.00    -0.173 C  
ENDROOT
BRANCH   2   3
HETATM    3  C   UNL     1     -10.079   4.254  66.081  1.00  0.00    -0.210 C  
BRANCH   3   4
HETATM    4  C   UNL     1     -10.596   5.645  66.482  1.00  0.00    -0.320 C  
HETATM    5  C   UNL     1     -10.188   6.048  67.922  1.00  0.00    -0.217 C  
HETATM    6  C   UNL     1      -8.676   6.013  68.018  1.00  0.00    -0.112 C  
HETATM    7  C   UNL     1     -10.654   7.457  68.299  1.00  0.00    -0.157 C  
HETATM    8  N   UNL     1     -10.613   7.844  69.664  1.00  0.00    -0.237 N  
HETATM    9  O   UNL     1     -10.907   8.231  67.364  1.00  0.00    -0.219 OA 
HETATM   10  O   UNL     1      -8.062   5.171  68.656  1.00  0.00    -0.085 OA 
HETATM   11  O   UNL     1      -8.051   6.978  67.309  1.00  0.00    -0.112 OA 
BRANCH   8  12
HETATM   12  C   UNL     1     -10.163   6.955  70.691  1.00  0.00    -0.195 A  
HETATM   13  C   UNL     1      -8.980   7.260  71.381  1.00  0.00    -0.139 A  
HETATM   14  C   UNL     1     -10.893   5.813  71.060  1.00  0.00    -0.316 A  
HETATM   15  C   UNL     1      -8.565   6.455  72.450  1.00  0.00    -0.120 A  
HETATM   16  C   UNL     1      -9.320   5.350  72.838  1.00  0.00    -0.145 A  
HETATM   17  C   UNL     1     -10.485   5.028  72.138  1.00  0.00    -0.274 A  
ENDBRANCH   8  12
BRANCH   8  18
HETATM   18  N   UNL     1     -10.315   9.214  69.978  1.00  0.00    -0.196 NA 
HETATM   19  H   UNL     1      -9.374   9.575  69.821  1.00  0.00     0.000 HD 
BRANCH  18  20
HETATM   20  C   UNL     1     -11.315  10.068  70.506  1.00  0.00    -0.335 A  
HETATM   21  C   UNL     1     -12.521  12.171  70.684  1.00  0.00    -0.330 A  
HETATM   22  C   UNL     1     -13.262  11.680  71.755  1.00  0.00    -0.438 A  
HETATM   23  C   UNL     1     -11.584  11.355  70.037  1.00  0.00    -0.382 A  
HETATM   24  C   UNL     1     -13.102  10.357  72.152  1.00  0.00    -0.427 A  
HETATM   25  C   UNL     1     -12.146   9.556  71.519  1.00  0.00    -0.468 A  
ENDBRANCH  18  20
ENDBRANCH   8  18
ENDBRANCH   3   4
ENDBRANCH   2   3
TORSDOF 5
ENDMDL
MODEL       70
REMARK 921   NORMALIZED FREE ENERGY PREDICTED BY IDOCK:   -4.31 KCAL/MOL
REMARK 922        TOTAL FREE ENERGY PREDICTED BY IDOCK:   -6.57 KCAL/MOL
REMARK 923 INTER-LIGAND FREE ENERGY PREDICTED BY IDOCK:   -5.65 KCAL/MOL
REMARK 924 INTRA-LIGAND FREE ENERGY PREDICTED BY IDOCK:   -0.92 KCAL/MOL
REMARK 927      BINDING AFFINITY PREDICTED BY RF-SCORE:    0.00 PKD
ROOT
HETATM    1  C   UNL     1      -7.660   3.427  66.533  1.00  0.00    -0.077 C  
HETATM    2  C   UNL     1      -8.986   2.784  66.919  1.00  0.00    -0.171 C  
ENDROOT
BRANCH   2   3
HETATM    3  C   UNL     1      -9.778   3.688  67.866  1.00  0.00    -0.108 C  
BRANCH   3   4
HETATM    4  C   UNL     1      -9.932   5.121  67.330  1.00  0.00    -0.218 C  
HETATM    5  C   UNL     1      -9.892   6.191  68.449  1.00  0.00    -0.142 C  
HETATM    6  C   UNL     1      -8.577   6.057  69.192  1.00  0.00    -0.117 C  
HETATM    7  C   UNL     1      -9.986   7.620  67.908  1.00  0.00    -0.169 C  
HETATM    8  N   UNL     1     -10.256   8.675  68.818  1.00  0.00    -0.203 N  
HETATM    9  O   UNL     1      -9.677   7.789  66.719  1.00  0.00    -0.193 OA 
HETATM   10  O   UNL     1      -8.492   5.634  70.335  1.00  0.00    -0.122 OA 
HETATM   11  O   UNL     1      -7.493   6.417  68.472  1.00  0.00    -0.084 OA 
BRANCH   8  12
HETATM   12  C   UNL     1     -10.454   8.439  70.215  1.00  0.00    -0.218 A  
HETATM   13  C   UNL     1     -11.567   7.691  70.625  1.00  0.00    -0.251 A  
HETATM   14  C   UNL     1      -9.543   8.895  71.183  1.00  0.00    -0.342 A  
HETATM   15  C   UNL     1     -11.736   7.370  71.979  1.00  0.00    -0.325 A  
HETATM   16  C   UNL     1     -10.802   7.788  72.927  1.00  0.00    -0.453 A  
HETATM   17  C   UNL     1      -9.706   8.555  72.526  1.00  0.00    -0.326 A  
ENDBRANCH   8  12
BRANCH   8  18
HETATM   18  N   UNL     1      -9.658   9.959  68.575  1.00  0.00    -0.151 NA 
HETATM   19  H   UNL     1      -8.672  10.105  68.787  1.00  0.00     0.000 HD 
BRANCH  18  20
HETATM   20  C   UNL     1     -10.427  11.024  68.044  1.00  0.00    -0.189 A  
HETATM   21  C   UNL     1     -11.829  13.004  68.214  1.00  0.00    -0.381 A  
HETATM   22  C   UNL     1     -12.036  13.001  66.837  1.00  0.00    -0.415 A  
HETATM   23  C   UNL     1     -10.996  12.047  68.807  1.00  0.00    -0.282 A  
HETATM   24  C   UNL     1     -11.372  12.071  66.045  1.00  0.00    -0.398 A  
HETATM   25  C   UNL     1     -10.562  11.102  66.646  1.00  0.00    -0.314 A  
ENDBRANCH  18  20
ENDBRANCH   8  18
ENDBRANCH   3   4
ENDBRANCH   2   3
TORSDOF 5
ENDMDL
MODEL       71
REMARK 921   NORMALIZED FREE ENERGY PREDICTED BY IDOCK:   -4.26 KCAL/MOL
REMARK 922        TOTAL FREE ENERGY PREDICTED BY IDOCK:   -6.52 KCAL/MOL
REMARK 923 INTER-LIGAND FREE ENERGY PREDICTED BY IDOCK:   -5.63 KCAL/MOL
REMARK 924 INTRA-LIGAND FREE ENERGY PREDICTED BY IDOCK:   -0.88 KCAL/MOL
REMARK 927      BINDING AFFINITY PREDICTED BY RF-SCORE:    0.00 PKD
ROOT
HETATM    1  C   UNL     1      -6.398  19.329  69.375  1.00  0.00    -0.337 C  
HETATM    2  C   UNL     1      -7.845  19.530  68.942  1.00  0.00    -0.349 C  
ENDROOT
BRANCH   2   3
HETATM    3  C   UNL     1      -8.033  19.156  67.470  1.00  0.00    -0.284 C  
BRANCH   3   4
HETATM    4  C   UNL     1      -7.821  17.657  67.205  1.00  0.00    -0.222 C  
HETATM    5  C   UNL     1      -8.989  16.782  67.725  1.00  0.00    -0.216 C  
HETATM    6  C   UNL     1     -10.268  17.246  67.057  1.00  0.00    -0.320 C  
HETATM    7  C   UNL     1      -8.804  15.295  67.408  1.00  0.00    -0.179 C  
HETATM    8  N   UNL     1      -9.632  14.351  68.069  1.00  0.00    -0.210 N  
HETATM    9  O   UNL     1      -8.032  15.013  66.480  1.00  0.00     0.051 OA 
HETATM   10  O   UNL     1     -11.159  17.838  67.649  1.00  0.00    -0.201 OA 
HETATM   11  O   UNL     1     -10.333  16.981  65.735  1.00  0.00    -0.483 OA 
BRANCH   8  12
HETATM   12  C   UNL     1     -10.621  14.747  69.025  1.00  0.00    -0.248 A  
HETATM   13  C   UNL     1     -10.210  15.426  70.182  1.00  0.00    -0.216 A  
HETATM   14  C   UNL     1     -11.991  14.519  68.817  1.00  0.00    -0.315 A  
HETATM   15  C   UNL     1     -11.165  15.903  71.090  1.00  0.00    -0.360 A  
HETATM   16  C   UNL     1     -12.525  15.711  70.853  1.00  0.00    -0.497 A  
HETATM   17  C   UNL     1     -12.937  15.014  69.715  1.00  0.00     0.187 A  
ENDBRANCH   8  12
BRANCH   8  18
HETATM   18  N   UNL     1     -10.028  13.169  67.354  1.00  0.00    -0.226 NA 
HETATM   19  H   UNL     1     -10.444  13.254  66.426  1.00  0.00     0.000 HD 
BRANCH  18  20
HETATM   20  C   UNL     1      -9.848  11.885  67.926  1.00  0.00    -0.190 A  
HETATM   21  C   UNL     1     -10.603   9.693  68.658  1.00  0.00    -0.246 A  
HETATM   22  C   UNL     1      -9.356   9.426  69.216  1.00  0.00    -0.167 A  
HETATM   23  C   UNL     1     -10.833  10.897  67.981  1.00  0.00    -0.293 A  
HETATM   24  C   UNL     1      -8.322  10.343  69.057  1.00  0.00    -0.150 A  
HETATM   25  C   UNL     1      -8.566  11.554  68.403  1.00  0.00    -0.159 A  
ENDBRANCH  18  20
ENDBRANCH   8  18
ENDBRANCH   3   4
ENDBRANCH   2   3
TORSDOF 5
ENDMDL
MODEL       72
REMARK 921   NORMALIZED FREE ENERGY PREDICTED BY IDOCK:   -4.25 KCAL/MOL
REMARK 922        TOTAL FREE ENERGY PREDICTED BY IDOCK:   -6.50 KCAL/MOL
REMARK 923 INTER-LIGAND FREE ENERGY PREDICTED BY IDOCK:   -6.30 KCAL/MOL
REMARK 924 INTRA-LIGAND FREE ENERGY PREDICTED BY IDOCK:   -0.20 KCAL/MOL
REMARK 927      BINDING AFFINITY PREDICTED BY RF-SCORE:    0.00 PKD
ROOT
HETATM    1  C   UNL     1      -9.669   4.181  67.338  1.00  0.00    -0.202 C  
HETATM    2  C   UNL     1     -10.521   5.015  66.389  1.00  0.00    -0.349 C  
ENDROOT
BRANCH   2   3
HETATM    3  C   UNL     1     -10.854   6.376  67.005  1.00  0.00    -0.464 C  
BRANCH   3   4
HETATM    4  C   UNL     1      -9.766   6.874  67.970  1.00  0.00    -0.138 C  
HETATM    5  C   UNL     1     -10.348   7.533  69.245  1.00  0.00    -0.209 C  
HETATM    6  C   UNL     1     -11.233   6.521  69.946  1.00  0.00    -0.395 C  
HETATM    7  C   UNL     1      -9.264   7.976  70.232  1.00  0.00    -0.155 C  
HETATM    8  N   UNL     1      -9.625   8.848  71.292  1.00  0.00    -0.253 N  
HETATM    9  O   UNL     1      -8.156   7.429  70.128  1.00  0.00    -0.125 OA 
HETATM   10  O   UNL     1     -12.451   6.613  69.994  1.00  0.00     0.054 OA 
HETATM   11  O   UNL     1     -10.565   5.482  70.491  1.00  0.00    -0.269 OA 
BRANCH   8  12
HETATM   12  C   UNL     1     -10.962   9.330  71.456  1.00  0.00    -0.375 A  
HETATM   13  C   UNL     1     -11.411  10.374  70.633  1.00  0.00    -0.411 A  
HETATM   14  C   UNL     1     -11.851   8.760  72.381  1.00  0.00    -0.356 A  
HETATM   15  C   UNL     1     -12.742  10.805  70.711  1.00  0.00    -0.451 A  
HETATM   16  C   UNL     1     -13.629  10.202  71.601  1.00  0.00    -0.275 A  
HETATM   17  C   UNL     1     -13.180   9.180  72.440  1.00  0.00    -0.512 A  
ENDBRANCH   8  12
BRANCH   8  18
HETATM   18  N   UNL     1      -8.953   8.705  72.555  1.00  0.00    -0.380 NA 
HETATM   19  H   UNL     1      -8.562   9.527  73.015  1.00  0.00     0.000 HD 
BRANCH  18  20
HETATM   20  C   UNL     1      -8.828   7.433  73.167  1.00  0.00    -0.149 A  
HETATM   21  C   UNL     1      -7.615   5.427  73.809  1.00  0.00    -0.094 A  
HETATM   22  C   UNL     1      -8.782   4.854  74.304  1.00  0.00    -0.113 A  
HETATM   23  C   UNL     1      -7.631   6.725  73.283  1.00  0.00    -0.089 A  
HETATM   24  C   UNL     1      -9.959   5.595  74.318  1.00  0.00    -0.245 A  
HETATM   25  C   UNL     1      -9.974   6.880  73.767  1.00  0.00    -0.345 A  
ENDBRANCH  18  20
ENDBRANCH   8  18
ENDBRANCH   3   4
ENDBRANCH   2   3
TORSDOF 5
ENDMDL
MODEL       73
REMARK 921   NORMALIZED FREE ENERGY PREDICTED BY IDOCK:   -4.25 KCAL/MOL
REMARK 922        TOTAL FREE ENERGY PREDICTED BY IDOCK:   -6.50 KCAL/MOL
REMARK 923 INTER-LIGAND FREE ENERGY PREDICTED BY IDOCK:   -5.60 KCAL/MOL
REMARK 924 INTRA-LIGAND FREE ENERGY PREDICTED BY IDOCK:   -0.91 KCAL/MOL
REMARK 927      BINDING AFFINITY PREDICTED BY RF-SCORE:    0.00 PKD
ROOT
HETATM    1  C   UNL     1     -10.423   7.060  73.201  1.00  0.00    -0.335 C  
HETATM    2  C   UNL     1     -11.476   6.641  72.184  1.00  0.00    -0.323 C  
ENDROOT
BRANCH   2   3
HETATM    3  C   UNL     1     -10.848   5.830  71.048  1.00  0.00    -0.316 C  
BRANCH   3   4
HETATM    4  C   UNL     1     -11.180   6.399  69.658  1.00  0.00    -0.483 C  
HETATM    5  C   UNL     1     -10.018   7.225  69.052  1.00  0.00    -0.177 C  
HETATM    6  C   UNL     1      -8.793   6.337  68.966  1.00  0.00    -0.124 C  
HETATM    7  C   UNL     1     -10.329   7.741  67.644  1.00  0.00    -0.239 C  
HETATM    8  N   UNL     1      -9.493   8.745  67.089  1.00  0.00    -0.155 N  
HETATM    9  O   UNL     1     -11.213   7.145  67.013  1.00  0.00    -0.277 OA 
HETATM   10  O   UNL     1      -7.809   6.479  69.676  1.00  0.00    -0.106 OA 
HETATM   11  O   UNL     1      -8.889   5.345  68.054  1.00  0.00    -0.106 OA 
BRANCH   8  12
HETATM   12  C   UNL     1      -8.384   9.293  67.809  1.00  0.00    -0.116 A  
HETATM   13  C   UNL     1      -8.635  10.110  68.921  1.00  0.00    -0.141 A  
HETATM   14  C   UNL     1      -7.054   8.999  67.463  1.00  0.00    -0.076 A  
HETATM   15  C   UNL     1      -7.569  10.585  69.696  1.00  0.00    -0.134 A  
HETATM   16  C   UNL     1      -6.255  10.252  69.372  1.00  0.00    -0.047 A  
HETATM   17  C   UNL     1      -5.999   9.460  68.250  1.00  0.00    -0.044 A  
ENDBRANCH   8  12
BRANCH   8  18
HETATM   18  N   UNL     1      -9.251   8.728  65.672  1.00  0.00    -0.354 NA 
HETATM   19  H   UNL     1      -8.843   7.900  65.239  1.00  0.00     0.000 HD 
BRANCH  18  20
HETATM   20  C   UNL     1      -9.574   9.851  64.871  1.00  0.00    -0.288 A  
HETATM   21  C   UNL     1      -9.405  11.237  62.881  1.00  0.00    -0.376 A  
HETATM   22  C   UNL     1     -10.213  12.209  63.463  1.00  0.00    -0.453 A  
HETATM   23  C   UNL     1      -9.123  10.048  63.565  1.00  0.00    -0.303 A  
HETATM   24  C   UNL     1     -10.779  11.974  64.711  1.00  0.00    -0.352 A  
HETATM   25  C   UNL     1     -10.473  10.796  65.400  1.00  0.00    -0.272 A  
ENDBRANCH  18  20
ENDBRANCH   8  18
ENDBRANCH   3   4
ENDBRANCH   2   3
TORSDOF 5
ENDMDL
MODEL       74
REMARK 921   NORMALIZED FREE ENERGY PREDICTED BY IDOCK:   -4.21 KCAL/MOL
REMARK 922        TOTAL FREE ENERGY PREDICTED BY IDOCK:   -6.45 KCAL/MOL
REMARK 923 INTER-LIGAND FREE ENERGY PREDICTED BY IDOCK:   -5.64 KCAL/MOL
REMARK 924 INTRA-LIGAND FREE ENERGY PREDICTED BY IDOCK:   -0.80 KCAL/MOL
REMARK 927      BINDING AFFINITY PREDICTED BY RF-SCORE:    0.00 PKD
ROOT
HETATM    1  C   UNL     1     -13.550   9.091  72.402  1.00  0.00    -0.533 C  
HETATM    2  C   UNL     1     -13.484   7.879  71.482  1.00  0.00    -0.352 C  
ENDROOT
BRANCH   2   3
HETATM    3  C   UNL     1     -12.136   7.165  71.613  1.00  0.00    -0.371 C  
BRANCH   3   4
HETATM    4  C   UNL     1     -11.495   6.850  70.252  1.00  0.00    -0.373 C  
HETATM    5  C   UNL     1     -10.853   8.093  69.586  1.00  0.00    -0.162 C  
HETATM    6  C   UNL     1      -9.807   8.654  70.529  1.00  0.00    -0.179 C  
HETATM    7  C   UNL     1     -10.164   7.765  68.258  1.00  0.00    -0.201 C  
HETATM    8  N   UNL     1      -9.795   8.836  67.402  1.00  0.00    -0.180 N  
HETATM    9  O   UNL     1      -9.840   6.584  68.073  1.00  0.00    -0.121 OA 
HETATM   10  O   UNL     1      -9.941   9.712  71.128  1.00  0.00    -0.221 OA 
HETATM   11  O   UNL     1      -8.719   7.870  70.683  1.00  0.00    -0.131 OA 
BRANCH   8  12
HETATM   12  C   UNL     1     -10.057  10.202  67.739  1.00  0.00    -0.180 A  
HETATM   13  C   UNL     1     -11.381  10.664  67.712  1.00  0.00    -0.320 A  
HETATM   14  C   UNL     1      -9.036  11.079  68.140  1.00  0.00    -0.152 A  
HETATM   15  C   UNL     1     -11.676  11.971  68.122  1.00  0.00    -0.398 A  
HETATM   16  C   UNL     1     -10.661  12.820  68.562  1.00  0.00    -0.275 A  
HETATM   17  C   UNL     1      -9.339  12.372  68.567  1.00  0.00    -0.090 A  
ENDBRANCH   8  12
BRANCH   8  18
HETATM   18  N   UNL     1      -8.598   8.703  66.617  1.00  0.00    -0.115 NA 
HETATM   19  H   UNL     1      -7.716   8.473  67.074  1.00  0.00     0.000 HD 
BRANCH  18  20
HETATM   20  C   UNL     1      -8.633   8.888  65.213  1.00  0.00    -0.184 A  
HETATM   21  C   UNL     1      -9.348  10.000  63.172  1.00  0.00    -0.297 A  
HETATM   22  C   UNL     1      -8.710   9.036  62.398  1.00  0.00    -0.210 A  
HETATM   23  C   UNL     1      -9.274   9.949  64.570  1.00  0.00    -0.315 A  
HETATM   24  C   UNL     1      -7.956   8.045  63.018  1.00  0.00    -0.148 A  
HETATM   25  C   UNL     1      -7.907   7.985  64.414  1.00  0.00    -0.139 A  
ENDBRANCH  18  20
ENDBRANCH   8  18
ENDBRANCH   3   4
ENDBRANCH   2   3
TORSDOF 5
ENDMDL
MODEL       75
REMARK 921   NORMALIZED FREE ENERGY PREDICTED BY IDOCK:   -4.21 KCAL/MOL
REMARK 922        TOTAL FREE ENERGY PREDICTED BY IDOCK:   -6.44 KCAL/MOL
REMARK 923 INTER-LIGAND FREE ENERGY PREDICTED BY IDOCK:   -5.74 KCAL/MOL
REMARK 924 INTRA-LIGAND FREE ENERGY PREDICTED BY IDOCK:   -0.71 KCAL/MOL
REMARK 927      BINDING AFFINITY PREDICTED BY RF-SCORE:    0.00 PKD
ROOT
HETATM    1  C   UNL     1     -10.184   7.750  72.871  1.00  0.00    -0.377 C  
HETATM    2  C   UNL     1     -10.858   7.585  71.515  1.00  0.00    -0.253 C  
ENDROOT
BRANCH   2   3
HETATM    3  C   UNL     1      -9.894   7.937  70.379  1.00  0.00    -0.183 C  
BRANCH   3   4
HETATM    4  C   UNL     1     -10.448   9.026  69.446  1.00  0.00    -0.229 C  
HETATM    5  C   UNL     1      -9.628   9.175  68.140  1.00  0.00    -0.160 C  
HETATM    6  C   UNL     1      -9.620   7.839  67.424  1.00  0.00    -0.151 C  
HETATM    7  C   UNL     1     -10.215  10.219  67.186  1.00  0.00    -0.225 C  
HETATM    8  N   UNL     1      -9.420  10.671  66.100  1.00  0.00    -0.173 N  
HETATM    9  O   UNL     1     -11.411  10.505  67.338  1.00  0.00    -0.405 OA 
HETATM   10  O   UNL     1      -8.627   7.132  67.331  1.00  0.00    -0.121 OA 
HETATM   11  O   UNL     1     -10.817   7.472  66.919  1.00  0.00    -0.345 OA 
BRANCH   8  12
HETATM   12  C   UNL     1      -8.091  10.189  65.882  1.00  0.00    -0.136 A  
HETATM   13  C   UNL     1      -7.087  10.532  66.800  1.00  0.00    -0.109 A  
HETATM   14  C   UNL     1      -7.771   9.348  64.803  1.00  0.00    -0.116 A  
HETATM   15  C   UNL     1      -5.797  10.001  66.658  1.00  0.00    -0.055 A  
HETATM   16  C   UNL     1      -5.502   9.131  65.610  1.00  0.00    -0.041 A  
HETATM   17  C   UNL     1      -6.492   8.808  64.679  1.00  0.00    -0.066 A  
ENDBRANCH   8  12
BRANCH   8  18
HETATM   18  N   UNL     1     -10.075  11.004  64.865  1.00  0.00    -0.278 NA 
HETATM   19  H   UNL     1     -10.111  10.318  64.111  1.00  0.00     0.000 HD 
BRANCH  18  20
HETATM   20  C   UNL     1     -10.669  12.277  64.684  1.00  0.00    -0.308 A  
HETATM   21  C   UNL     1     -10.989  14.633  65.195  1.00  0.00    -0.395 A  
HETATM   22  C   UNL     1     -12.047  14.707  64.294  1.00  0.00    -0.437 A  
HETATM   23  C   UNL     1     -10.278  13.437  65.357  1.00  0.00    -0.311 A  
HETATM   24  C   UNL     1     -12.366  13.598  63.517  1.00  0.00    -0.265 A  
HETATM   25  C   UNL     1     -11.670  12.400  63.702  1.00  0.00    -0.596 A  
ENDBRANCH  18  20
ENDBRANCH   8  18
ENDBRANCH   3   4
ENDBRANCH   2   3
TORSDOF 5
ENDMDL
MODEL       76
REMARK 921   NORMALIZED FREE ENERGY PREDICTED BY IDOCK:   -4.19 KCAL/MOL
REMARK 922        TOTAL FREE ENERGY PREDICTED BY IDOCK:   -6.43 KCAL/MOL
REMARK 923 INTER-LIGAND FREE ENERGY PREDICTED BY IDOCK:   -5.51 KCAL/MOL
REMARK 924 INTRA-LIGAND FREE ENERGY PREDICTED BY IDOCK:   -0.92 KCAL/MOL
REMARK 927      BINDING AFFINITY PREDICTED BY RF-SCORE:    0.00 PKD
ROOT
HETATM    1  C   UNL     1      -9.406  10.145  62.424  1.00  0.00    -0.297 C  
HETATM    2  C   UNL     1      -7.908  10.397  62.531  1.00  0.00    -0.173 C  
ENDROOT
BRANCH   2   3
HETATM    3  C   UNL     1      -7.359   9.880  63.862  1.00  0.00    -0.131 C  
BRANCH   3   4
HETATM    4  C   UNL     1      -8.081  10.484  65.078  1.00  0.00    -0.096 C  
HETATM    5  C   UNL     1      -8.444   9.426  66.150  1.00  0.00    -0.127 C  
HETATM    6  C   UNL     1      -7.169   8.741  66.598  1.00  0.00    -0.081 C  
HETATM    7  C   UNL     1      -9.110  10.038  67.385  1.00  0.00    -0.134 C  
HETATM    8  N   UNL     1      -9.757   9.174  68.307  1.00  0.00    -0.151 N  
HETATM    9  O   UNL     1      -8.921  11.247  67.582  1.00  0.00    -0.138 OA 
HETATM   10  O   UNL     1      -6.896   7.582  66.321  1.00  0.00    -0.058 OA 
HETATM   11  O   UNL     1      -6.333   9.529  67.306  1.00  0.00    -0.066 OA 
BRANCH   8  12
HETATM   12  C   UNL     1      -9.813   7.758  68.108  1.00  0.00    -0.167 A  
HETATM   13  C   UNL     1      -9.047   6.926  68.938  1.00  0.00    -0.134 A  
HETATM   14  C   UNL     1     -10.647   7.175  67.139  1.00  0.00    -0.417 A  
HETATM   15  C   UNL     1      -9.152   5.534  68.823  1.00  0.00    -0.131 A  
HETATM   16  C   UNL     1     -10.016   4.964  67.890  1.00  0.00    -0.181 A  
HETATM   17  C   UNL     1     -10.762   5.788  67.044  1.00  0.00    -0.369 A  
ENDBRANCH   8  12
BRANCH   8  18
HETATM   18  N   UNL     1      -9.724   9.514  69.703  1.00  0.00    -0.187 NA 
HETATM   19  H   UNL     1      -8.835   9.744  70.146  1.00  0.00     0.000 HD 
BRANCH  18  20
HETATM   20  C   UNL     1     -10.915   9.531  70.470  1.00  0.00    -0.288 A  
HETATM   21  C   UNL     1     -13.056  10.454  71.162  1.00  0.00    -0.474 A  
HETATM   22  C   UNL     1     -13.164   9.502  72.171  1.00  0.00    -0.539 A  
HETATM   23  C   UNL     1     -11.959  10.441  70.291  1.00  0.00    -0.387 A  
HETATM   24  C   UNL     1     -12.200   8.506  72.283  1.00  0.00    -0.454 A  
HETATM   25  C   UNL     1     -11.094   8.515  71.427  1.00  0.00    -0.328 A  
ENDBRANCH  18  20
ENDBRANCH   8  18
ENDBRANCH   3   4
ENDBRANCH   2   3
TORSDOF 5
ENDMDL
MODEL       77
REMARK 921   NORMALIZED FREE ENERGY PREDICTED BY IDOCK:   -4.17 KCAL/MOL
REMARK 922        TOTAL FREE ENERGY PREDICTED BY IDOCK:   -6.40 KCAL/MOL
REMARK 923 INTER-LIGAND FREE ENERGY PREDICTED BY IDOCK:   -5.45 KCAL/MOL
REMARK 924 INTRA-LIGAND FREE ENERGY PREDICTED BY IDOCK:   -0.95 KCAL/MOL
REMARK 927      BINDING AFFINITY PREDICTED BY RF-SCORE:    0.00 PKD
ROOT
HETATM    1  C   UNL     1     -10.212   5.617  70.272  1.00  0.00    -0.311 C  
HETATM    2  C   UNL     1      -8.752   6.020  70.436  1.00  0.00    -0.144 C  
ENDROOT
BRANCH   2   3
HETATM    3  C   UNL     1      -8.285   6.879  69.259  1.00  0.00    -0.125 C  
BRANCH   3   4
HETATM    4  C   UNL     1      -9.031   8.220  69.168  1.00  0.00    -0.147 C  
HETATM    5  C   UNL     1      -9.113   8.768  67.721  1.00  0.00    -0.143 C  
HETATM    6  C   UNL     1      -9.806   7.734  66.857  1.00  0.00    -0.235 C  
HETATM    7  C   UNL     1      -9.907  10.074  67.625  1.00  0.00    -0.162 C  
HETATM    8  N   UNL     1      -9.817  10.837  66.432  1.00  0.00    -0.201 N  
HETATM    9  O   UNL     1     -10.698  10.316  68.547  1.00  0.00    -0.202 OA 
HETATM   10  O   UNL     1      -9.230   7.077  66.002  1.00  0.00    -0.127 OA 
HETATM   11  O   UNL     1     -11.118   7.570  67.130  1.00  0.00    -0.216 OA 
BRANCH   8  12
HETATM   12  C   UNL     1      -9.001  10.429  65.329  1.00  0.00    -0.187 A  
HETATM   13  C   UNL     1      -9.613  10.164  64.095  1.00  0.00    -0.336 A  
HETATM   14  C   UNL     1      -7.603  10.330  65.434  1.00  0.00    -0.146 A  
HETATM   15  C   UNL     1      -8.829   9.849  62.977  1.00  0.00    -0.251 A  
HETATM   16  C   UNL     1      -7.439   9.798  63.080  1.00  0.00    -0.124 A  
HETATM   17  C   UNL     1      -6.828  10.036  64.313  1.00  0.00    -0.126 A  
ENDBRANCH   8  12
BRANCH   8  18
HETATM   18  N   UNL     1     -10.978  11.562  65.994  1.00  0.00    -0.284 NA 
HETATM   19  H   UNL     1     -11.802  11.052  65.677  1.00  0.00     0.000 HD 
BRANCH  18  20
HETATM   20  C   UNL     1     -10.988  12.979  65.998  1.00  0.00    -0.275 A  
HETATM   21  C   UNL     1     -10.555  15.171  65.037  1.00  0.00    -0.439 A  
HETATM   22  C   UNL     1     -10.948  15.790  66.220  1.00  0.00    -0.163 A  
HETATM   23  C   UNL     1     -10.615  13.777  64.914  1.00  0.00    -0.427 A  
HETATM   24  C   UNL     1     -11.447  15.021  67.265  1.00  0.00    -0.312 A  
HETATM   25  C   UNL     1     -11.480  13.628  67.145  1.00  0.00    -0.367 A  
ENDBRANCH  18  20
ENDBRANCH   8  18
ENDBRANCH   3   4
ENDBRANCH   2   3
TORSDOF 5
ENDMDL
MODEL       78
REMARK 921   NORMALIZED FREE ENERGY PREDICTED BY IDOCK:   -4.16 KCAL/MOL
REMARK 922        TOTAL FREE ENERGY PREDICTED BY IDOCK:   -6.39 KCAL/MOL
REMARK 923 INTER-LIGAND FREE ENERGY PREDICTED BY IDOCK:   -6.13 KCAL/MOL
REMARK 924 INTRA-LIGAND FREE ENERGY PREDICTED BY IDOCK:   -0.25 KCAL/MOL
REMARK 927      BINDING AFFINITY PREDICTED BY RF-SCORE:    0.00 PKD
ROOT
HETATM    1  C   UNL     1      -9.509   4.124  66.823  1.00  0.00    -0.211 C  
HETATM    2  C   UNL     1     -10.227   5.442  67.083  1.00  0.00    -0.266 C  
ENDROOT
BRANCH   2   3
HETATM    3  C   UNL     1      -9.610   6.574  66.258  1.00  0.00    -0.096 C  
BRANCH   3   4
HETATM    4  C   UNL     1     -10.289   7.930  66.508  1.00  0.00    -0.132 C  
HETATM    5  C   UNL     1     -10.284   8.340  68.002  1.00  0.00    -0.265 C  
HETATM    6  C   UNL     1      -8.846   8.389  68.480  1.00  0.00    -0.136 C  
HETATM    7  C   UNL     1     -10.908   9.718  68.241  1.00  0.00    -0.210 C  
HETATM    8  N   UNL     1     -11.237  10.094  69.570  1.00  0.00    -0.244 N  
HETATM    9  O   UNL     1     -10.959  10.486  67.269  1.00  0.00    -0.291 OA 
HETATM   10  O   UNL     1      -8.369   7.576  69.257  1.00  0.00    -0.129 OA 
HETATM   11  O   UNL     1      -8.117   9.394  67.948  1.00  0.00    -0.102 OA 
BRANCH   8  12
HETATM   12  C   UNL     1     -11.014   9.221  70.682  1.00  0.00    -0.276 A  
HETATM   13  C   UNL     1     -11.954   8.216  70.953  1.00  0.00    -0.195 A  
HETATM   14  C   UNL     1      -9.861   9.312  71.480  1.00  0.00    -0.245 A  
HETATM   15  C   UNL     1     -11.716   7.293  71.981  1.00  0.00    -0.329 A  
HETATM   16  C   UNL     1     -10.547   7.363  72.738  1.00  0.00    -0.345 A  
HETATM   17  C   UNL     1      -9.621   8.378  72.487  1.00  0.00    -0.358 A  
ENDBRANCH   8  12
BRANCH   8  18
HETATM   18  N   UNL     1     -11.106  11.475  69.943  1.00  0.00    -0.478 NA 
HETATM   19  H   UNL     1     -10.298  12.010  69.625  1.00  0.00     0.000 HD 
BRANCH  18  20
HETATM   20  C   UNL     1     -12.088  12.101  70.750  1.00  0.00    -0.181 A  
HETATM   21  C   UNL     1     -13.946  12.111  72.319  1.00  0.00     0.229 A  
HETATM   22  C   UNL     1     -14.075  13.490  72.190  1.00  0.00    -0.506 A  
HETATM   23  C   UNL     1     -12.932  11.427  71.636  1.00  0.00    -0.523 A  
HETATM   24  C   UNL     1     -13.161  14.197  71.416  1.00  0.00    -0.428 A  
HETATM   25  C   UNL     1     -12.167  13.506  70.716  1.00  0.00    -0.417 A  
ENDBRANCH  18  20
ENDBRANCH   8  18
ENDBRANCH   3   4
ENDBRANCH   2   3
TORSDOF 5
ENDMDL
MODEL       79
REMARK 921   NORMALIZED FREE ENERGY PREDICTED BY IDOCK:   -4.14 KCAL/MOL
REMARK 922        TOTAL FREE ENERGY PREDICTED BY IDOCK:   -6.36 KCAL/MOL
REMARK 923 INTER-LIGAND FREE ENERGY PREDICTED BY IDOCK:   -5.66 KCAL/MOL
REMARK 924 INTRA-LIGAND FREE ENERGY PREDICTED BY IDOCK:   -0.69 KCAL/MOL
REMARK 927      BINDING AFFINITY PREDICTED BY RF-SCORE:    0.00 PKD
ROOT
HETATM    1  C   UNL     1      -5.673   7.121  65.890  1.00  0.00    -0.032 C  
HETATM    2  C   UNL     1      -7.050   7.698  65.585  1.00  0.00    -0.061 C  
ENDROOT
BRANCH   2   3
HETATM    3  C   UNL     1      -7.125   9.174  65.982  1.00  0.00    -0.090 C  
BRANCH   3   4
HETATM    4  C   UNL     1      -8.215   9.454  67.029  1.00  0.00    -0.116 C  
HETATM    5  C   UNL     1      -8.847  10.860  66.879  1.00  0.00    -0.145 C  
HETATM    6  C   UNL     1      -9.431  10.977  65.485  1.00  0.00    -0.216 C  
HETATM    7  C   UNL     1      -9.974  11.115  67.885  1.00  0.00    -0.173 C  
HETATM    8  N   UNL     1     -10.439  12.444  68.062  1.00  0.00    -0.211 N  
HETATM    9  O   UNL     1     -10.513  10.117  68.385  1.00  0.00    -0.187 OA 
HETATM   10  O   UNL     1      -8.953  11.690  64.615  1.00  0.00     0.126 OA 
HETATM   11  O   UNL     1     -10.512  10.199  65.268  1.00  0.00    -0.193 OA 
BRANCH   8  12
HETATM   12  C   UNL     1      -9.881  13.546  67.340  1.00  0.00    -0.227 A  
HETATM   13  C   UNL     1     -10.580  14.056  66.236  1.00  0.00    -0.281 A  
HETATM   14  C   UNL     1      -8.679  14.160  67.731  1.00  0.00    -0.182 A  
HETATM   15  C   UNL     1     -10.101  15.190  65.567  1.00  0.00    -0.402 A  
HETATM   16  C   UNL     1      -8.931  15.820  65.990  1.00  0.00    -0.322 A  
HETATM   17  C   UNL     1      -8.219  15.299  67.072  1.00  0.00    -0.267 A  
ENDBRANCH   8  12
BRANCH   8  18
HETATM   18  N   UNL     1     -11.833  12.648  68.351  1.00  0.00    -0.322 NA 
HETATM   19  H   UNL     1     -12.506  12.689  67.586  1.00  0.00     0.000 HD 
BRANCH  18  20
HETATM   20  C   UNL     1     -12.279  12.796  69.687  1.00  0.00    -0.126 A  
HETATM   21  C   UNL     1     -12.963  11.964  71.867  1.00  0.00    -0.434 A  
HETATM   22  C   UNL     1     -13.302  13.250  72.275  1.00  0.00    -0.630 A  
HETATM   23  C   UNL     1     -12.416  11.745  70.596  1.00  0.00    -0.364 A  
HETATM   24  C   UNL     1     -13.050  14.327  71.432  1.00  0.00    -0.421 A  
HETATM   25  C   UNL     1     -12.528  14.099  70.155  1.00  0.00    -0.391 A  
ENDBRANCH  18  20
ENDBRANCH   8  18
ENDBRANCH   3   4
ENDBRANCH   2   3
TORSDOF 5
ENDMDL
MODEL       80
REMARK 921   NORMALIZED FREE ENERGY PREDICTED BY IDOCK:   -4.13 KCAL/MOL
REMARK 922        TOTAL FREE ENERGY PREDICTED BY IDOCK:   -6.34 KCAL/MOL
REMARK 923 INTER-LIGAND FREE ENERGY PREDICTED BY IDOCK:   -5.31 KCAL/MOL
REMARK 924 INTRA-LIGAND FREE ENERGY PREDICTED BY IDOCK:   -1.03 KCAL/MOL
REMARK 927      BINDING AFFINITY PREDICTED BY RF-SCORE:    0.00 PKD
ROOT
HETATM    1  C   UNL     1     -12.897  11.296  71.210  1.00  0.00    -0.491 C  
HETATM    2  C   UNL     1     -13.393   9.866  71.041  1.00  0.00    -0.322 C  
ENDROOT
BRANCH   2   3
HETATM    3  C   UNL     1     -12.928   8.984  72.202  1.00  0.00    -0.490 C  
BRANCH   3   4
HETATM    4  C   UNL     1     -12.414   7.611  71.738  1.00  0.00    -0.358 C  
HETATM    5  C   UNL     1     -11.251   7.715  70.721  1.00  0.00    -0.282 C  
HETATM    6  C   UNL     1     -10.121   8.496  71.364  1.00  0.00    -0.234 C  
HETATM    7  C   UNL     1     -10.702   6.347  70.305  1.00  0.00    -0.266 C  
HETATM    8  N   UNL     1      -9.848   6.274  69.174  1.00  0.00    -0.141 N  
HETATM    9  O   UNL     1     -10.925   5.399  71.071  1.00  0.00    -0.179 OA 
HETATM   10  O   UNL     1      -9.807   9.627  71.023  1.00  0.00    -0.226 OA 
HETATM   11  O   UNL     1      -9.504   7.849  72.376  1.00  0.00    -0.158 OA 
BRANCH   8  12
HETATM   12  C   UNL     1      -9.497   7.432  68.411  1.00  0.00    -0.143 A  
HETATM   13  C   UNL     1      -8.164   7.871  68.419  1.00  0.00    -0.124 A  
HETATM   14  C   UNL     1     -10.435   8.114  67.618  1.00  0.00    -0.300 A  
HETATM   15  C   UNL     1      -7.777   8.949  67.611  1.00  0.00    -0.101 A  
HETATM   16  C   UNL     1      -8.706   9.591  66.794  1.00  0.00    -0.138 A  
HETATM   17  C   UNL     1     -10.039   9.173  66.802  1.00  0.00    -0.341 A  
ENDBRANCH   8  12
BRANCH   8  18
HETATM   18  N   UNL     1      -8.791   5.299  69.176  1.00  0.00    -0.099 NA 
HETATM   19  H   UNL     1      -7.930   5.489  69.690  1.00  0.00     0.000 HD 
BRANCH  18  20
HETATM   20  C   UNL     1      -8.933   4.078  68.472  1.00  0.00    -0.117 A  
HETATM   21  C   UNL     1      -9.266   1.675  68.310  1.00  0.00    -0.219 A  
HETATM   22  C   UNL     1      -9.055   1.718  66.935  1.00  0.00    -0.089 A  
HETATM   23  C   UNL     1      -9.247   2.854  69.066  1.00  0.00    -0.222 A  
HETATM   24  C   UNL     1      -8.871   2.944  66.305  1.00  0.00    -0.146 A  
HETATM   25  C   UNL     1      -8.827   4.114  67.070  1.00  0.00    -0.125 A  
ENDBRANCH  18  20
ENDBRANCH   8  18
ENDBRANCH   3   4
ENDBRANCH   2   3
TORSDOF 5
ENDMDL
MODEL       81
REMARK 921   NORMALIZED FREE ENERGY PREDICTED BY IDOCK:   -4.12 KCAL/MOL
REMARK 922        TOTAL FREE ENERGY PREDICTED BY IDOCK:   -6.33 KCAL/MOL
REMARK 923 INTER-LIGAND FREE ENERGY PREDICTED BY IDOCK:   -6.11 KCAL/MOL
REMARK 924 INTRA-LIGAND FREE ENERGY PREDICTED BY IDOCK:   -0.22 KCAL/MOL
REMARK 927      BINDING AFFINITY PREDICTED BY RF-SCORE:    0.00 PKD
ROOT
HETATM    1  C   UNL     1      -9.873   4.432  66.933  1.00  0.00    -0.235 C  
HETATM    2  C   UNL     1     -10.658   5.692  66.588  1.00  0.00    -0.361 C  
ENDROOT
BRANCH   2   3
HETATM    3  C   UNL     1      -9.772   6.935  66.694  1.00  0.00    -0.221 C  
BRANCH   3   4
HETATM    4  C   UNL     1     -10.520   8.153  67.259  1.00  0.00    -0.379 C  
HETATM    5  C   UNL     1      -9.621   9.408  67.384  1.00  0.00    -0.184 C  
HETATM    6  C   UNL     1      -9.066   9.737  66.013  1.00  0.00    -0.162 C  
HETATM    7  C   UNL     1     -10.383  10.635  67.893  1.00  0.00    -0.199 C  
HETATM    8  N   UNL     1      -9.641  11.762  68.333  1.00  0.00    -0.195 N  
HETATM    9  O   UNL     1     -11.615  10.625  67.755  1.00  0.00    -0.501 OA 
HETATM   10  O   UNL     1      -7.891   9.587  65.710  1.00  0.00    -0.101 OA 
HETATM   11  O   UNL     1      -9.987  10.183  65.132  1.00  0.00    -0.310 OA 
BRANCH   8  12
HETATM   12  C   UNL     1      -8.210  11.777  68.326  1.00  0.00    -0.157 A  
HETATM   13  C   UNL     1      -7.519  10.910  69.185  1.00  0.00    -0.130 A  
HETATM   14  C   UNL     1      -7.478  12.599  67.452  1.00  0.00    -0.146 A  
HETATM   15  C   UNL     1      -6.120  10.841  69.135  1.00  0.00    -0.043 A  
HETATM   16  C   UNL     1      -5.405  11.628  68.233  1.00  0.00    -0.042 A  
HETATM   17  C   UNL     1      -6.088  12.511  67.393  1.00  0.00    -0.155 A  
ENDBRANCH   8  12
BRANCH   8  18
HETATM   18  N   UNL     1     -10.187  13.072  68.109  1.00  0.00    -0.233 NA 
HETATM   19  H   UNL     1     -10.087  13.791  68.826  1.00  0.00     0.000 HD 
BRANCH  18  20
HETATM   20  C   UNL     1     -10.865  13.375  66.903  1.00  0.00    -0.277 A  
HETATM   21  C   UNL     1     -12.838  13.856  65.565  1.00  0.00    -0.471 A  
HETATM   22  C   UNL     1     -12.079  13.834  64.399  1.00  0.00    -0.474 A  
HETATM   23  C   UNL     1     -12.227  13.670  66.812  1.00  0.00    -0.416 A  
HETATM   24  C   UNL     1     -10.700  13.673  64.480  1.00  0.00    -0.420 A  
HETATM   25  C   UNL     1     -10.100  13.462  65.725  1.00  0.00    -0.297 A  
ENDBRANCH  18  20
ENDBRANCH   8  18
ENDBRANCH   3   4
ENDBRANCH   2   3
TORSDOF 5
ENDMDL
MODEL       82
REMARK 921   NORMALIZED FREE ENERGY PREDICTED BY IDOCK:   -4.08 KCAL/MOL
REMARK 922        TOTAL FREE ENERGY PREDICTED BY IDOCK:   -6.28 KCAL/MOL
REMARK 923 INTER-LIGAND FREE ENERGY PREDICTED BY IDOCK:   -5.33 KCAL/MOL
REMARK 924 INTRA-LIGAND FREE ENERGY PREDICTED BY IDOCK:   -0.94 KCAL/MOL
REMARK 927      BINDING AFFINITY PREDICTED BY RF-SCORE:    0.00 PKD
ROOT
HETATM    1  C   UNL     1      -9.957   4.627  65.603  1.00  0.00    -0.228 C  
HETATM    2  C   UNL     1      -8.542   4.497  66.154  1.00  0.00    -0.113 C  
ENDROOT
BRANCH   2   3
HETATM    3  C   UNL     1      -7.524   5.132  65.204  1.00  0.00    -0.073 C  
BRANCH   3   4
HETATM    4  C   UNL     1      -8.073   6.378  64.491  1.00  0.00    -0.088 C  
HETATM    5  C   UNL     1      -8.274   7.580  65.447  1.00  0.00    -0.136 C  
HETATM    6  C   UNL     1      -6.942   7.903  66.096  1.00  0.00    -0.062 C  
HETATM    7  C   UNL     1      -8.765   8.838  64.724  1.00  0.00    -0.097 C  
HETATM    8  N   UNL     1      -9.269   9.914  65.500  1.00  0.00    -0.186 N  
HETATM    9  O   UNL     1      -8.559   8.897  63.504  1.00  0.00    -0.177 OA 
HETATM   10  O   UNL     1      -6.702   7.695  67.276  1.00  0.00    -0.063 OA 
HETATM   11  O   UNL     1      -6.022   8.414  65.251  1.00  0.00    -0.044 OA 
BRANCH   8  12
HETATM   12  C   UNL     1      -9.341   9.852  66.928  1.00  0.00    -0.152 A  
HETATM   13  C   UNL     1      -8.498  10.678  67.686  1.00  0.00    -0.118 A  
HETATM   14  C   UNL     1     -10.262   9.024  67.592  1.00  0.00    -0.300 A  
HETATM   15  C   UNL     1      -8.610  10.702  69.083  1.00  0.00    -0.136 A  
HETATM   16  C   UNL     1      -9.558   9.910  69.729  1.00  0.00    -0.261 A  
HETATM   17  C   UNL     1     -10.382   9.067  68.980  1.00  0.00    -0.233 A  
ENDBRANCH   8  12
BRANCH   8  18
HETATM   18  N   UNL     1      -9.042  11.256  65.038  1.00  0.00    -0.370 NA 
HETATM   19  H   UNL     1      -8.088  11.605  64.947  1.00  0.00     0.000 HD 
BRANCH  18  20
HETATM   20  C   UNL     1     -10.132  12.099  64.708  1.00  0.00    -0.251 A  
HETATM   21  C   UNL     1     -12.146  12.688  63.479  1.00  0.00    -0.648 A  
HETATM   22  C   UNL     1     -12.162  13.949  64.067  1.00  0.00    -0.413 A  
HETATM   23  C   UNL     1     -11.162  11.755  63.829  1.00  0.00    -0.518 A  
HETATM   24  C   UNL     1     -11.222  14.264  65.043  1.00  0.00    -0.364 A  
HETATM   25  C   UNL     1     -10.227  13.338  65.370  1.00  0.00    -0.304 A  
ENDBRANCH  18  20
ENDBRANCH   8  18
ENDBRANCH   3   4
ENDBRANCH   2   3
TORSDOF 5
ENDMDL
MODEL       83
REMARK 921   NORMALIZED FREE ENERGY PREDICTED BY IDOCK:   -4.07 KCAL/MOL
REMARK 922        TOTAL FREE ENERGY PREDICTED BY IDOCK:   -6.26 KCAL/MOL
REMARK 923 INTER-LIGAND FREE ENERGY PREDICTED BY IDOCK:   -5.40 KCAL/MOL
REMARK 924 INTRA-LIGAND FREE ENERGY PREDICTED BY IDOCK:   -0.87 KCAL/MOL
REMARK 927      BINDING AFFINITY PREDICTED BY RF-SCORE:    0.00 PKD
ROOT
HETATM    1  C   UNL     1      -6.038   9.508  62.901  1.00  0.00    -0.099 C  
HETATM    2  C   UNL     1      -5.368   8.967  64.158  1.00  0.00    -0.056 C  
ENDROOT
BRANCH   2   3
HETATM    3  C   UNL     1      -5.703   9.834  65.373  1.00  0.00    -0.064 C  
BRANCH   3   4
HETATM    4  C   UNL     1      -6.459   9.061  66.465  1.00  0.00    -0.067 C  
HETATM    5  C   UNL     1      -7.814   9.714  66.839  1.00  0.00    -0.102 C  
HETATM    6  C   UNL     1      -8.664   9.801  65.587  1.00  0.00    -0.148 C  
HETATM    7  C   UNL     1      -8.592   8.910  67.884  1.00  0.00    -0.126 C  
HETATM    8  N   UNL     1      -9.694   9.527  68.532  1.00  0.00    -0.149 N  
HETATM    9  O   UNL     1      -8.298   7.712  68.001  1.00  0.00    -0.122 OA 
HETATM   10  O   UNL     1      -8.925  10.854  65.023  1.00  0.00    -0.197 OA 
HETATM   11  O   UNL     1      -9.089   8.607  65.120  1.00  0.00    -0.124 OA 
BRANCH   8  12
HETATM   12  C   UNL     1     -10.087  10.872  68.246  1.00  0.00    -0.174 A  
HETATM   13  C   UNL     1      -9.163  11.907  68.453  1.00  0.00    -0.173 A  
HETATM   14  C   UNL     1     -11.353  11.182  67.720  1.00  0.00    -0.364 A  
HETATM   15  C   UNL     1      -9.492  13.222  68.097  1.00  0.00    -0.222 A  
HETATM   16  C   UNL     1     -10.733  13.513  67.534  1.00  0.00    -0.266 A  
HETATM   17  C   UNL     1     -11.666  12.490  67.349  1.00  0.00    -0.432 A  
ENDBRANCH   8  12
BRANCH   8  18
HETATM   18  N   UNL     1     -10.820   8.709  68.894  1.00  0.00    -0.431 NA 
HETATM   19  H   UNL     1     -11.564   8.545  68.215  1.00  0.00     0.000 HD 
BRANCH  18  20
HETATM   20  C   UNL     1     -10.907   8.130  70.184  1.00  0.00    -0.241 A  
HETATM   21  C   UNL     1     -11.684   6.478  71.790  1.00  0.00    -0.373 A  
HETATM   22  C   UNL     1     -11.092   7.184  72.834  1.00  0.00    -0.338 A  
HETATM   23  C   UNL     1     -11.555   6.927  70.469  1.00  0.00    -0.396 A  
HETATM   24  C   UNL     1     -10.330   8.313  72.554  1.00  0.00    -0.401 A  
HETATM   25  C   UNL     1     -10.228   8.770  71.237  1.00  0.00    -0.332 A  
ENDBRANCH  18  20
ENDBRANCH   8  18
ENDBRANCH   3   4
ENDBRANCH   2   3
TORSDOF 5
ENDMDL
MODEL       84
REMARK 921   NORMALIZED FREE ENERGY PREDICTED BY IDOCK:   -4.04 KCAL/MOL
REMARK 922        TOTAL FREE ENERGY PREDICTED BY IDOCK:   -6.23 KCAL/MOL
REMARK 923 INTER-LIGAND FREE ENERGY PREDICTED BY IDOCK:   -5.77 KCAL/MOL
REMARK 924 INTRA-LIGAND FREE ENERGY PREDICTED BY IDOCK:   -0.46 KCAL/MOL
REMARK 927      BINDING AFFINITY PREDICTED BY RF-SCORE:    0.00 PKD
ROOT
HETATM    1  C   UNL     1      -8.636   8.418  72.294  1.00  0.00    -0.263 C  
HETATM    2  C   UNL     1      -9.976   8.922  71.773  1.00  0.00    -0.397 C  
ENDROOT
BRANCH   2   3
HETATM    3  C   UNL     1      -9.943   9.093  70.253  1.00  0.00    -0.246 C  
BRANCH   3   4
HETATM    4  C   UNL     1      -9.777  10.559  69.822  1.00  0.00    -0.010 C  
HETATM    5  C   UNL     1      -9.706  10.732  68.284  1.00  0.00    -0.172 C  
HETATM    6  C   UNL     1     -10.972  10.158  67.680  1.00  0.00    -0.268 C  
HETATM    7  C   UNL     1      -9.600  12.198  67.856  1.00  0.00    -0.198 C  
HETATM    8  N   UNL     1      -9.234  12.490  66.516  1.00  0.00    -0.230 N  
HETATM    9  O   UNL     1      -9.981  13.049  68.673  1.00  0.00    -0.202 OA 
HETATM   10  O   UNL     1     -10.996   9.128  67.023  1.00  0.00    -0.098 OA 
HETATM   11  O   UNL     1     -12.089  10.866  67.953  1.00  0.00    -0.527 OA 
BRANCH   8  12
HETATM   12  C   UNL     1      -8.952  11.458  65.565  1.00  0.00    -0.088 A  
HETATM   13  C   UNL     1      -9.805  11.302  64.462  1.00  0.00    -0.317 A  
HETATM   14  C   UNL     1      -7.823  10.629  65.678  1.00  0.00    -0.123 A  
HETATM   15  C   UNL     1      -9.502  10.360  63.470  1.00  0.00    -0.356 A  
HETATM   16  C   UNL     1      -8.355   9.573  63.568  1.00  0.00    -0.176 A  
HETATM   17  C   UNL     1      -7.518   9.707  64.677  1.00  0.00    -0.123 A  
ENDBRANCH   8  12
BRANCH   8  18
HETATM   18  N   UNL     1      -9.803  13.651  65.888  1.00  0.00    -0.412 NA 
HETATM   19  H   UNL     1     -10.368  13.543  65.045  1.00  0.00     0.000 HD 
BRANCH  18  20
HETATM   20  C   UNL     1      -9.586  14.942  66.427  1.00  0.00    -0.293 A  
HETATM   21  C   UNL     1      -8.212  16.720  67.358  1.00  0.00    -0.195 A  
HETATM   22  C   UNL     1      -9.343  17.488  67.615  1.00  0.00    -0.244 A  
HETATM   23  C   UNL     1      -8.330  15.473  66.730  1.00  0.00    -0.301 A  
HETATM   24  C   UNL     1     -10.591  17.034  67.201  1.00  0.00    -0.245 A  
HETATM   25  C   UNL     1     -10.705  15.778  66.598  1.00  0.00    -0.287 A  
ENDBRANCH  18  20
ENDBRANCH   8  18
ENDBRANCH   3   4
ENDBRANCH   2   3
TORSDOF 5
ENDMDL
MODEL       85
REMARK 921   NORMALIZED FREE ENERGY PREDICTED BY IDOCK:   -4.03 KCAL/MOL
REMARK 922        TOTAL FREE ENERGY PREDICTED BY IDOCK:   -6.21 KCAL/MOL
REMARK 923 INTER-LIGAND FREE ENERGY PREDICTED BY IDOCK:   -5.90 KCAL/MOL
REMARK 924 INTRA-LIGAND FREE ENERGY PREDICTED BY IDOCK:   -0.31 KCAL/MOL
REMARK 927      BINDING AFFINITY PREDICTED BY RF-SCORE:    0.00 PKD
ROOT
HETATM    1  C   UNL     1      -7.662  10.337  67.381  1.00  0.00    -0.095 C  
HETATM    2  C   UNL     1      -7.749  11.440  68.428  1.00  0.00    -0.127 C  
ENDROOT
BRANCH   2   3
HETATM    3  C   UNL     1      -6.951  12.672  67.994  1.00  0.00    -0.099 C  
BRANCH   3   4
HETATM    4  C   UNL     1      -7.789  13.664  67.171  1.00  0.00    -0.028 C  
HETATM    5  C   UNL     1      -8.870  14.384  68.015  1.00  0.00    -0.178 C  
HETATM    6  C   UNL     1      -8.182  15.112  69.153  1.00  0.00    -0.214 C  
HETATM    7  C   UNL     1      -9.665  15.414  67.208  1.00  0.00    -0.212 C  
HETATM    8  N   UNL     1     -10.865  15.932  67.761  1.00  0.00    -0.319 N  
HETATM    9  O   UNL     1      -9.134  15.844  66.173  1.00  0.00    -0.310 OA 
HETATM   10  O   UNL     1      -8.268  14.765  70.322  1.00  0.00     0.490 OA 
HETATM   11  O   UNL     1      -7.432  16.166  68.766  1.00  0.00    -0.164 OA 
BRANCH   8  12
HETATM   12  C   UNL     1     -11.355  15.511  69.038  1.00  0.00    -0.326 A  
HETATM   13  C   UNL     1     -11.876  14.215  69.170  1.00  0.00    -0.380 A  
HETATM   14  C   UNL     1     -11.288  16.339  70.171  1.00  0.00    -0.292 A  
HETATM   15  C   UNL     1     -12.280  13.748  70.428  1.00  0.00    -0.433 A  
HETATM   16  C   UNL     1     -12.167  14.561  71.555  1.00  0.00    -0.415 A  
HETATM   17  C   UNL     1     -11.673  15.861  71.423  1.00  0.00    -0.530 A  
ENDBRANCH   8  12
BRANCH   8  18
HETATM   18  N   UNL     1     -11.216  17.297  67.480  1.00  0.00     0.048 NA 
HETATM   19  H   UNL     1     -12.191  17.545  67.317  1.00  0.00     0.000 HD 
BRANCH  18  20
HETATM   20  C   UNL     1     -10.218  18.302  67.428  1.00  0.00    -0.371 A  
HETATM   21  C   UNL     1      -8.828  19.946  66.297  1.00  0.00    -0.402 A  
HETATM   22  C   UNL     1      -8.115  20.180  67.469  1.00  0.00    -0.356 A  
HETATM   23  C   UNL     1      -9.900  19.044  66.289  1.00  0.00    -0.417 A  
HETATM   24  C   UNL     1      -8.501  19.548  68.647  1.00  0.00    -0.364 A  
HETATM   25  C   UNL     1      -9.555  18.630  68.625  1.00  0.00    -0.407 A  
ENDBRANCH  18  20
ENDBRANCH   8  18
ENDBRANCH   3   4
ENDBRANCH   2   3
TORSDOF 5
ENDMDL
MODEL       86
REMARK 921   NORMALIZED FREE ENERGY PREDICTED BY IDOCK:   -4.01 KCAL/MOL
REMARK 922        TOTAL FREE ENERGY PREDICTED BY IDOCK:   -6.19 KCAL/MOL
REMARK 923 INTER-LIGAND FREE ENERGY PREDICTED BY IDOCK:   -6.57 KCAL/MOL
REMARK 924 INTRA-LIGAND FREE ENERGY PREDICTED BY IDOCK:    0.38 KCAL/MOL
REMARK 927      BINDING AFFINITY PREDICTED BY RF-SCORE:    0.00 PKD
ROOT
HETATM    1  C   UNL     1      -5.411  17.495  66.745  1.00  0.00    -0.201 C  
HETATM    2  C   UNL     1      -6.576  16.515  66.808  1.00  0.00    -0.167 C  
ENDROOT
BRANCH   2   3
HETATM    3  C   UNL     1      -6.501  15.656  68.073  1.00  0.00    -0.151 C  
BRANCH   3   4
HETATM    4  C   UNL     1      -7.780  15.735  68.922  1.00  0.00    -0.186 C  
HETATM    5  C   UNL     1      -9.015  15.132  68.209  1.00  0.00    -0.175 C  
HETATM    6  C   UNL     1      -8.713  13.686  67.869  1.00  0.00    -0.184 C  
HETATM    7  C   UNL     1     -10.275  15.159  69.080  1.00  0.00    -0.241 C  
HETATM    8  N   UNL     1     -11.531  14.916  68.465  1.00  0.00    -0.301 N  
HETATM    9  O   UNL     1     -10.106  15.251  70.304  1.00  0.00    -0.203 OA 
HETATM   10  O   UNL     1      -8.532  13.289  66.727  1.00  0.00    -0.115 OA 
HETATM   11  O   UNL     1      -8.626  12.869  68.940  1.00  0.00     0.105 OA 
BRANCH   8  12
HETATM   12  C   UNL     1     -11.653  14.661  67.062  1.00  0.00    -0.371 A  
HETATM   13  C   UNL     1     -11.141  15.601  66.156  1.00  0.00    -0.127 A  
HETATM   14  C   UNL     1     -12.226  13.478  66.568  1.00  0.00    -0.433 A  
HETATM   15  C   UNL     1     -11.167  15.335  64.780  1.00  0.00    -0.405 A  
HETATM   16  C   UNL     1     -11.697  14.137  64.302  1.00  0.00    -0.365 A  
HETATM   17  C   UNL     1     -12.231  13.210  65.199  1.00  0.00    -0.497 A  
ENDBRANCH   8  12
BRANCH   8  18
HETATM   18  N   UNL     1     -12.541  14.226  69.220  1.00  0.00    -0.483 NA 
HETATM   19  H   UNL     1     -13.463  14.649  69.335  1.00  0.00     0.000 HD 
BRANCH  18  20
HETATM   20  C   UNL     1     -12.269  12.966  69.807  1.00  0.00    -0.162 A  
HETATM   21  C   UNL     1     -11.294  10.739  69.848  1.00  0.00    -0.385 A  
HETATM   22  C   UNL     1     -11.936  10.457  71.051  1.00  0.00    -0.481 A  
HETATM   23  C   UNL     1     -11.427  12.000  69.253  1.00  0.00    -0.361 A  
HETATM   24  C   UNL     1     -12.673  11.451  71.685  1.00  0.00    -0.427 A  
HETATM   25  C   UNL     1     -12.823  12.699  71.073  1.00  0.00    -0.254 A  
ENDBRANCH  18  20
ENDBRANCH   8  18
ENDBRANCH   3   4
ENDBRANCH   2   3
TORSDOF 5
ENDMDL
MODEL       87
REMARK 921   NORMALIZED FREE ENERGY PREDICTED BY IDOCK:   -3.99 KCAL/MOL
REMARK 922        TOTAL FREE ENERGY PREDICTED BY IDOCK:   -6.16 KCAL/MOL
REMARK 923 INTER-LIGAND FREE ENERGY PREDICTED BY IDOCK:   -5.54 KCAL/MOL
REMARK 924 INTRA-LIGAND FREE ENERGY PREDICTED BY IDOCK:   -0.62 KCAL/MOL
REMARK 927      BINDING AFFINITY PREDICTED BY RF-SCORE:    0.00 PKD
ROOT
HETATM    1  C   UNL     1     -12.909  11.913  63.511  1.00  0.00    -0.435 C  
HETATM    2  C   UNL     1     -11.693  12.828  63.459  1.00  0.00    -0.597 C  
ENDROOT
BRANCH   2   3
HETATM    3  C   UNL     1     -10.396  12.023  63.571  1.00  0.00    -0.492 C  
BRANCH   3   4
HETATM    4  C   UNL     1     -10.497  10.873  64.586  1.00  0.00    -0.384 C  
HETATM    5  C   UNL     1      -9.550  11.055  65.799  1.00  0.00    -0.260 C  
HETATM    6  C   UNL     1      -9.886  12.369  66.475  1.00  0.00    -0.235 C  
HETATM    7  C   UNL     1      -9.694   9.939  66.837  1.00  0.00    -0.186 C  
HETATM    8  N   UNL     1      -8.699   9.813  67.842  1.00  0.00    -0.125 N  
HETATM    9  O   UNL     1     -10.753   9.295  66.823  1.00  0.00    -0.176 OA 
HETATM   10  O   UNL     1      -9.155  13.348  66.442  1.00  0.00    -0.174 OA 
HETATM   11  O   UNL     1     -11.084  12.384  67.097  1.00  0.00    -0.253 OA 
BRANCH   8  12
HETATM   12  C   UNL     1      -7.568  10.687  67.903  1.00  0.00    -0.091 A  
HETATM   13  C   UNL     1      -6.612  10.630  66.878  1.00  0.00    -0.086 A  
HETATM   14  C   UNL     1      -7.410  11.630  68.932  1.00  0.00    -0.107 A  
HETATM   15  C   UNL     1      -5.542  11.536  66.867  1.00  0.00    -0.129 A  
HETATM   16  C   UNL     1      -5.419  12.497  67.868  1.00  0.00    -0.094 A  
HETATM   17  C   UNL     1      -6.354  12.541  68.904  1.00  0.00    -0.086 A  
ENDBRANCH   8  12
BRANCH   8  18
HETATM   18  N   UNL     1      -9.099   9.369  69.150  1.00  0.00    -0.143 NA 
HETATM   19  H   UNL     1      -9.029  10.006  69.943  1.00  0.00     0.000 HD 
BRANCH  18  20
HETATM   20  C   UNL     1      -9.588   8.054  69.347  1.00  0.00    -0.160 A  
HETATM   21  C   UNL     1     -11.193   6.418  70.160  1.00  0.00    -0.454 A  
HETATM   22  C   UNL     1     -10.352   5.375  69.782  1.00  0.00    -0.375 A  
HETATM   23  C   UNL     1     -10.831   7.747  69.905  1.00  0.00    -0.228 A  
HETATM   24  C   UNL     1      -9.170   5.655  69.105  1.00  0.00    -0.136 A  
HETATM   25  C   UNL     1      -8.802   6.985  68.877  1.00  0.00    -0.130 A  
ENDBRANCH  18  20
ENDBRANCH   8  18
ENDBRANCH   3   4
ENDBRANCH   2   3
TORSDOF 5
ENDMDL
MODEL       88
REMARK 921   NORMALIZED FREE ENERGY PREDICTED BY IDOCK:   -3.98 KCAL/MOL
REMARK 922        TOTAL FREE ENERGY PREDICTED BY IDOCK:   -6.15 KCAL/MOL
REMARK 923 INTER-LIGAND FREE ENERGY PREDICTED BY IDOCK:   -5.26 KCAL/MOL
REMARK 924 INTRA-LIGAND FREE ENERGY PREDICTED BY IDOCK:   -0.89 KCAL/MOL
REMARK 927      BINDING AFFINITY PREDICTED BY RF-SCORE:    0.00 PKD
ROOT
HETATM    1  C   UNL     1      -8.875   4.526  64.521  1.00  0.00    -0.151 C  
HETATM    2  C   UNL     1      -7.457   4.900  64.936  1.00  0.00    -0.076 C  
ENDROOT
BRANCH   2   3
HETATM    3  C   UNL     1      -7.417   5.361  66.394  1.00  0.00    -0.087 C  
BRANCH   3   4
HETATM    4  C   UNL     1      -8.778   5.872  66.894  1.00  0.00    -0.111 C  
HETATM    5  C   UNL     1      -8.709   7.311  67.465  1.00  0.00    -0.121 C  
HETATM    6  C   UNL     1      -8.180   8.230  66.382  1.00  0.00    -0.107 C  
HETATM    7  C   UNL     1     -10.077   7.840  67.908  1.00  0.00    -0.185 C  
HETATM    8  N   UNL     1     -10.125   9.009  68.711  1.00  0.00    -0.193 N  
HETATM    9  O   UNL     1     -11.074   7.292  67.416  1.00  0.00    -0.214 OA 
HETATM   10  O   UNL     1      -7.070   8.740  66.417  1.00  0.00    -0.080 OA 
HETATM   11  O   UNL     1      -9.028   8.418  65.349  1.00  0.00    -0.151 OA 
BRANCH   8  12
HETATM   12  C   UNL     1      -8.939   9.695  69.125  1.00  0.00    -0.154 A  
HETATM   13  C   UNL     1      -8.136   9.118  70.120  1.00  0.00    -0.145 A  
HETATM   14  C   UNL     1      -8.532  10.902  68.533  1.00  0.00    -0.147 A  
HETATM   15  C   UNL     1      -6.924   9.724  70.481  1.00  0.00    -0.131 A  
HETATM   16  C   UNL     1      -6.507  10.898  69.855  1.00  0.00    -0.144 A  
HETATM   17  C   UNL     1      -7.316  11.488  68.882  1.00  0.00    -0.116 A  
ENDBRANCH   8  12
BRANCH   8  18
HETATM   18  N   UNL     1     -11.229   9.913  68.538  1.00  0.00    -0.491 NA 
HETATM   19  H   UNL     1     -11.621  10.060  67.608  1.00  0.00     0.000 HD 
BRANCH  18  20
HETATM   20  C   UNL     1     -11.776  10.604  69.647  1.00  0.00    -0.296 A  
HETATM   21  C   UNL     1     -12.871  10.739  71.814  1.00  0.00    -0.528 A  
HETATM   22  C   UNL     1     -12.952  12.125  71.710  1.00  0.00    -0.437 A  
HETATM   23  C   UNL     1     -12.250   9.989  70.808  1.00  0.00    -0.408 A  
HETATM   24  C   UNL     1     -12.369  12.768  70.624  1.00  0.00    -0.381 A  
HETATM   25  C   UNL     1     -11.773  12.011  69.610  1.00  0.00    -0.405 A  
ENDBRANCH  18  20
ENDBRANCH   8  18
ENDBRANCH   3   4
ENDBRANCH   2   3
TORSDOF 5
ENDMDL
MODEL       89
REMARK 921   NORMALIZED FREE ENERGY PREDICTED BY IDOCK:   -3.98 KCAL/MOL
REMARK 922        TOTAL FREE ENERGY PREDICTED BY IDOCK:   -6.14 KCAL/MOL
REMARK 923 INTER-LIGAND FREE ENERGY PREDICTED BY IDOCK:   -5.22 KCAL/MOL
REMARK 924 INTRA-LIGAND FREE ENERGY PREDICTED BY IDOCK:   -0.92 KCAL/MOL
REMARK 927      BINDING AFFINITY PREDICTED BY RF-SCORE:    0.00 PKD
ROOT
HETATM    1  C   UNL     1      -8.704   1.940  65.014  1.00  0.00    -0.112 C  
HETATM    2  C   UNL     1      -7.954   2.801  66.023  1.00  0.00    -0.082 C  
ENDROOT
BRANCH   2   3
HETATM    3  C   UNL     1      -8.618   2.735  67.400  1.00  0.00    -0.119 C  
BRANCH   3   4
HETATM    4  C   UNL     1      -9.617   3.881  67.634  1.00  0.00    -0.205 C  
HETATM    5  C   UNL     1      -9.406   4.595  68.992  1.00  0.00    -0.203 C  
HETATM    6  C   UNL     1      -7.989   5.131  69.037  1.00  0.00    -0.085 C  
HETATM    7  C   UNL     1     -10.363   5.773  69.197  1.00  0.00    -0.248 C  
HETATM    8  N   UNL     1     -10.487   6.329  70.497  1.00  0.00    -0.209 N  
HETATM    9  O   UNL     1     -10.870   6.266  68.179  1.00  0.00    -0.267 OA 
HETATM   10  O   UNL     1      -7.118   4.667  69.757  1.00  0.00    -0.051 OA 
HETATM   11  O   UNL     1      -7.753   6.152  68.185  1.00  0.00    -0.099 OA 
BRANCH   8  12
HETATM   12  C   UNL     1      -9.757   5.815  71.615  1.00  0.00    -0.161 A  
HETATM   13  C   UNL     1      -8.733   6.596  72.172  1.00  0.00    -0.130 A  
HETATM   14  C   UNL     1     -10.065   4.575  72.200  1.00  0.00    -0.260 A  
HETATM   15  C   UNL     1      -8.062   6.155  73.321  1.00  0.00    -0.113 A  
HETATM   16  C   UNL     1      -8.406   4.944  73.920  1.00  0.00    -0.104 A  
HETATM   17  C   UNL     1      -9.407   4.153  73.354  1.00  0.00    -0.123 A  
ENDBRANCH   8  12
BRANCH   8  18
HETATM   18  N   UNL     1     -10.719   7.743  70.618  1.00  0.00    -0.227 NA 
HETATM   19  H   UNL     1     -10.001   8.400  70.314  1.00  0.00     0.000 HD 
BRANCH  18  20
HETATM   20  C   UNL     1     -11.934   8.231  71.157  1.00  0.00    -0.265 A  
HETATM   21  C   UNL     1     -13.376   9.953  72.091  1.00  0.00    -0.498 A  
HETATM   22  C   UNL     1     -14.371   9.013  72.342  1.00  0.00    -0.325 A  
HETATM   23  C   UNL     1     -12.183   9.571  71.464  1.00  0.00    -0.468 A  
HETATM   24  C   UNL     1     -14.196   7.698  71.924  1.00  0.00    -0.492 A  
HETATM   25  C   UNL     1     -12.992   7.318  71.322  1.00  0.00    -0.377 A  
ENDBRANCH  18  20
ENDBRANCH   8  18
ENDBRANCH   3   4
ENDBRANCH   2   3
TORSDOF 5
ENDMDL
MODEL       90
REMARK 921   NORMALIZED FREE ENERGY PREDICTED BY IDOCK:   -3.97 KCAL/MOL
REMARK 922        TOTAL FREE ENERGY PREDICTED BY IDOCK:   -6.14 KCAL/MOL
REMARK 923 INTER-LIGAND FREE ENERGY PREDICTED BY IDOCK:   -5.27 KCAL/MOL
REMARK 924 INTRA-LIGAND FREE ENERGY PREDICTED BY IDOCK:   -0.87 KCAL/MOL
REMARK 927      BINDING AFFINITY PREDICTED BY RF-SCORE:    0.00 PKD
ROOT
HETATM    1  C   UNL     1      -8.188   4.096  72.663  1.00  0.00    -0.096 C  
HETATM    2  C   UNL     1      -8.215   5.271  73.632  1.00  0.00    -0.113 C  
ENDROOT
BRANCH   2   3
HETATM    3  C   UNL     1      -9.648   5.757  73.863  1.00  0.00    -0.148 C  
BRANCH   3   4
HETATM    4  C   UNL     1      -9.907   7.149  73.263  1.00  0.00    -0.275 C  
HETATM    5  C   UNL     1     -10.051   7.123  71.721  1.00  0.00    -0.197 C  
HETATM    6  C   UNL     1     -11.188   6.187  71.362  1.00  0.00    -0.287 C  
HETATM    7  C   UNL     1     -10.367   8.500  71.131  1.00  0.00    -0.215 C  
HETATM    8  N   UNL     1     -10.236   8.686  69.730  1.00  0.00    -0.200 N  
HETATM    9  O   UNL     1     -10.860   9.338  71.900  1.00  0.00    -0.351 OA 
HETATM   10  O   UNL     1     -11.021   5.102  70.826  1.00  0.00    -0.061 OA 
HETATM   11  O   UNL     1     -12.411   6.639  71.713  1.00  0.00    -0.352 OA 
BRANCH   8  12
HETATM   12  C   UNL     1      -9.807   7.632  68.862  1.00  0.00    -0.164 A  
HETATM   13  C   UNL     1     -10.741   7.048  67.993  1.00  0.00    -0.252 A  
HETATM   14  C   UNL     1      -8.471   7.199  68.821  1.00  0.00    -0.126 A  
HETATM   15  C   UNL     1     -10.327   6.077  67.071  1.00  0.00    -0.296 A  
HETATM   16  C   UNL     1      -8.991   5.686  67.007  1.00  0.00    -0.114 A  
HETATM   17  C   UNL     1      -8.063   6.246  67.888  1.00  0.00    -0.114 A  
ENDBRANCH   8  12
BRANCH   8  18
HETATM   18  N   UNL     1     -11.146   9.582  69.070  1.00  0.00    -0.432 NA 
HETATM   19  H   UNL     1     -12.151   9.459  69.190  1.00  0.00     0.000 HD 
BRANCH  18  20
HETATM   20  C   UNL     1     -10.659  10.632  68.253  1.00  0.00    -0.194 A  
HETATM   21  C   UNL     1     -10.009  12.933  67.808  1.00  0.00    -0.230 A  
HETATM   22  C   UNL     1      -9.812  12.639  66.462  1.00  0.00    -0.258 A  
HETATM   23  C   UNL     1     -10.389  11.926  68.705  1.00  0.00    -0.218 A  
HETATM   24  C   UNL     1      -9.949  11.328  66.018  1.00  0.00    -0.273 A  
HETATM   25  C   UNL     1     -10.353  10.333  66.913  1.00  0.00    -0.298 A  
ENDBRANCH  18  20
ENDBRANCH   8  18
ENDBRANCH   3   4
ENDBRANCH   2   3
TORSDOF 5
ENDMDL
MODEL       91
REMARK 921   NORMALIZED FREE ENERGY PREDICTED BY IDOCK:   -3.95 KCAL/MOL
REMARK 922        TOTAL FREE ENERGY PREDICTED BY IDOCK:   -6.11 KCAL/MOL
REMARK 923 INTER-LIGAND FREE ENERGY PREDICTED BY IDOCK:   -5.27 KCAL/MOL
REMARK 924 INTRA-LIGAND FREE ENERGY PREDICTED BY IDOCK:   -0.83 KCAL/MOL
REMARK 927      BINDING AFFINITY PREDICTED BY RF-SCORE:    0.00 PKD
ROOT
HETATM    1  C   UNL     1     -10.252   8.890  71.481  1.00  0.00    -0.398 C  
HETATM    2  C   UNL     1      -9.236   7.836  71.057  1.00  0.00    -0.158 C  
ENDROOT
BRANCH   2   3
HETATM    3  C   UNL     1      -9.700   7.105  69.795  1.00  0.00    -0.165 C  
BRANCH   3   4
HETATM    4  C   UNL     1     -10.301   8.055  68.745  1.00  0.00    -0.223 C  
HETATM    5  C   UNL     1      -9.245   8.992  68.106  1.00  0.00    -0.141 C  
HETATM    6  C   UNL     1      -8.168   8.136  67.470  1.00  0.00    -0.123 C  
HETATM    7  C   UNL     1      -9.835   9.896  67.019  1.00  0.00    -0.191 C  
HETATM    8  N   UNL     1      -9.065  10.996  66.560  1.00  0.00    -0.168 N  
HETATM    9  O   UNL     1     -10.898   9.526  66.501  1.00  0.00    -0.031 OA 
HETATM   10  O   UNL     1      -7.033   8.046  67.913  1.00  0.00    -0.074 OA 
HETATM   11  O   UNL     1      -8.575   7.449  66.381  1.00  0.00    -0.121 OA 
BRANCH   8  12
HETATM   12  C   UNL     1      -7.768  11.288  67.089  1.00  0.00    -0.147 A  
HETATM   13  C   UNL     1      -6.640  11.043  66.292  1.00  0.00    -0.105 A  
HETATM   14  C   UNL     1      -7.594  11.856  68.362  1.00  0.00    -0.120 A  
HETATM   15  C   UNL     1      -5.366  11.403  66.751  1.00  0.00    -0.122 A  
HETATM   16  C   UNL     1      -5.208  12.007  67.997  1.00  0.00    -0.053 A  
HETATM   17  C   UNL     1      -6.325  12.230  68.804  1.00  0.00    -0.077 A  
ENDBRANCH   8  12
BRANCH   8  18
HETATM   18  N   UNL     1      -9.174  11.379  65.178  1.00  0.00    -0.368 NA 
HETATM   19  H   UNL     1      -8.467  11.069  64.511  1.00  0.00     0.000 HD 
BRANCH  18  20
HETATM   20  C   UNL     1     -10.254  12.182  64.735  1.00  0.00    -0.281 A  
HETATM   21  C   UNL     1     -12.188  12.669  63.345  1.00  0.00    -0.610 A  
HETATM   22  C   UNL     1     -12.267  13.956  63.869  1.00  0.00    -0.375 A  
HETATM   23  C   UNL     1     -11.214  11.775  63.806  1.00  0.00    -0.518 A  
HETATM   24  C   UNL     1     -11.402  14.336  64.890  1.00  0.00    -0.372 A  
HETATM   25  C   UNL     1     -10.415  13.448  65.328  1.00  0.00    -0.334 A  
ENDBRANCH  18  20
ENDBRANCH   8  18
ENDBRANCH   3   4
ENDBRANCH   2   3
TORSDOF 5
ENDMDL
MODEL       92
REMARK 921   NORMALIZED FREE ENERGY PREDICTED BY IDOCK:   -3.93 KCAL/MOL
REMARK 922        TOTAL FREE ENERGY PREDICTED BY IDOCK:   -6.08 KCAL/MOL
REMARK 923 INTER-LIGAND FREE ENERGY PREDICTED BY IDOCK:   -5.89 KCAL/MOL
REMARK 924 INTRA-LIGAND FREE ENERGY PREDICTED BY IDOCK:   -0.19 KCAL/MOL
REMARK 927      BINDING AFFINITY PREDICTED BY RF-SCORE:    0.00 PKD
ROOT
HETATM    1  C   UNL     1     -11.931  12.035  70.084  1.00  0.00    -0.401 C  
HETATM    2  C   UNL     1     -12.907  10.886  70.304  1.00  0.00    -0.209 C  
ENDROOT
BRANCH   2   3
HETATM    3  C   UNL     1     -12.841  10.381  71.747  1.00  0.00    -0.561 C  
BRANCH   3   4
HETATM    4  C   UNL     1     -12.858   8.847  71.841  1.00  0.00    -0.437 C  
HETATM    5  C   UNL     1     -11.775   8.177  70.959  1.00  0.00    -0.295 C  
HETATM    6  C   UNL     1     -10.418   8.704  71.385  1.00  0.00    -0.257 C  
HETATM    7  C   UNL     1     -11.754   6.652  71.100  1.00  0.00    -0.346 C  
HETATM    8  N   UNL     1     -11.027   5.892  70.147  1.00  0.00    -0.344 N  
HETATM    9  O   UNL     1     -12.261   6.179  72.127  1.00  0.00    -0.319 OA 
HETATM   10  O   UNL     1      -9.745   9.458  70.698  1.00  0.00    -0.248 OA 
HETATM   11  O   UNL     1     -10.023   8.296  72.610  1.00  0.00    -0.277 OA 
BRANCH   8  12
HETATM   12  C   UNL     1     -10.328   6.506  69.060  1.00  0.00    -0.195 A  
HETATM   13  C   UNL     1      -8.929   6.590  69.116  1.00  0.00    -0.130 A  
HETATM   14  C   UNL     1     -10.995   6.984  67.920  1.00  0.00    -0.202 A  
HETATM   15  C   UNL     1      -8.213   7.106  68.027  1.00  0.00    -0.120 A  
HETATM   16  C   UNL     1      -8.882   7.536  66.882  1.00  0.00    -0.145 A  
HETATM   17  C   UNL     1     -10.276   7.478  66.832  1.00  0.00    -0.359 A  
ENDBRANCH   8  12
BRANCH   8  18
HETATM   18  N   UNL     1     -10.377   4.687  70.585  1.00  0.00    -0.132 NA 
HETATM   19  H   UNL     1     -10.338   3.880  69.963  1.00  0.00     0.000 HD 
BRANCH  18  20
HETATM   20  C   UNL     1      -9.789   4.611  71.872  1.00  0.00    -0.179 A  
HETATM   21  C   UNL     1      -8.137   5.193  73.558  1.00  0.00    -0.110 A  
HETATM   22  C   UNL     1      -8.659   4.241  74.428  1.00  0.00    -0.095 A  
HETATM   23  C   UNL     1      -8.726   5.406  72.305  1.00  0.00    -0.129 A  
HETATM   24  C   UNL     1      -9.799   3.531  74.067  1.00  0.00    -0.158 A  
HETATM   25  C   UNL     1     -10.367   3.730  72.804  1.00  0.00    -0.238 A  
ENDBRANCH  18  20
ENDBRANCH   8  18
ENDBRANCH   3   4
ENDBRANCH   2   3
TORSDOF 5
ENDMDL
MODEL       93
REMARK 921   NORMALIZED FREE ENERGY PREDICTED BY IDOCK:   -3.93 KCAL/MOL
REMARK 922        TOTAL FREE ENERGY PREDICTED BY IDOCK:   -6.08 KCAL/MOL
REMARK 923 INTER-LIGAND FREE ENERGY PREDICTED BY IDOCK:   -5.90 KCAL/MOL
REMARK 924 INTRA-LIGAND FREE ENERGY PREDICTED BY IDOCK:   -0.18 KCAL/MOL
REMARK 927      BINDING AFFINITY PREDICTED BY RF-SCORE:    0.00 PKD
ROOT
HETATM    1  C   UNL     1     -12.063  15.303  72.965  1.00  0.00    -0.523 C  
HETATM    2  C   UNL     1     -13.434  15.360  72.304  1.00  0.00    -0.573 C  
ENDROOT
BRANCH   2   3
HETATM    3  C   UNL     1     -13.322  15.144  70.793  1.00  0.00    -0.389 C  
BRANCH   3   4
HETATM    4  C   UNL     1     -12.393  13.975  70.426  1.00  0.00    -0.429 C  
HETATM    5  C   UNL     1     -11.849  14.069  68.979  1.00  0.00    -0.391 C  
HETATM    6  C   UNL     1     -11.107  15.382  68.831  1.00  0.00    -0.275 C  
HETATM    7  C   UNL     1     -10.878  12.935  68.636  1.00  0.00    -0.258 C  
HETATM    8  N   UNL     1     -10.534  12.724  67.275  1.00  0.00    -0.232 N  
HETATM    9  O   UNL     1     -10.336  12.356  69.588  1.00  0.00     0.484 OA 
HETATM   10  O   UNL     1     -11.522  16.316  68.162  1.00  0.00    -0.309 OA 
HETATM   11  O   UNL     1      -9.954  15.450  69.530  1.00  0.00    -0.239 OA 
BRANCH   8  12
HETATM   12  C   UNL     1     -11.075  13.528  66.222  1.00  0.00    -0.300 A  
HETATM   13  C   UNL     1     -12.353  13.227  65.728  1.00  0.00    -0.505 A  
HETATM   14  C   UNL     1     -10.385  14.636  65.701  1.00  0.00    -0.370 A  
HETATM   15  C   UNL     1     -12.942  14.052  64.761  1.00  0.00     0.041 A  
HETATM   16  C   UNL     1     -12.268  15.175  64.283  1.00  0.00    -0.257 A  
HETATM   17  C   UNL     1     -10.985  15.464  64.753  1.00  0.00    -0.411 A  
ENDBRANCH   8  12
BRANCH   8  18
HETATM   18  N   UNL     1      -9.205  12.270  66.967  1.00  0.00    -0.198 NA 
HETATM   19  H   UNL     1      -9.070  11.546  66.261  1.00  0.00     0.000 HD 
BRANCH  18  20
HETATM   20  C   UNL     1      -8.082  12.816  67.636  1.00  0.00    -0.175 A  
HETATM   21  C   UNL     1      -6.251  12.762  69.234  1.00  0.00    -0.105 A  
HETATM   22  C   UNL     1      -5.957  14.097  68.975  1.00  0.00    -0.091 A  
HETATM   23  C   UNL     1      -7.280  12.115  68.538  1.00  0.00    -0.102 A  
HETATM   24  C   UNL     1      -6.659  14.775  67.984  1.00  0.00    -0.157 A  
HETATM   25  C   UNL     1      -7.702  14.131  67.312  1.00  0.00    -0.132 A  
ENDBRANCH  18  20
ENDBRANCH   8  18
ENDBRANCH   3   4
ENDBRANCH   2   3
TORSDOF 5
ENDMDL
MODEL       94
REMARK 921   NORMALIZED FREE ENERGY PREDICTED BY IDOCK:   -3.90 KCAL/MOL
REMARK 922        TOTAL FREE ENERGY PREDICTED BY IDOCK:   -6.04 KCAL/MOL
REMARK 923 INTER-LIGAND FREE ENERGY PREDICTED BY IDOCK:   -5.29 KCAL/MOL
REMARK 924 INTRA-LIGAND FREE ENERGY PREDICTED BY IDOCK:   -0.75 KCAL/MOL
REMARK 927      BINDING AFFINITY PREDICTED BY RF-SCORE:    0.00 PKD
ROOT
HETATM    1  C   UNL     1     -13.484   9.735  71.636  1.00  0.00    -0.436 C  
HETATM    2  C   UNL     1     -12.540   8.903  72.495  1.00  0.00    -0.363 C  
ENDROOT
BRANCH   2   3
HETATM    3  C   UNL     1     -11.135   8.870  71.889  1.00  0.00    -0.442 C  
BRANCH   3   4
HETATM    4  C   UNL     1     -11.144   8.554  70.384  1.00  0.00    -0.246 C  
HETATM    5  C   UNL     1     -10.056   9.328  69.599  1.00  0.00    -0.208 C  
HETATM    6  C   UNL     1      -8.703   8.983  70.190  1.00  0.00    -0.173 C  
HETATM    7  C   UNL     1     -10.028   8.967  68.111  1.00  0.00    -0.175 C  
HETATM    8  N   UNL     1      -9.296   9.799  67.224  1.00  0.00    -0.137 N  
HETATM    9  O   UNL     1     -10.533   7.882  67.789  1.00  0.00    -0.220 OA 
HETATM   10  O   UNL     1      -8.033   9.772  70.839  1.00  0.00    -0.279 OA 
HETATM   11  O   UNL     1      -8.307   7.712  69.966  1.00  0.00    -0.130 OA 
BRANCH   8  12
HETATM   12  C   UNL     1      -8.598  10.963  67.677  1.00  0.00    -0.124 A  
HETATM   13  C   UNL     1      -7.205  10.902  67.828  1.00  0.00    -0.091 A  
HETATM   14  C   UNL     1      -9.260  12.176  67.931  1.00  0.00    -0.188 A  
HETATM   15  C   UNL     1      -6.488  12.052  68.184  1.00  0.00    -0.054 A  
HETATM   16  C   UNL     1      -7.148  13.262  68.390  1.00  0.00    -0.107 A  
HETATM   17  C   UNL     1      -8.538  13.321  68.266  1.00  0.00    -0.169 A  
ENDBRANCH   8  12
BRANCH   8  18
HETATM   18  N   UNL     1      -8.639   9.190  66.100  1.00  0.00    -0.131 NA 
HETATM   19  H   UNL     1      -8.105   8.331  66.231  1.00  0.00     0.000 HD 
BRANCH  18  20
HETATM   20  C   UNL     1      -8.727   9.772  64.811  1.00  0.00    -0.192 A  
HETATM   21  C   UNL     1      -7.961  10.178  62.539  1.00  0.00    -0.154 A  
HETATM   22  C   UNL     1      -8.968  11.118  62.345  1.00  0.00    -0.321 A  
HETATM   23  C   UNL     1      -7.868   9.479  63.750  1.00  0.00    -0.133 A  
HETATM   24  C   UNL     1      -9.914  11.328  63.342  1.00  0.00    -0.433 A  
HETATM   25  C   UNL     1      -9.800  10.646  64.558  1.00  0.00    -0.388 A  
ENDBRANCH  18  20
ENDBRANCH   8  18
ENDBRANCH   3   4
ENDBRANCH   2   3
TORSDOF 5
ENDMDL
MODEL       95
REMARK 921   NORMALIZED FREE ENERGY PREDICTED BY IDOCK:   -3.90 KCAL/MOL
REMARK 922        TOTAL FREE ENERGY PREDICTED BY IDOCK:   -6.04 KCAL/MOL
REMARK 923 INTER-LIGAND FREE ENERGY PREDICTED BY IDOCK:   -5.04 KCAL/MOL
REMARK 924 INTRA-LIGAND FREE ENERGY PREDICTED BY IDOCK:   -1.00 KCAL/MOL
REMARK 927      BINDING AFFINITY PREDICTED BY RF-SCORE:    0.00 PKD
ROOT
HETATM    1  C   UNL     1     -10.244   5.426  67.909  1.00  0.00    -0.219 C  
HETATM    2  C   UNL     1     -11.156   6.290  68.771  1.00  0.00    -0.424 C  
ENDROOT
BRANCH   2   3
HETATM    3  C   UNL     1     -10.378   7.449  69.400  1.00  0.00    -0.211 C  
BRANCH   3   4
HETATM    4  C   UNL     1     -10.909   8.825  68.968  1.00  0.00    -0.052 C  
HETATM    5  C   UNL     1      -9.816   9.721  68.333  1.00  0.00    -0.168 C  
HETATM    6  C   UNL     1      -9.237   8.993  67.136  1.00  0.00    -0.134 C  
HETATM    7  C   UNL     1     -10.359  11.068  67.850  1.00  0.00    -0.186 C  
HETATM    8  N   UNL     1      -9.435  12.095  67.523  1.00  0.00    -0.177 N  
HETATM    9  O   UNL     1     -11.578  11.136  67.637  1.00  0.00    -0.512 OA 
HETATM   10  O   UNL     1      -8.108   8.526  67.115  1.00  0.00    -0.103 OA 
HETATM   11  O   UNL     1     -10.088   8.872  66.095  1.00  0.00    -0.291 OA 
BRANCH   8  12
HETATM   12  C   UNL     1      -8.021  11.910  67.642  1.00  0.00    -0.146 A  
HETATM   13  C   UNL     1      -7.440  11.939  68.919  1.00  0.00    -0.060 A  
HETATM   14  C   UNL     1      -7.207  11.655  66.526  1.00  0.00     0.048 A  
HETATM   15  C   UNL     1      -6.073  11.672  69.072  1.00  0.00    -0.057 A  
HETATM   16  C   UNL     1      -5.281  11.375  67.963  1.00  0.00    -0.043 A  
HETATM   17  C   UNL     1      -5.851  11.371  66.688  1.00  0.00    -0.144 A  
ENDBRANCH   8  12
BRANCH   8  18
HETATM   18  N   UNL     1      -9.765  12.997  66.453  1.00  0.00    -0.265 NA 
HETATM   19  H   UNL     1      -9.831  12.645  65.498  1.00  0.00     0.000 HD 
BRANCH  18  20
HETATM   20  C   UNL     1      -9.998  14.370  66.712  1.00  0.00    -0.263 A  
HETATM   21  C   UNL     1      -9.733  16.750  66.290  1.00  0.00    -0.318 A  
HETATM   22  C   UNL     1     -10.446  17.056  67.446  1.00  0.00    -0.322 A  
HETATM   23  C   UNL     1      -9.547  15.416  65.905  1.00  0.00    -0.386 A  
HETATM   24  C   UNL     1     -11.017  16.030  68.193  1.00  0.00    -0.339 A  
HETATM   25  C   UNL     1     -10.805  14.700  67.817  1.00  0.00    -0.268 A  
ENDBRANCH  18  20
ENDBRANCH   8  18
ENDBRANCH   3   4
ENDBRANCH   2   3
TORSDOF 5
ENDMDL
MODEL       96
REMARK 921   NORMALIZED FREE ENERGY PREDICTED BY IDOCK:   -3.88 KCAL/MOL
REMARK 922        TOTAL FREE ENERGY PREDICTED BY IDOCK:   -6.02 KCAL/MOL
REMARK 923 INTER-LIGAND FREE ENERGY PREDICTED BY IDOCK:   -5.12 KCAL/MOL
REMARK 924 INTRA-LIGAND FREE ENERGY PREDICTED BY IDOCK:   -0.89 KCAL/MOL
REMARK 927      BINDING AFFINITY PREDICTED BY RF-SCORE:    0.00 PKD
ROOT
HETATM    1  C   UNL     1     -11.436  11.907  63.702  1.00  0.00    -0.551 C  
HETATM    2  C   UNL     1     -10.785  12.077  65.069  1.00  0.00    -0.341 C  
ENDROOT
BRANCH   2   3
HETATM    3  C   UNL     1      -9.589  11.134  65.226  1.00  0.00    -0.268 C  
BRANCH   3   4
HETATM    4  C   UNL     1     -10.005   9.706  65.615  1.00  0.00    -0.321 C  
HETATM    5  C   UNL     1      -9.579   9.325  67.055  1.00  0.00    -0.223 C  
HETATM    6  C   UNL     1     -10.197  10.321  68.016  1.00  0.00    -0.169 C  
HETATM    7  C   UNL     1     -10.045   7.924  67.461  1.00  0.00    -0.213 C  
HETATM    8  N   UNL     1      -9.485   7.331  68.622  1.00  0.00    -0.138 N  
HETATM    9  O   UNL     1     -10.996   7.445  66.826  1.00  0.00    -0.249 OA 
HETATM   10  O   UNL     1      -9.548  11.160  68.623  1.00  0.00    -0.190 OA 
HETATM   11  O   UNL     1     -11.539  10.227  68.127  1.00  0.00    -0.297 OA 
BRANCH   8  12
HETATM   12  C   UNL     1      -8.494   7.997  69.411  1.00  0.00    -0.132 A  
HETATM   13  C   UNL     1      -8.809   8.360  70.729  1.00  0.00    -0.171 A  
HETATM   14  C   UNL     1      -7.203   8.256  68.922  1.00  0.00    -0.078 A  
HETATM   15  C   UNL     1      -7.829   8.933  71.551  1.00  0.00    -0.107 A  
HETATM   16  C   UNL     1      -6.538   9.144  71.071  1.00  0.00    -0.086 A  
HETATM   17  C   UNL     1      -6.227   8.808  69.752  1.00  0.00    -0.035 A  
ENDBRANCH   8  12
BRANCH   8  18
HETATM   18  N   UNL     1     -10.316   6.476  69.424  1.00  0.00    -0.192 NA 
HETATM   19  H   UNL     1     -11.169   6.849  69.842  1.00  0.00     0.000 HD 
BRANCH  18  20
HETATM   20  C   UNL     1      -9.963   5.122  69.641  1.00  0.00    -0.243 A  
HETATM   21  C   UNL     1      -9.399   2.868  68.922  1.00  0.00    -0.226 A  
HETATM   22  C   UNL     1      -9.404   2.424  70.240  1.00  0.00    -0.188 A  
HETATM   23  C   UNL     1      -9.635   4.218  68.628  1.00  0.00    -0.210 A  
HETATM   24  C   UNL     1      -9.598   3.335  71.272  1.00  0.00    -0.229 A  
HETATM   25  C   UNL     1      -9.859   4.676  70.971  1.00  0.00    -0.268 A  
ENDBRANCH  18  20
ENDBRANCH   8  18
ENDBRANCH   3   4
ENDBRANCH   2   3
TORSDOF 5
ENDMDL
MODEL       97
REMARK 921   NORMALIZED FREE ENERGY PREDICTED BY IDOCK:   -3.79 KCAL/MOL
REMARK 922        TOTAL FREE ENERGY PREDICTED BY IDOCK:   -5.90 KCAL/MOL
REMARK 923 INTER-LIGAND FREE ENERGY PREDICTED BY IDOCK:   -5.44 KCAL/MOL
REMARK 924 INTRA-LIGAND FREE ENERGY PREDICTED BY IDOCK:   -0.46 KCAL/MOL
REMARK 927      BINDING AFFINITY PREDICTED BY RF-SCORE:    0.00 PKD
ROOT
HETATM    1  C   UNL     1      -8.504  14.529  66.911  1.00  0.00    -0.179 C  
HETATM    2  C   UNL     1      -9.264  13.209  66.871  1.00  0.00    -0.236 C  
ENDROOT
BRANCH   2   3
HETATM    3  C   UNL     1      -9.619  12.739  68.283  1.00  0.00    -0.211 C  
BRANCH   3   4
HETATM    4  C   UNL     1      -8.933  11.415  68.659  1.00  0.00    -0.133 C  
HETATM    5  C   UNL     1      -9.919  10.366  69.231  1.00  0.00    -0.246 C  
HETATM    6  C   UNL     1     -10.998  10.111  68.198  1.00  0.00    -0.259 C  
HETATM    7  C   UNL     1      -9.244   9.029  69.549  1.00  0.00    -0.152 C  
HETATM    8  N   UNL     1      -9.946   8.085  70.343  1.00  0.00    -0.188 N  
HETATM    9  O   UNL     1      -8.173   8.792  68.972  1.00  0.00    -0.114 OA 
HETATM   10  O   UNL     1     -12.156  10.480  68.330  1.00  0.00    -0.330 OA 
HETATM   11  O   UNL     1     -10.569   9.465  67.093  1.00  0.00    -0.260 OA 
BRANCH   8  12
HETATM   12  C   UNL     1     -11.254   8.352  70.859  1.00  0.00    -0.262 A  
HETATM   13  C   UNL     1     -12.263   7.394  70.677  1.00  0.00    -0.125 A  
HETATM   14  C   UNL     1     -11.545   9.521  71.582  1.00  0.00    -0.451 A  
HETATM   15  C   UNL     1     -13.527   7.590  71.250  1.00  0.00    -0.325 A  
HETATM   16  C   UNL     1     -13.792   8.733  72.003  1.00  0.00    -0.504 A  
HETATM   17  C   UNL     1     -12.799   9.701  72.165  1.00  0.00    -0.460 A  
ENDBRANCH   8  12
BRANCH   8  18
HETATM   18  N   UNL     1      -9.758   6.686  70.071  1.00  0.00    -0.163 NA 
HETATM   19  H   UNL     1     -10.008   6.311  69.156  1.00  0.00     0.000 HD 
BRANCH  18  20
HETATM   20  C   UNL     1      -9.228   5.824  71.062  1.00  0.00    -0.149 A  
HETATM   21  C   UNL     1      -9.388   4.112  72.782  1.00  0.00    -0.148 A  
HETATM   22  C   UNL     1      -8.043   4.274  73.098  1.00  0.00    -0.091 A  
HETATM   23  C   UNL     1      -9.965   4.852  71.742  1.00  0.00    -0.252 A  
HETATM   24  C   UNL     1      -7.259   5.142  72.345  1.00  0.00    -0.091 A  
HETATM   25  C   UNL     1      -7.848   5.897  71.325  1.00  0.00    -0.112 A  
ENDBRANCH  18  20
ENDBRANCH   8  18
ENDBRANCH   3   4
ENDBRANCH   2   3
TORSDOF 5
ENDMDL
MODEL       98
REMARK 921   NORMALIZED FREE ENERGY PREDICTED BY IDOCK:   -3.78 KCAL/MOL
REMARK 922        TOTAL FREE ENERGY PREDICTED BY IDOCK:   -5.89 KCAL/MOL
REMARK 923 INTER-LIGAND FREE ENERGY PREDICTED BY IDOCK:   -5.94 KCAL/MOL
REMARK 924 INTRA-LIGAND FREE ENERGY PREDICTED BY IDOCK:    0.05 KCAL/MOL
REMARK 927      BINDING AFFINITY PREDICTED BY RF-SCORE:    0.00 PKD
ROOT
HETATM    1  C   UNL     1     -12.905  11.896  63.909  1.00  0.00    -0.346 C  
HETATM    2  C   UNL     1     -11.740  12.702  63.349  1.00  0.00    -0.571 C  
ENDROOT
BRANCH   2   3
HETATM    3  C   UNL     1     -10.426  11.927  63.477  1.00  0.00    -0.505 C  
BRANCH   3   4
HETATM    4  C   UNL     1     -10.516  10.766  64.482  1.00  0.00    -0.351 C  
HETATM    5  C   UNL     1      -9.603  10.967  65.717  1.00  0.00    -0.259 C  
HETATM    6  C   UNL     1      -9.993  12.265  66.395  1.00  0.00    -0.228 C  
HETATM    7  C   UNL     1      -9.739   9.839  66.744  1.00  0.00    -0.194 C  
HETATM    8  N   UNL     1      -8.764   9.734  67.770  1.00  0.00    -0.129 N  
HETATM    9  O   UNL     1     -10.778   9.165  66.700  1.00  0.00    -0.145 OA 
HETATM   10  O   UNL     1      -9.291  13.265  66.385  1.00  0.00    -0.245 OA 
HETATM   11  O   UNL     1     -11.206  12.240  66.989  1.00  0.00    -0.273 OA 
BRANCH   8  12
HETATM   12  C   UNL     1      -7.661  10.640  67.864  1.00  0.00    -0.091 A  
HETATM   13  C   UNL     1      -6.675  10.613  66.866  1.00  0.00    -0.091 A  
HETATM   14  C   UNL     1      -7.559  11.586  68.898  1.00  0.00    -0.102 A  
HETATM   15  C   UNL     1      -5.632  11.549  66.886  1.00  0.00    -0.129 A  
HETATM   16  C   UNL     1      -5.565  12.512  67.892  1.00  0.00    -0.095 A  
HETATM   17  C   UNL     1      -6.530  12.526  68.901  1.00  0.00    -0.091 A  
ENDBRANCH   8  12
BRANCH   8  18
HETATM   18  N   UNL     1      -9.180   9.268  69.065  1.00  0.00    -0.142 NA 
HETATM   19  H   UNL     1      -8.613   8.580  69.561  1.00  0.00     0.000 HD 
BRANCH  18  20
HETATM   20  C   UNL     1     -10.371   9.754  69.658  1.00  0.00    -0.238 A  
HETATM   21  C   UNL     1     -11.940  11.498  70.300  1.00  0.00    -0.455 A  
HETATM   22  C   UNL     1     -12.708  10.577  71.005  1.00  0.00    -0.504 A  
HETATM   23  C   UNL     1     -10.802  11.081  69.596  1.00  0.00    -0.241 A  
HETATM   24  C   UNL     1     -12.369   9.229  70.970  1.00  0.00    -0.300 A  
HETATM   25  C   UNL     1     -11.218   8.823  70.287  1.00  0.00    -0.212 A  
ENDBRANCH  18  20
ENDBRANCH   8  18
ENDBRANCH   3   4
ENDBRANCH   2   3
TORSDOF 5
ENDMDL
MODEL       99
REMARK 921   NORMALIZED FREE ENERGY PREDICTED BY IDOCK:   -3.77 KCAL/MOL
REMARK 922        TOTAL FREE ENERGY PREDICTED BY IDOCK:   -5.88 KCAL/MOL
REMARK 923 INTER-LIGAND FREE ENERGY PREDICTED BY IDOCK:   -5.69 KCAL/MOL
REMARK 924 INTRA-LIGAND FREE ENERGY PREDICTED BY IDOCK:   -0.20 KCAL/MOL
REMARK 927      BINDING AFFINITY PREDICTED BY RF-SCORE:    0.00 PKD
ROOT
HETATM    1  C   UNL     1     -13.216   9.831  71.534  1.00  0.00    -0.493 C  
HETATM    2  C   UNL     1     -11.859   9.142  71.618  1.00  0.00    -0.443 C  
ENDROOT
BRANCH   2   3
HETATM    3  C   UNL     1     -10.837   9.837  70.716  1.00  0.00    -0.403 C  
BRANCH   3   4
HETATM    4  C   UNL     1     -10.730   9.186  69.327  1.00  0.00    -0.199 C  
HETATM    5  C   UNL     1     -10.545  10.220  68.189  1.00  0.00    -0.258 C  
HETATM    6  C   UNL     1      -9.295  11.029  68.476  1.00  0.00    -0.188 C  
HETATM    7  C   UNL     1     -10.381   9.567  66.814  1.00  0.00    -0.228 C  
HETATM    8  N   UNL     1     -10.498  10.380  65.657  1.00  0.00    -0.172 N  
HETATM    9  O   UNL     1     -10.011   8.384  66.798  1.00  0.00    -0.233 OA 
HETATM   10  O   UNL     1      -9.318  12.204  68.811  1.00  0.00    -0.072 OA 
HETATM   11  O   UNL     1      -8.145  10.332  68.362  1.00  0.00    -0.104 OA 
BRANCH   8  12
HETATM   12  C   UNL     1     -10.775  11.782  65.740  1.00  0.00    -0.280 A  
HETATM   13  C   UNL     1      -9.787  12.693  65.337  1.00  0.00    -0.157 A  
HETATM   14  C   UNL     1     -12.021  12.271  66.167  1.00  0.00    -0.323 A  
HETATM   15  C   UNL     1     -10.064  14.067  65.323  1.00  0.00    -0.345 A  
HETATM   16  C   UNL     1     -11.318  14.539  65.706  1.00  0.00    -0.336 A  
HETATM   17  C   UNL     1     -12.296  13.637  66.132  1.00  0.00    -0.476 A  
ENDBRANCH   8  12
BRANCH   8  18
HETATM   18  N   UNL     1      -9.685  10.066  64.514  1.00  0.00    -0.376 NA 
HETATM   19  H   UNL     1     -10.028  10.277  63.577  1.00  0.00     0.000 HD 
BRANCH  18  20
HETATM   20  C   UNL     1      -8.412   9.465  64.677  1.00  0.00    -0.167 A  
HETATM   21  C   UNL     1      -6.835   7.618  64.555  1.00  0.00    -0.055 A  
HETATM   22  C   UNL     1      -5.861   8.380  65.193  1.00  0.00    -0.044 A  
HETATM   23  C   UNL     1      -8.088   8.172  64.262  1.00  0.00    -0.127 A  
HETATM   24  C   UNL     1      -6.120   9.713  65.495  1.00  0.00    -0.068 A  
HETATM   25  C   UNL     1      -7.381  10.252  65.223  1.00  0.00    -0.139 A  
ENDBRANCH  18  20
ENDBRANCH   8  18
ENDBRANCH   3   4
ENDBRANCH   2   3
TORSDOF 5
ENDMDL
MODEL      100
REMARK 921   NORMALIZED FREE ENERGY PREDICTED BY IDOCK:   -3.77 KCAL/MOL
REMARK 922        TOTAL FREE ENERGY PREDICTED BY IDOCK:   -5.88 KCAL/MOL
REMARK 923 INTER-LIGAND FREE ENERGY PREDICTED BY IDOCK:   -6.34 KCAL/MOL
REMARK 924 INTRA-LIGAND FREE ENERGY PREDICTED BY IDOCK:    0.46 KCAL/MOL
REMARK 927      BINDING AFFINITY PREDICTED BY RF-SCORE:    0.00 PKD
ROOT
HETATM    1  C   UNL     1     -11.946  15.669  72.207  1.00  0.00    -0.562 C  
HETATM    2  C   UNL     1     -12.847  15.655  70.979  1.00  0.00    -0.521 C  
ENDROOT
BRANCH   2   3
HETATM    3  C   UNL     1     -12.065  15.237  69.731  1.00  0.00    -0.357 C  
BRANCH   3   4
HETATM    4  C   UNL     1     -11.723  13.738  69.718  1.00  0.00    -0.367 C  
HETATM    5  C   UNL     1     -11.331  13.222  68.311  1.00  0.00    -0.335 C  
HETATM    6  C   UNL     1     -10.142  14.024  67.821  1.00  0.00    -0.240 C  
HETATM    7  C   UNL     1     -10.934  11.742  68.311  1.00  0.00    -0.229 C  
HETATM    8  N   UNL     1     -10.838  11.065  67.068  1.00  0.00    -0.274 N  
HETATM    9  O   UNL     1     -10.580  11.258  69.396  1.00  0.00    -0.195 OA 
HETATM   10  O   UNL     1     -10.211  14.839  66.913  1.00  0.00    -0.253 OA 
HETATM   11  O   UNL     1      -8.996  13.790  68.495  1.00  0.00    -0.180 OA 
BRANCH   8  12
HETATM   12  C   UNL     1     -11.111  11.718  65.824  1.00  0.00    -0.297 A  
HETATM   13  C   UNL     1     -12.353  12.346  65.648  1.00  0.00    -0.182 A  
HETATM   14  C   UNL     1     -10.158  11.789  64.795  1.00  0.00    -0.302 A  
HETATM   15  C   UNL     1     -12.612  13.069  64.475  1.00  0.00    -0.387 A  
HETATM   16  C   UNL     1     -11.643  13.172  63.479  1.00  0.00    -0.392 A  
HETATM   17  C   UNL     1     -10.415  12.527  63.640  1.00  0.00    -0.418 A  
ENDBRANCH   8  12
BRANCH   8  18
HETATM   18  N   UNL     1      -9.841  10.040  66.922  1.00  0.00    -0.188 NA 
HETATM   19  H   UNL     1     -10.126   9.064  66.849  1.00  0.00     0.000 HD 
BRANCH  18  20
HETATM   20  C   UNL     1      -8.464  10.373  66.879  1.00  0.00    -0.124 A  
HETATM   21  C   UNL     1      -6.431  11.380  67.753  1.00  0.00    -0.065 A  
HETATM   22  C   UNL     1      -5.752  11.080  66.576  1.00  0.00    -0.119 A  
HETATM   23  C   UNL     1      -7.766  10.991  67.918  1.00  0.00    -0.104 A  
HETATM   24  C   UNL     1      -6.391  10.349  65.580  1.00  0.00    -0.126 A  
HETATM   25  C   UNL     1      -7.732   9.987  65.741  1.00  0.00    -0.122 A  
ENDBRANCH  18  20
ENDBRANCH   8  18
ENDBRANCH   3   4
ENDBRANCH   2   3
TORSDOF 5
ENDMDL
MODEL      101
REMARK 921   NORMALIZED FREE ENERGY PREDICTED BY IDOCK:   -3.76 KCAL/MOL
REMARK 922        TOTAL FREE ENERGY PREDICTED BY IDOCK:   -5.86 KCAL/MOL
REMARK 923 INTER-LIGAND FREE ENERGY PREDICTED BY IDOCK:   -5.44 KCAL/MOL
REMARK 924 INTRA-LIGAND FREE ENERGY PREDICTED BY IDOCK:   -0.43 KCAL/MOL
REMARK 927      BINDING AFFINITY PREDICTED BY RF-SCORE:    0.00 PKD
ROOT
HETATM    1  C   UNL     1      -5.847  16.477  69.693  1.00  0.00    -0.191 C  
HETATM    2  C   UNL     1      -5.960  14.976  69.464  1.00  0.00    -0.108 C  
ENDROOT
BRANCH   2   3
HETATM    3  C   UNL     1      -7.344  14.607  68.924  1.00  0.00    -0.128 C  
BRANCH   3   4
HETATM    4  C   UNL     1      -7.323  13.343  68.048  1.00  0.00    -0.129 C  
HETATM    5  C   UNL     1      -8.565  12.441  68.262  1.00  0.00    -0.172 C  
HETATM    6  C   UNL     1      -9.806  13.256  67.959  1.00  0.00    -0.230 C  
HETATM    7  C   UNL     1      -8.571  11.213  67.347  1.00  0.00    -0.137 C  
HETATM    8  N   UNL     1      -9.477  10.159  67.631  1.00  0.00    -0.147 N  
HETATM    9  O   UNL     1      -7.877  11.277  66.322  1.00  0.00    -0.147 OA 
HETATM   10  O   UNL     1     -10.594  13.624  68.818  1.00  0.00    -0.249 OA 
HETATM   11  O   UNL     1      -9.957  13.575  66.656  1.00  0.00    -0.267 OA 
BRANCH   8  12
HETATM   12  C   UNL     1     -10.371  10.207  68.748  1.00  0.00    -0.194 A  
HETATM   13  C   UNL     1      -9.932   9.717  69.987  1.00  0.00    -0.299 A  
HETATM   14  C   UNL     1     -11.654  10.770  68.651  1.00  0.00    -0.342 A  
HETATM   15  C   UNL     1     -10.754   9.834  71.117  1.00  0.00    -0.284 A  
HETATM   16  C   UNL     1     -12.008  10.435  71.020  1.00  0.00    -0.481 A  
HETATM   17  C   UNL     1     -12.458  10.900  69.783  1.00  0.00    -0.250 A  
ENDBRANCH   8  12
BRANCH   8  18
HETATM   18  N   UNL     1     -10.041   9.425  66.531  1.00  0.00    -0.262 NA 
HETATM   19  H   UNL     1     -10.590   9.915  65.825  1.00  0.00     0.000 HD 
BRANCH  18  20
HETATM   20  C   UNL     1      -9.840   8.027  66.418  1.00  0.00    -0.167 A  
HETATM   21  C   UNL     1      -8.670   6.043  65.640  1.00  0.00    -0.142 A  
HETATM   22  C   UNL     1      -9.662   5.224  66.171  1.00  0.00    -0.179 A  
HETATM   23  C   UNL     1      -8.738   7.433  65.800  1.00  0.00    -0.132 A  
HETATM   24  C   UNL     1     -10.700   5.789  66.904  1.00  0.00    -0.381 A  
HETATM   25  C   UNL     1     -10.776   7.179  67.038  1.00  0.00    -0.420 A  
ENDBRANCH  18  20
ENDBRANCH   8  18
ENDBRANCH   3   4
ENDBRANCH   2   3
TORSDOF 5
ENDMDL
MODEL      102
REMARK 921   NORMALIZED FREE ENERGY PREDICTED BY IDOCK:   -3.76 KCAL/MOL
REMARK 922        TOTAL FREE ENERGY PREDICTED BY IDOCK:   -5.86 KCAL/MOL
REMARK 923 INTER-LIGAND FREE ENERGY PREDICTED BY IDOCK:   -4.98 KCAL/MOL
REMARK 924 INTRA-LIGAND FREE ENERGY PREDICTED BY IDOCK:   -0.88 KCAL/MOL
REMARK 927      BINDING AFFINITY PREDICTED BY RF-SCORE:    0.00 PKD
ROOT
HETATM    1  C   UNL     1      -9.616  15.881  67.051  1.00  0.00    -0.232 C  
HETATM    2  C   UNL     1     -10.488  14.740  67.559  1.00  0.00    -0.245 C  
ENDROOT
BRANCH   2   3
HETATM    3  C   UNL     1      -9.684  13.792  68.452  1.00  0.00    -0.219 C  
BRANCH   3   4
HETATM    4  C   UNL     1      -9.311  12.481  67.742  1.00  0.00    -0.198 C  
HETATM    5  C   UNL     1      -9.851  11.225  68.471  1.00  0.00    -0.198 C  
HETATM    6  C   UNL     1     -11.359  11.343  68.573  1.00  0.00    -0.271 C  
HETATM    7  C   UNL     1      -9.528   9.924  67.731  1.00  0.00    -0.140 C  
HETATM    8  N   UNL     1      -9.698   8.693  68.416  1.00  0.00    -0.159 N  
HETATM    9  O   UNL     1      -9.272  10.017  66.522  1.00  0.00    -0.146 OA 
HETATM   10  O   UNL     1     -11.947  11.546  69.625  1.00  0.00    -0.310 OA 
HETATM   11  O   UNL     1     -12.006  11.238  67.393  1.00  0.00    -0.581 OA 
BRANCH   8  12
HETATM   12  C   UNL     1     -10.147   8.635  69.773  1.00  0.00    -0.199 A  
HETATM   13  C   UNL     1     -11.443   8.167  70.039  1.00  0.00     0.082 A  
HETATM   14  C   UNL     1      -9.316   8.989  70.849  1.00  0.00    -0.326 A  
HETATM   15  C   UNL     1     -11.876   8.017  71.363  1.00  0.00    -0.326 A  
HETATM   16  C   UNL     1     -11.028   8.328  72.424  1.00  0.00    -0.438 A  
HETATM   17  C   UNL     1      -9.746   8.818  72.164  1.00  0.00    -0.335 A  
ENDBRANCH   8  12
BRANCH   8  18
HETATM   18  N   UNL     1     -10.127   7.544  67.665  1.00  0.00    -0.173 NA 
HETATM   19  H   UNL     1     -11.123   7.379  67.520  1.00  0.00     0.000 HD 
BRANCH  18  20
HETATM   20  C   UNL     1      -9.179   6.640  67.126  1.00  0.00    -0.126 A  
HETATM   21  C   UNL     1      -8.168   5.346  65.333  1.00  0.00    -0.130 A  
HETATM   22  C   UNL     1      -7.316   4.719  66.237  1.00  0.00    -0.078 A  
HETATM   23  C   UNL     1      -9.064   6.330  65.769  1.00  0.00    -0.039 A  
HETATM   24  C   UNL     1      -7.325   5.108  67.572  1.00  0.00    -0.082 A  
HETATM   25  C   UNL     1      -8.240   6.073  68.006  1.00  0.00    -0.113 A  
ENDBRANCH  18  20
ENDBRANCH   8  18
ENDBRANCH   3   4
ENDBRANCH   2   3
TORSDOF 5
ENDMDL
MODEL      103
REMARK 921   NORMALIZED FREE ENERGY PREDICTED BY IDOCK:   -3.76 KCAL/MOL
REMARK 922        TOTAL FREE ENERGY PREDICTED BY IDOCK:   -5.86 KCAL/MOL
REMARK 923 INTER-LIGAND FREE ENERGY PREDICTED BY IDOCK:   -6.50 KCAL/MOL
REMARK 924 INTRA-LIGAND FREE ENERGY PREDICTED BY IDOCK:    0.64 KCAL/MOL
REMARK 927      BINDING AFFINITY PREDICTED BY RF-SCORE:    0.00 PKD
ROOT
HETATM    1  C   UNL     1      -5.917  19.969  64.673  1.00  0.00    -0.295 C  
HETATM    2  C   UNL     1      -5.973  20.265  66.166  1.00  0.00    -0.202 C  
ENDROOT
BRANCH   2   3
HETATM    3  C   UNL     1      -7.402  20.591  66.607  1.00  0.00    -0.288 C  
BRANCH   3   4
HETATM    4  C   UNL     1      -8.441  19.626  66.014  1.00  0.00    -0.283 C  
HETATM    5  C   UNL     1      -8.529  18.286  66.786  1.00  0.00    -0.272 C  
HETATM    6  C   UNL     1      -8.872  18.588  68.231  1.00  0.00    -0.310 C  
HETATM    7  C   UNL     1      -9.606  17.350  66.231  1.00  0.00    -0.242 C  
HETATM    8  N   UNL     1      -9.602  15.991  66.640  1.00  0.00    -0.226 N  
HETATM    9  O   UNL     1     -10.509  17.871  65.561  1.00  0.00    -0.650 OA 
HETATM   10  O   UNL     1      -8.082  18.449  69.153  1.00  0.00    -0.130 OA 
HETATM   11  O   UNL     1     -10.124  19.060  68.418  1.00  0.00    -0.370 OA 
BRANCH   8  12
HETATM   12  C   UNL     1      -8.619  15.473  67.543  1.00  0.00    -0.170 A  
HETATM   13  C   UNL     1      -7.477  14.852  67.016  1.00  0.00     0.033 A  
HETATM   14  C   UNL     1      -8.741  15.610  68.935  1.00  0.00    -0.215 A  
HETATM   15  C   UNL     1      -6.458  14.416  67.875  1.00  0.00    -0.175 A  
HETATM   16  C   UNL     1      -6.568  14.597  69.252  1.00  0.00    -0.128 A  
HETATM   17  C   UNL     1      -7.715  15.192  69.782  1.00  0.00    -0.066 A  
ENDBRANCH   8  12
BRANCH   8  18
HETATM   18  N   UNL     1     -10.862  15.315  66.783  1.00  0.00    -0.312 NA 
HETATM   19  H   UNL     1     -11.382  15.035  65.951  1.00  0.00     0.000 HD 
BRANCH  18  20
HETATM   20  C   UNL     1     -11.389  15.033  68.067  1.00  0.00    -0.327 A  
HETATM   21  C   UNL     1     -12.247  15.643  70.259  1.00  0.00    -0.416 A  
HETATM   22  C   UNL     1     -12.294  14.304  70.636  1.00  0.00    -0.431 A  
HETATM   23  C   UNL     1     -11.838  16.001  68.968  1.00  0.00    -0.258 A  
HETATM   24  C   UNL     1     -11.978  13.317  69.709  1.00  0.00    -0.391 A  
HETATM   25  C   UNL     1     -11.544  13.683  68.431  1.00  0.00    -0.377 A  
ENDBRANCH  18  20
ENDBRANCH   8  18
ENDBRANCH   3   4
ENDBRANCH   2   3
TORSDOF 5
ENDMDL
MODEL      104
REMARK 921   NORMALIZED FREE ENERGY PREDICTED BY IDOCK:   -3.76 KCAL/MOL
REMARK 922        TOTAL FREE ENERGY PREDICTED BY IDOCK:   -5.86 KCAL/MOL
REMARK 923 INTER-LIGAND FREE ENERGY PREDICTED BY IDOCK:   -6.18 KCAL/MOL
REMARK 924 INTRA-LIGAND FREE ENERGY PREDICTED BY IDOCK:    0.32 KCAL/MOL
REMARK 927      BINDING AFFINITY PREDICTED BY RF-SCORE:    0.00 PKD
ROOT
HETATM    1  C   UNL     1      -6.304  20.201  71.062  1.00  0.00    -0.139 C  
HETATM    2  C   UNL     1      -6.101  19.070  70.061  1.00  0.00    -0.222 C  
ENDROOT
BRANCH   2   3
HETATM    3  C   UNL     1      -7.437  18.427  69.684  1.00  0.00     0.398 C  
BRANCH   3   4
HETATM    4  C   UNL     1      -7.535  18.094  68.187  1.00  0.00    -0.262 C  
HETATM    5  C   UNL     1      -8.515  16.931  67.890  1.00  0.00    -0.203 C  
HETATM    6  C   UNL     1      -9.882  17.309  68.424  1.00  0.00    -0.309 C  
HETATM    7  C   UNL     1      -8.656  16.641  66.393  1.00  0.00    -0.310 C  
HETATM    8  N   UNL     1      -9.279  15.430  65.992  1.00  0.00    -0.325 N  
HETATM    9  O   UNL     1      -8.343  17.553  65.615  1.00  0.00    -0.479 OA 
HETATM   10  O   UNL     1     -10.393  16.777  69.399  1.00  0.00    -0.302 OA 
HETATM   11  O   UNL     1     -10.484  18.312  67.751  1.00  0.00    -0.387 OA 
BRANCH   8  12
HETATM   12  C   UNL     1      -9.764  14.475  66.941  1.00  0.00    -0.252 A  
HETATM   13  C   UNL     1      -8.884  13.497  67.428  1.00  0.00    -0.221 A  
HETATM   14  C   UNL     1     -11.079  14.517  67.433  1.00  0.00    -0.320 A  
HETATM   15  C   UNL     1      -9.309  12.607  68.424  1.00  0.00    -0.148 A  
HETATM   16  C   UNL     1     -10.602  12.685  68.938  1.00  0.00    -0.157 A  
HETATM   17  C   UNL     1     -11.489  13.641  68.438  1.00  0.00    -0.346 A  
ENDBRANCH   8  12
BRANCH   8  18
HETATM   18  N   UNL     1     -10.066  15.431  64.789  1.00  0.00    -0.409 NA 
HETATM   19  H   UNL     1     -10.040  16.240  64.169  1.00  0.00     0.000 HD 
BRANCH  18  20
HETATM   20  C   UNL     1     -10.878  14.319  64.457  1.00  0.00    -0.288 A  
HETATM   21  C   UNL     1     -13.003  13.199  64.081  1.00  0.00     0.171 A  
HETATM   22  C   UNL     1     -12.355  11.979  63.916  1.00  0.00    -0.553 A  
HETATM   23  C   UNL     1     -12.265  14.368  64.308  1.00  0.00    -0.450 A  
HETATM   24  C   UNL     1     -10.965  11.931  63.929  1.00  0.00    -0.473 A  
HETATM   25  C   UNL     1     -10.236  13.097  64.182  1.00  0.00    -0.189 A  
ENDBRANCH  18  20
ENDBRANCH   8  18
ENDBRANCH   3   4
ENDBRANCH   2   3
TORSDOF 5
ENDMDL
MODEL      105
REMARK 921   NORMALIZED FREE ENERGY PREDICTED BY IDOCK:   -3.74 KCAL/MOL
REMARK 922        TOTAL FREE ENERGY PREDICTED BY IDOCK:   -5.83 KCAL/MOL
REMARK 923 INTER-LIGAND FREE ENERGY PREDICTED BY IDOCK:   -4.92 KCAL/MOL
REMARK 924 INTRA-LIGAND FREE ENERGY PREDICTED BY IDOCK:   -0.92 KCAL/MOL
REMARK 927      BINDING AFFINITY PREDICTED BY RF-SCORE:    0.00 PKD
ROOT
HETATM    1  C   UNL     1     -13.336   9.748  71.680  1.00  0.00    -0.487 C  
HETATM    2  C   UNL     1     -12.337   8.755  72.260  1.00  0.00    -0.448 C  
ENDROOT
BRANCH   2   3
HETATM    3  C   UNL     1     -11.049   8.729  71.434  1.00  0.00    -0.361 C  
BRANCH   3   4
HETATM    4  C   UNL     1     -10.969   7.514  70.496  1.00  0.00    -0.266 C  
HETATM    5  C   UNL     1     -10.109   7.781  69.235  1.00  0.00    -0.199 C  
HETATM    6  C   UNL     1      -8.716   8.178  69.682  1.00  0.00    -0.142 C  
HETATM    7  C   UNL     1      -9.983   6.552  68.331  1.00  0.00    -0.141 C  
HETATM    8  N   UNL     1      -9.481   6.726  67.015  1.00  0.00    -0.140 N  
HETATM    9  O   UNL     1     -10.195   5.449  68.854  1.00  0.00    -0.184 OA 
HETATM   10  O   UNL     1      -8.271   9.311  69.567  1.00  0.00    -0.106 OA 
HETATM   11  O   UNL     1      -8.009   7.179  70.252  1.00  0.00    -0.112 OA 
BRANCH   8  12
HETATM   12  C   UNL     1      -9.104   8.010  66.510  1.00  0.00    -0.173 A  
HETATM   13  C   UNL     1      -7.753   8.256  66.224  1.00  0.00    -0.097 A  
HETATM   14  C   UNL     1     -10.051   9.015  66.248  1.00  0.00    -0.311 A  
HETATM   15  C   UNL     1      -7.369   9.473  65.645  1.00  0.00    -0.094 A  
HETATM   16  C   UNL     1      -8.321  10.446  65.348  1.00  0.00    -0.166 A  
HETATM   17  C   UNL     1      -9.664  10.216  65.654  1.00  0.00    -0.322 A  
ENDBRANCH   8  12
BRANCH   8  18
HETATM   18  N   UNL     1      -8.686   5.675  66.441  1.00  0.00    -0.122 NA 
HETATM   19  H   UNL     1      -7.850   5.351  66.927  1.00  0.00     0.000 HD 
BRANCH  18  20
HETATM   20  C   UNL     1      -9.052   5.084  65.206  1.00  0.00    -0.139 A  
HETATM   21  C   UNL     1      -8.779   4.635  62.832  1.00  0.00    -0.123 A  
HETATM   22  C   UNL     1      -9.993   3.955  62.799  1.00  0.00    -0.166 A  
HETATM   23  C   UNL     1      -8.293   5.159  64.037  1.00  0.00    -0.132 A  
HETATM   24  C   UNL     1     -10.701   3.756  63.980  1.00  0.00    -0.256 A  
HETATM   25  C   UNL     1     -10.223   4.304  65.174  1.00  0.00    -0.228 A  
ENDBRANCH  18  20
ENDBRANCH   8  18
ENDBRANCH   3   4
ENDBRANCH   2   3
TORSDOF 5
ENDMDL
MODEL      106
REMARK 921   NORMALIZED FREE ENERGY PREDICTED BY IDOCK:   -3.72 KCAL/MOL
REMARK 922        TOTAL FREE ENERGY PREDICTED BY IDOCK:   -5.82 KCAL/MOL
REMARK 923 INTER-LIGAND FREE ENERGY PREDICTED BY IDOCK:   -5.58 KCAL/MOL
REMARK 924 INTRA-LIGAND FREE ENERGY PREDICTED BY IDOCK:   -0.24 KCAL/MOL
REMARK 927      BINDING AFFINITY PREDICTED BY RF-SCORE:    0.00 PKD
ROOT
HETATM    1  C   UNL     1     -10.197   3.877  64.235  1.00  0.00    -0.234 C  
HETATM    2  C   UNL     1      -9.174   4.418  65.226  1.00  0.00    -0.155 C  
ENDROOT
BRANCH   2   3
HETATM    3  C   UNL     1      -9.460   3.911  66.641  1.00  0.00    -0.217 C  
BRANCH   3   4
HETATM    4  C   UNL     1      -8.772   4.755  67.726  1.00  0.00    -0.107 C  
HETATM    5  C   UNL     1      -9.110   6.263  67.621  1.00  0.00    -0.117 C  
HETATM    6  C   UNL     1     -10.614   6.424  67.721  1.00  0.00    -0.266 C  
HETATM    7  C   UNL     1      -8.470   7.094  68.737  1.00  0.00    -0.126 C  
HETATM    8  N   UNL     1      -8.447   8.507  68.605  1.00  0.00    -0.130 N  
HETATM    9  O   UNL     1      -8.135   6.486  69.764  1.00  0.00    -0.120 OA 
HETATM   10  O   UNL     1     -11.319   6.751  66.778  1.00  0.00    -0.239 OA 
HETATM   11  O   UNL     1     -11.123   6.144  68.940  1.00  0.00    -0.349 OA 
BRANCH   8  12
HETATM   12  C   UNL     1      -8.991   9.170  67.460  1.00  0.00    -0.122 A  
HETATM   13  C   UNL     1      -8.411   8.938  66.204  1.00  0.00    -0.133 A  
HETATM   14  C   UNL     1     -10.114  10.010  67.549  1.00  0.00    -0.243 A  
HETATM   15  C   UNL     1      -8.979   9.504  65.054  1.00  0.00    -0.258 A  
HETATM   16  C   UNL     1     -10.121  10.299  65.148  1.00  0.00    -0.355 A  
HETATM   17  C   UNL     1     -10.685  10.554  66.399  1.00  0.00    -0.166 A  
ENDBRANCH   8  12
BRANCH   8  18
HETATM   18  N   UNL     1      -8.571   9.308  69.792  1.00  0.00    -0.144 NA 
HETATM   19  H   UNL     1      -7.989  10.138  69.905  1.00  0.00     0.000 HD 
BRANCH  18  20
HETATM   20  C   UNL     1      -9.493   8.955  70.808  1.00  0.00    -0.228 A  
HETATM   21  C   UNL     1     -10.127   7.972  72.940  1.00  0.00    -0.376 A  
HETATM   22  C   UNL     1     -11.473   8.198  72.668  1.00  0.00    -0.454 A  
HETATM   23  C   UNL     1      -9.142   8.386  72.034  1.00  0.00    -0.296 A  
HETATM   24  C   UNL     1     -11.835   8.882  71.513  1.00  0.00    -0.402 A  
HETATM   25  C   UNL     1     -10.849   9.270  70.600  1.00  0.00    -0.339 A  
ENDBRANCH  18  20
ENDBRANCH   8  18
ENDBRANCH   3   4
ENDBRANCH   2   3
TORSDOF 5
ENDMDL
MODEL      107
REMARK 921   NORMALIZED FREE ENERGY PREDICTED BY IDOCK:   -3.71 KCAL/MOL
REMARK 922        TOTAL FREE ENERGY PREDICTED BY IDOCK:   -5.80 KCAL/MOL
REMARK 923 INTER-LIGAND FREE ENERGY PREDICTED BY IDOCK:   -5.14 KCAL/MOL
REMARK 924 INTRA-LIGAND FREE ENERGY PREDICTED BY IDOCK:   -0.66 KCAL/MOL
REMARK 927      BINDING AFFINITY PREDICTED BY RF-SCORE:    0.00 PKD
ROOT
HETATM    1  C   UNL     1      -9.360  19.013  66.930  1.00  0.00    -0.346 C  
HETATM    2  C   UNL     1     -10.347  18.016  66.336  1.00  0.00    -0.382 C  
ENDROOT
BRANCH   2   3
HETATM    3  C   UNL     1      -9.701  16.639  66.170  1.00  0.00    -0.329 C  
BRANCH   3   4
HETATM    4  C   UNL     1     -10.503  15.519  66.854  1.00  0.00    -0.301 C  
HETATM    5  C   UNL     1      -9.612  14.344  67.330  1.00  0.00    -0.227 C  
HETATM    6  C   UNL     1      -8.572  14.890  68.287  1.00  0.00    -0.160 C  
HETATM    7  C   UNL     1     -10.405  13.258  68.063  1.00  0.00    -0.241 C  
HETATM    8  N   UNL     1      -9.784  12.002  68.292  1.00  0.00    -0.202 N  
HETATM    9  O   UNL     1     -11.499  13.591  68.541  1.00  0.00    -0.266 OA 
HETATM   10  O   UNL     1      -7.384  14.973  68.012  1.00  0.00    -0.107 OA 
HETATM   11  O   UNL     1      -9.070  15.313  69.469  1.00  0.00    -0.241 OA 
BRANCH   8  12
HETATM   12  C   UNL     1      -8.452  11.722  67.850  1.00  0.00    -0.154 A  
HETATM   13  C   UNL     1      -7.401  11.798  68.776  1.00  0.00    -0.114 A  
HETATM   14  C   UNL     1      -8.173  11.329  66.531  1.00  0.00    -0.165 A  
HETATM   15  C   UNL     1      -6.101  11.443  68.391  1.00  0.00    -0.045 A  
HETATM   16  C   UNL     1      -5.842  11.010  67.091  1.00  0.00    -0.064 A  
HETATM   17  C   UNL     1      -6.881  10.957  66.160  1.00  0.00    -0.100 A  
ENDBRANCH   8  12
BRANCH   8  18
HETATM   18  N   UNL     1     -10.104  11.291  69.499  1.00  0.00    -0.418 NA 
HETATM   19  H   UNL     1     -10.395  11.808  70.329  1.00  0.00     0.000 HD 
BRANCH  18  20
HETATM   20  C   UNL     1     -10.019   9.878  69.548  1.00  0.00    -0.222 A  
HETATM   21  C   UNL     1      -9.328   7.762  70.528  1.00  0.00    -0.163 A  
HETATM   22  C   UNL     1      -9.817   7.068  69.425  1.00  0.00    -0.160 A  
HETATM   23  C   UNL     1      -9.467   9.154  70.607  1.00  0.00    -0.316 A  
HETATM   24  C   UNL     1     -10.488   7.757  68.421  1.00  0.00    -0.207 A  
HETATM   25  C   UNL     1     -10.600   9.149  68.494  1.00  0.00    -0.209 A  
ENDBRANCH  18  20
ENDBRANCH   8  18
ENDBRANCH   3   4
ENDBRANCH   2   3
TORSDOF 5
ENDMDL
MODEL      108
REMARK 921   NORMALIZED FREE ENERGY PREDICTED BY IDOCK:   -3.71 KCAL/MOL
REMARK 922        TOTAL FREE ENERGY PREDICTED BY IDOCK:   -5.80 KCAL/MOL
REMARK 923 INTER-LIGAND FREE ENERGY PREDICTED BY IDOCK:   -5.43 KCAL/MOL
REMARK 924 INTRA-LIGAND FREE ENERGY PREDICTED BY IDOCK:   -0.36 KCAL/MOL
REMARK 927      BINDING AFFINITY PREDICTED BY RF-SCORE:    0.00 PKD
ROOT
HETATM    1  C   UNL     1     -12.154   8.356  72.210  1.00  0.00    -0.456 C  
HETATM    2  C   UNL     1     -12.527   7.107  71.421  1.00  0.00    -0.427 C  
ENDROOT
BRANCH   2   3
HETATM    3  C   UNL     1     -11.275   6.391  70.907  1.00  0.00    -0.384 C  
BRANCH   3   4
HETATM    4  C   UNL     1     -11.165   6.415  69.374  1.00  0.00    -0.459 C  
HETATM    5  C   UNL     1     -10.700   7.786  68.824  1.00  0.00    -0.093 C  
HETATM    6  C   UNL     1      -9.356   8.119  69.441  1.00  0.00    -0.155 C  
HETATM    7  C   UNL     1     -10.534   7.790  67.301  1.00  0.00    -0.322 C  
HETATM    8  N   UNL     1     -10.402   9.036  66.635  1.00  0.00    -0.251 N  
HETATM    9  O   UNL     1     -10.381   6.689  66.753  1.00  0.00    -0.219 OA 
HETATM   10  O   UNL     1      -9.198   9.003  70.270  1.00  0.00    -0.171 OA 
HETATM   11  O   UNL     1      -8.342   7.331  69.023  1.00  0.00    -0.124 OA 
BRANCH   8  12
HETATM   12  C   UNL     1     -10.432  10.280  67.341  1.00  0.00    -0.251 A  
HETATM   13  C   UNL     1      -9.287  11.091  67.334  1.00  0.00    -0.165 A  
HETATM   14  C   UNL     1     -11.586  10.735  68.000  1.00  0.00    -0.245 A  
HETATM   15  C   UNL     1      -9.318  12.353  67.941  1.00  0.00    -0.195 A  
HETATM   16  C   UNL     1     -10.483  12.815  68.554  1.00  0.00    -0.252 A  
HETATM   17  C   UNL     1     -11.617  12.000  68.586  1.00  0.00    -0.372 A  
ENDBRANCH   8  12
BRANCH   8  18
HETATM   18  N   UNL     1      -9.561   9.105  65.471  1.00  0.00    -0.446 NA 
HETATM   19  H   UNL     1      -9.837   9.690  64.683  1.00  0.00     0.000 HD 
BRANCH  18  20
HETATM   20  C   UNL     1      -8.353   8.368  65.410  1.00  0.00    -0.157 A  
HETATM   21  C   UNL     1      -6.934   6.559  64.618  1.00  0.00    -0.054 A  
HETATM   22  C   UNL     1      -5.930   6.929  65.507  1.00  0.00    -0.036 A  
HETATM   23  C   UNL     1      -8.121   7.299  64.541  1.00  0.00    -0.071 A  
HETATM   24  C   UNL     1      -6.088   8.069  66.287  1.00  0.00    -0.045 A  
HETATM   25  C   UNL     1      -7.285   8.789  66.224  1.00  0.00    -0.086 A  
ENDBRANCH  18  20
ENDBRANCH   8  18
ENDBRANCH   3   4
ENDBRANCH   2   3
TORSDOF 5
ENDMDL
MODEL      109
REMARK 921   NORMALIZED FREE ENERGY PREDICTED BY IDOCK:   -3.70 KCAL/MOL
REMARK 922        TOTAL FREE ENERGY PREDICTED BY IDOCK:   -5.78 KCAL/MOL
REMARK 923 INTER-LIGAND FREE ENERGY PREDICTED BY IDOCK:   -4.70 KCAL/MOL
REMARK 924 INTRA-LIGAND FREE ENERGY PREDICTED BY IDOCK:   -1.08 KCAL/MOL
REMARK 927      BINDING AFFINITY PREDICTED BY RF-SCORE:    0.00 PKD
ROOT
HETATM    1  C   UNL     1      -5.364   4.483  64.667  1.00  0.00    -0.013 C  
HETATM    2  C   UNL     1      -5.610   3.551  65.847  1.00  0.00    -0.018 C  
ENDROOT
BRANCH   2   3
HETATM    3  C   UNL     1      -7.015   2.946  65.783  1.00  0.00    -0.053 C  
BRANCH   3   4
HETATM    4  C   UNL     1      -7.902   3.377  66.963  1.00  0.00    -0.079 C  
HETATM    5  C   UNL     1      -8.407   4.836  66.836  1.00  0.00    -0.106 C  
HETATM    6  C   UNL     1      -9.179   4.964  65.537  1.00  0.00    -0.157 C  
HETATM    7  C   UNL     1      -9.338   5.243  67.981  1.00  0.00    -0.117 C  
HETATM    8  N   UNL     1      -9.637   6.620  68.156  1.00  0.00    -0.121 N  
HETATM    9  O   UNL     1      -9.892   4.327  68.605  1.00  0.00    -0.137 OA 
HETATM   10  O   UNL     1      -8.769   5.590  64.571  1.00  0.00    -0.101 OA 
HETATM   11  O   UNL     1     -10.353   4.297  65.521  1.00  0.00    -0.239 OA 
BRANCH   8  12
HETATM   12  C   UNL     1      -9.088   7.630  67.305  1.00  0.00    -0.127 A  
HETATM   13  C   UNL     1      -9.941   8.313  66.426  1.00  0.00    -0.264 A  
HETATM   14  C   UNL     1      -7.731   7.990  67.357  1.00  0.00    -0.102 A  
HETATM   15  C   UNL     1      -9.446   9.367  65.646  1.00  0.00    -0.328 A  
HETATM   16  C   UNL     1      -8.108   9.746  65.738  1.00  0.00    -0.119 A  
HETATM   17  C   UNL     1      -7.249   9.053  66.593  1.00  0.00    -0.085 A  
ENDBRANCH   8  12
BRANCH   8  18
HETATM   18  N   UNL     1     -10.944   6.981  68.634  1.00  0.00    -0.442 NA 
HETATM   19  H   UNL     1     -11.745   6.923  68.006  1.00  0.00     0.000 HD 
BRANCH  18  20
HETATM   20  C   UNL     1     -11.129   7.416  69.970  1.00  0.00    -0.220 A  
HETATM   21  C   UNL     1     -11.186   9.086  71.736  1.00  0.00    -0.448 A  
HETATM   22  C   UNL     1     -11.393   8.098  72.693  1.00  0.00    -0.450 A  
HETATM   23  C   UNL     1     -11.097   8.751  70.379  1.00  0.00    -0.261 A  
HETATM   24  C   UNL     1     -11.560   6.777  72.292  1.00  0.00    -0.311 A  
HETATM   25  C   UNL     1     -11.444   6.445  70.938  1.00  0.00    -0.406 A  
ENDBRANCH  18  20
ENDBRANCH   8  18
ENDBRANCH   3   4
ENDBRANCH   2   3
TORSDOF 5
ENDMDL
MODEL      110
REMARK 921   NORMALIZED FREE ENERGY PREDICTED BY IDOCK:   -3.70 KCAL/MOL
REMARK 922        TOTAL FREE ENERGY PREDICTED BY IDOCK:   -5.78 KCAL/MOL
REMARK 923 INTER-LIGAND FREE ENERGY PREDICTED BY IDOCK:   -4.94 KCAL/MOL
REMARK 924 INTRA-LIGAND FREE ENERGY PREDICTED BY IDOCK:   -0.84 KCAL/MOL
REMARK 927      BINDING AFFINITY PREDICTED BY RF-SCORE:    0.00 PKD
ROOT
HETATM    1  C   UNL     1      -6.349   2.108  70.920  1.00  0.00    -0.023 C  
HETATM    2  C   UNL     1      -7.053   3.043  71.894  1.00  0.00    -0.038 C  
ENDROOT
BRANCH   2   3
HETATM    3  C   UNL     1      -6.681   4.502  71.618  1.00  0.00    -0.031 C  
BRANCH   3   4
HETATM    4  C   UNL     1      -7.822   5.479  71.946  1.00  0.00    -0.109 C  
HETATM    5  C   UNL     1      -8.399   6.174  70.688  1.00  0.00    -0.126 C  
HETATM    6  C   UNL     1      -8.896   5.104  69.735  1.00  0.00    -0.106 C  
HETATM    7  C   UNL     1      -9.574   7.102  71.010  1.00  0.00    -0.158 C  
HETATM    8  N   UNL     1     -10.008   8.019  70.016  1.00  0.00    -0.189 N  
HETATM    9  O   UNL     1     -10.173   6.897  72.075  1.00  0.00    -0.187 OA 
HETATM   10  O   UNL     1      -8.345   4.840  68.676  1.00  0.00    -0.083 OA 
HETATM   11  O   UNL     1      -9.986   4.437  70.168  1.00  0.00    -0.221 OA 
BRANCH   8  12
HETATM   12  C   UNL     1      -9.373   8.107  68.737  1.00  0.00    -0.143 A  
HETATM   13  C   UNL     1      -8.033   8.515  68.672  1.00  0.00    -0.116 A  
HETATM   14  C   UNL     1     -10.038   7.754  67.550  1.00  0.00    -0.272 A  
HETATM   15  C   UNL     1      -7.362   8.525  67.442  1.00  0.00    -0.089 A  
HETATM   16  C   UNL     1      -8.017   8.129  66.276  1.00  0.00    -0.101 A  
HETATM   17  C   UNL     1      -9.358   7.746  66.333  1.00  0.00    -0.237 A  
ENDBRANCH   8  12
BRANCH   8  18
HETATM   18  N   UNL     1     -11.408   8.332  69.938  1.00  0.00    -0.454 NA 
HETATM   19  H   UNL     1     -12.050   7.672  69.498  1.00  0.00     0.000 HD 
BRANCH  18  20
HETATM   20  C   UNL     1     -11.906   9.549  70.465  1.00  0.00    -0.183 A  
HETATM   21  C   UNL     1     -13.317  10.882  71.930  1.00  0.00    -0.429 A  
HETATM   22  C   UNL     1     -12.896  12.052  71.307  1.00  0.00    -0.364 A  
HETATM   23  C   UNL     1     -12.794   9.643  71.539  1.00  0.00    -0.485 A  
HETATM   24  C   UNL     1     -11.914  11.992  70.323  1.00  0.00    -0.398 A  
HETATM   25  C   UNL     1     -11.414  10.750  69.920  1.00  0.00    -0.398 A  
ENDBRANCH  18  20
ENDBRANCH   8  18
ENDBRANCH   3   4
ENDBRANCH   2   3
TORSDOF 5
ENDMDL
MODEL      111
REMARK 921   NORMALIZED FREE ENERGY PREDICTED BY IDOCK:   -3.68 KCAL/MOL
REMARK 922        TOTAL FREE ENERGY PREDICTED BY IDOCK:   -5.76 KCAL/MOL
REMARK 923 INTER-LIGAND FREE ENERGY PREDICTED BY IDOCK:   -5.89 KCAL/MOL
REMARK 924 INTRA-LIGAND FREE ENERGY PREDICTED BY IDOCK:    0.13 KCAL/MOL
REMARK 927      BINDING AFFINITY PREDICTED BY RF-SCORE:    0.00 PKD
ROOT
HETATM    1  C   UNL     1      -5.966   5.172  65.634  1.00  0.00    -0.029 C  
HETATM    2  C   UNL     1      -7.443   5.137  66.003  1.00  0.00    -0.082 C  
ENDROOT
BRANCH   2   3
HETATM    3  C   UNL     1      -7.950   6.534  66.367  1.00  0.00    -0.110 C  
BRANCH   3   4
HETATM    4  C   UNL     1      -7.970   6.783  67.884  1.00  0.00    -0.114 C  
HETATM    5  C   UNL     1      -8.879   7.971  68.288  1.00  0.00    -0.133 C  
HETATM    6  C   UNL     1     -10.284   7.688  67.794  1.00  0.00    -0.201 C  
HETATM    7  C   UNL     1      -8.944   8.179  69.804  1.00  0.00    -0.144 C  
HETATM    8  N   UNL     1      -9.490   9.392  70.300  1.00  0.00    -0.233 N  
HETATM    9  O   UNL     1      -8.643   7.210  70.515  1.00  0.00    -0.140 OA 
HETATM   10  O   UNL     1     -10.808   8.299  66.874  1.00  0.00    -0.228 OA 
HETATM   11  O   UNL     1     -10.906   6.676  68.436  1.00  0.00    -0.239 OA 
BRANCH   8  12
HETATM   12  C   UNL     1      -9.967  10.422  69.428  1.00  0.00    -0.218 A  
HETATM   13  C   UNL     1      -9.037  11.169  68.690  1.00  0.00    -0.166 A  
HETATM   14  C   UNL     1     -11.338  10.675  69.255  1.00  0.00    -0.346 A  
HETATM   15  C   UNL     1      -9.481  12.122  67.763  1.00  0.00    -0.192 A  
HETATM   16  C   UNL     1     -10.845  12.334  67.566  1.00  0.00    -0.271 A  
HETATM   17  C   UNL     1     -11.773  11.610  68.317  1.00  0.00    -0.374 A  
ENDBRANCH   8  12
BRANCH   8  18
HETATM   18  N   UNL     1     -10.226   9.357  71.534  1.00  0.00    -0.259 NA 
HETATM   19  H   UNL     1      -9.840   9.806  72.365  1.00  0.00     0.000 HD 
BRANCH  18  20
HETATM   20  C   UNL     1     -11.481   8.704  71.608  1.00  0.00    -0.305 A  
HETATM   21  C   UNL     1     -12.939   6.759  71.556  1.00  0.00    -0.281 A  
HETATM   22  C   UNL     1     -14.064   7.574  71.637  1.00  0.00    -0.562 A  
HETATM   23  C   UNL     1     -11.655   7.319  71.584  1.00  0.00    -0.306 A  
HETATM   24  C   UNL     1     -13.908   8.947  71.795  1.00  0.00    -0.465 A  
HETATM   25  C   UNL     1     -12.625   9.502  71.796  1.00  0.00    -0.490 A  
ENDBRANCH  18  20
ENDBRANCH   8  18
ENDBRANCH   3   4
ENDBRANCH   2   3
TORSDOF 5
ENDMDL
MODEL      112
REMARK 921   NORMALIZED FREE ENERGY PREDICTED BY IDOCK:   -3.68 KCAL/MOL
REMARK 922        TOTAL FREE ENERGY PREDICTED BY IDOCK:   -5.76 KCAL/MOL
REMARK 923 INTER-LIGAND FREE ENERGY PREDICTED BY IDOCK:   -4.92 KCAL/MOL
REMARK 924 INTRA-LIGAND FREE ENERGY PREDICTED BY IDOCK:   -0.83 KCAL/MOL
REMARK 927      BINDING AFFINITY PREDICTED BY RF-SCORE:    0.00 PKD
ROOT
HETATM    1  C   UNL     1     -12.633  14.192  65.687  1.00  0.00    -0.495 C  
HETATM    2  C   UNL     1     -11.863  12.914  65.996  1.00  0.00    -0.485 C  
ENDROOT
BRANCH   2   3
HETATM    3  C   UNL     1     -11.736  12.704  67.506  1.00  0.00    -0.429 C  
BRANCH   3   4
HETATM    4  C   UNL     1     -11.511  11.230  67.884  1.00  0.00    -0.360 C  
HETATM    5  C   UNL     1     -10.267  10.615  67.196  1.00  0.00    -0.261 C  
HETATM    6  C   UNL     1      -9.053  11.436  67.580  1.00  0.00    -0.155 C  
HETATM    7  C   UNL     1     -10.011   9.166  67.619  1.00  0.00    -0.195 C  
HETATM    8  N   UNL     1      -9.098   8.388  66.861  1.00  0.00    -0.142 N  
HETATM    9  O   UNL     1     -10.514   8.799  68.692  1.00  0.00    -0.211 OA 
HETATM   10  O   UNL     1      -8.459  12.163  66.798  1.00  0.00    -0.185 OA 
HETATM   11  O   UNL     1      -8.694  11.325  68.877  1.00  0.00    -0.138 OA 
BRANCH   8  12
HETATM   12  C   UNL     1      -8.424   8.913  65.714  1.00  0.00    -0.145 A  
HETATM   13  C   UNL     1      -9.183   9.285  64.593  1.00  0.00    -0.112 A  
HETATM   14  C   UNL     1      -7.033   9.112  65.693  1.00  0.00    -0.081 A  
HETATM   15  C   UNL     1      -8.558   9.884  63.492  1.00  0.00    -0.201 A  
HETATM   16  C   UNL     1      -7.183  10.119  63.499  1.00  0.00    -0.120 A  
HETATM   17  C   UNL     1      -6.421   9.727  64.602  1.00  0.00    -0.111 A  
ENDBRANCH   8  12
BRANCH   8  18
HETATM   18  N   UNL     1      -8.297   7.411  67.547  1.00  0.00    -0.113 NA 
HETATM   19  H   UNL     1      -7.412   7.690  67.970  1.00  0.00     0.000 HD 
BRANCH  18  20
HETATM   20  C   UNL     1      -8.724   6.063  67.639  1.00  0.00    -0.104 A  
HETATM   21  C   UNL     1      -9.011   3.934  68.779  1.00  0.00    -0.172 A  
HETATM   22  C   UNL     1      -9.504   3.353  67.614  1.00  0.00    -0.231 A  
HETATM   23  C   UNL     1      -8.663   5.291  68.801  1.00  0.00    -0.093 A  
HETATM   24  C   UNL     1      -9.697   4.139  66.483  1.00  0.00    -0.228 A  
HETATM   25  C   UNL     1      -9.323   5.486  66.504  1.00  0.00    -0.154 A  
ENDBRANCH  18  20
ENDBRANCH   8  18
ENDBRANCH   3   4
ENDBRANCH   2   3
TORSDOF 5
ENDMDL
MODEL      113
REMARK 921   NORMALIZED FREE ENERGY PREDICTED BY IDOCK:   -3.67 KCAL/MOL
REMARK 922        TOTAL FREE ENERGY PREDICTED BY IDOCK:   -5.74 KCAL/MOL
REMARK 923 INTER-LIGAND FREE ENERGY PREDICTED BY IDOCK:   -4.91 KCAL/MOL
REMARK 924 INTRA-LIGAND FREE ENERGY PREDICTED BY IDOCK:   -0.84 KCAL/MOL
REMARK 927      BINDING AFFINITY PREDICTED BY RF-SCORE:    0.00 PKD
ROOT
HETATM    1  C   UNL     1      -5.202  18.517  70.681  1.00  0.00    -0.257 C  
HETATM    2  C   UNL     1      -5.193  16.994  70.687  1.00  0.00    -0.237 C  
ENDROOT
BRANCH   2   3
HETATM    3  C   UNL     1      -6.267  16.437  69.748  1.00  0.00    -0.204 C  
BRANCH   3   4
HETATM    4  C   UNL     1      -6.441  14.915  69.881  1.00  0.00    -0.171 C  
HETATM    5  C   UNL     1      -7.450  14.333  68.860  1.00  0.00    -0.123 C  
HETATM    6  C   UNL     1      -6.970  14.676  67.464  1.00  0.00    -0.168 C  
HETATM    7  C   UNL     1      -7.578  12.809  68.955  1.00  0.00     0.057 C  
HETATM    8  N   UNL     1      -8.665  12.177  68.297  1.00  0.00    -0.183 N  
HETATM    9  O   UNL     1      -6.637  12.201  69.486  1.00  0.00    -0.112 OA 
HETATM   10  O   UNL     1      -7.531  15.487  66.742  1.00  0.00    -0.151 OA 
HETATM   11  O   UNL     1      -5.845  14.032  67.088  1.00  0.00    -0.205 OA 
BRANCH   8  12
HETATM   12  C   UNL     1      -9.644  12.919  67.564  1.00  0.00    -0.200 A  
HETATM   13  C   UNL     1     -10.626  13.629  68.271  1.00  0.00    -0.261 A  
HETATM   14  C   UNL     1      -9.623  12.996  66.161  1.00  0.00    -0.209 A  
HETATM   15  C   UNL     1     -11.541  14.435  67.581  1.00  0.00    -0.396 A  
HETATM   16  C   UNL     1     -11.484  14.540  66.192  1.00  0.00    -0.357 A  
HETATM   17  C   UNL     1     -10.524  13.815  65.482  1.00  0.00    -0.327 A  
ENDBRANCH   8  12
BRANCH   8  18
HETATM   18  N   UNL     1      -8.458  10.869  67.736  1.00  0.00    -0.122 NA 
HETATM   19  H   UNL     1      -7.754  10.737  67.010  1.00  0.00     0.000 HD 
BRANCH  18  20
HETATM   20  C   UNL     1      -9.224   9.764  68.180  1.00  0.00    -0.128 A  
HETATM   21  C   UNL     1     -10.164   8.297  69.877  1.00  0.00    -0.201 A  
HETATM   22  C   UNL     1     -10.664   7.447  68.895  1.00  0.00    -0.152 A  
HETATM   23  C   UNL     1      -9.485   9.470  69.520  1.00  0.00    -0.195 A  
HETATM   24  C   UNL     1     -10.529   7.791  67.554  1.00  0.00    -0.338 A  
HETATM   25  C   UNL     1      -9.827   8.949  67.205  1.00  0.00    -0.267 A  
ENDBRANCH  18  20
ENDBRANCH   8  18
ENDBRANCH   3   4
ENDBRANCH   2   3
TORSDOF 5
ENDMDL
MODEL      114
REMARK 921   NORMALIZED FREE ENERGY PREDICTED BY IDOCK:   -3.66 KCAL/MOL
REMARK 922        TOTAL FREE ENERGY PREDICTED BY IDOCK:   -5.74 KCAL/MOL
REMARK 923 INTER-LIGAND FREE ENERGY PREDICTED BY IDOCK:   -5.00 KCAL/MOL
REMARK 924 INTRA-LIGAND FREE ENERGY PREDICTED BY IDOCK:   -0.74 KCAL/MOL
REMARK 927      BINDING AFFINITY PREDICTED BY RF-SCORE:    0.00 PKD
ROOT
HETATM    1  C   UNL     1      -8.462   8.616  63.448  1.00  0.00    -0.081 C  
HETATM    2  C   UNL     1      -8.779   7.712  64.632  1.00  0.00     0.315 C  
ENDROOT
BRANCH   2   3
HETATM    3  C   UNL     1      -8.308   8.343  65.944  1.00  0.00    -0.137 C  
BRANCH   3   4
HETATM    4  C   UNL     1      -9.469   8.878  66.797  1.00  0.00    -0.243 C  
HETATM    5  C   UNL     1      -9.416  10.414  66.992  1.00  0.00    -0.189 C  
HETATM    6  C   UNL     1      -9.436  11.071  65.626  1.00  0.00    -0.217 C  
HETATM    7  C   UNL     1     -10.606  10.952  67.792  1.00  0.00    -0.217 C  
HETATM    8  N   UNL     1     -10.542  12.277  68.297  1.00  0.00    -0.219 N  
HETATM    9  O   UNL     1     -11.621  10.242  67.831  1.00  0.00    -0.338 OA 
HETATM   10  O   UNL     1      -8.470  11.640  65.140  1.00  0.00     0.342 OA 
HETATM   11  O   UNL     1     -10.608  10.949  64.968  1.00  0.00    -0.286 OA 
BRANCH   8  12
HETATM   12  C   UNL     1      -9.400  13.113  68.090  1.00  0.00    -0.217 A  
HETATM   13  C   UNL     1      -8.147  12.673  68.542  1.00  0.00    -0.082 A  
HETATM   14  C   UNL     1      -9.487  14.338  67.408  1.00  0.00    -0.211 A  
HETATM   15  C   UNL     1      -6.999  13.431  68.273  1.00  0.00    -0.108 A  
HETATM   16  C   UNL     1      -7.090  14.623  67.556  1.00  0.00    -0.203 A  
HETATM   17  C   UNL     1      -8.339  15.077  67.126  1.00  0.00    -0.244 A  
ENDBRANCH   8  12
BRANCH   8  18
HETATM   18  N   UNL     1     -11.757  13.043  68.365  1.00  0.00    -0.331 NA 
HETATM   19  H   UNL     1     -12.292  13.218  67.515  1.00  0.00     0.000 HD 
BRANCH  18  20
HETATM   20  C   UNL     1     -12.217  13.558  69.602  1.00  0.00    -0.247 A  
HETATM   21  C   UNL     1     -13.056  13.360  71.876  1.00  0.00    -0.476 A  
HETATM   22  C   UNL     1     -13.245  14.736  71.949  1.00  0.00    -0.436 A  
HETATM   23  C   UNL     1     -12.506  12.780  70.725  1.00  0.00    -0.357 A  
HETATM   24  C   UNL     1     -12.840  15.543  70.890  1.00  0.00    -0.535 A  
HETATM   25  C   UNL     1     -12.316  14.955  69.734  1.00  0.00    -0.283 A  
ENDBRANCH  18  20
ENDBRANCH   8  18
ENDBRANCH   3   4
ENDBRANCH   2   3
TORSDOF 5
ENDMDL
MODEL      115
REMARK 921   NORMALIZED FREE ENERGY PREDICTED BY IDOCK:   -3.59 KCAL/MOL
REMARK 922        TOTAL FREE ENERGY PREDICTED BY IDOCK:   -5.65 KCAL/MOL
REMARK 923 INTER-LIGAND FREE ENERGY PREDICTED BY IDOCK:   -5.72 KCAL/MOL
REMARK 924 INTRA-LIGAND FREE ENERGY PREDICTED BY IDOCK:    0.08 KCAL/MOL
REMARK 927      BINDING AFFINITY PREDICTED BY RF-SCORE:    0.00 PKD
ROOT
HETATM    1  C   UNL     1      -9.669   6.294  70.186  1.00  0.00    -0.187 C  
HETATM    2  C   UNL     1     -10.255   6.740  68.853  1.00  0.00    -0.186 C  
ENDROOT
BRANCH   2   3
HETATM    3  C   UNL     1      -9.213   7.491  68.021  1.00  0.00    -0.137 C  
BRANCH   3   4
HETATM    4  C   UNL     1      -9.811   8.681  67.253  1.00  0.00    -0.256 C  
HETATM    5  C   UNL     1     -10.479   9.724  68.184  1.00  0.00    -0.258 C  
HETATM    6  C   UNL     1      -9.441  10.219  69.172  1.00  0.00    -0.215 C  
HETATM    7  C   UNL     1     -11.022  10.937  67.423  1.00  0.00    -0.293 C  
HETATM    8  N   UNL     1     -11.908  11.820  68.094  1.00  0.00    -0.295 N  
HETATM    9  O   UNL     1     -10.540  11.156  66.302  1.00  0.00    -0.253 OA 
HETATM   10  O   UNL     1      -9.461   9.940  70.362  1.00  0.00    -0.205 OA 
HETATM   11  O   UNL     1      -8.465  10.972  68.623  1.00  0.00    -0.145 OA 
BRANCH   8  12
HETATM   12  C   UNL     1     -12.314  11.602  69.449  1.00  0.00    -0.068 A  
HETATM   13  C   UNL     1     -12.313  12.686  70.339  1.00  0.00    -0.315 A  
HETATM   14  C   UNL     1     -12.757  10.348  69.901  1.00  0.00     0.025 A  
HETATM   15  C   UNL     1     -12.790  12.520  71.646  1.00  0.00    -0.368 A  
HETATM   16  C   UNL     1     -13.270  11.282  72.072  1.00  0.00    -0.437 A  
HETATM   17  C   UNL     1     -13.249  10.194  71.197  1.00  0.00    -0.438 A  
ENDBRANCH   8  12
BRANCH   8  18
HETATM   18  N   UNL     1     -11.852  13.220  67.775  1.00  0.00    -0.356 NA 
HETATM   19  H   UNL     1     -12.714  13.764  67.733  1.00  0.00     0.000 HD 
BRANCH  18  20
HETATM   20  C   UNL     1     -10.611  13.852  67.516  1.00  0.00    -0.256 A  
HETATM   21  C   UNL     1      -8.411  14.683  68.133  1.00  0.00    -0.144 A  
HETATM   22  C   UNL     1      -8.252  15.257  66.875  1.00  0.00    -0.263 A  
HETATM   23  C   UNL     1      -9.565  13.949  68.436  1.00  0.00    -0.215 A  
HETATM   24  C   UNL     1      -9.225  15.060  65.902  1.00  0.00    -0.158 A  
HETATM   25  C   UNL     1     -10.386  14.349  66.218  1.00  0.00    -0.300 A  
ENDBRANCH  18  20
ENDBRANCH   8  18
ENDBRANCH   3   4
ENDBRANCH   2   3
TORSDOF 5
ENDMDL
MODEL      116
REMARK 921   NORMALIZED FREE ENERGY PREDICTED BY IDOCK:   -3.58 KCAL/MOL
REMARK 922        TOTAL FREE ENERGY PREDICTED BY IDOCK:   -5.63 KCAL/MOL
REMARK 923 INTER-LIGAND FREE ENERGY PREDICTED BY IDOCK:   -5.41 KCAL/MOL
REMARK 924 INTRA-LIGAND FREE ENERGY PREDICTED BY IDOCK:   -0.23 KCAL/MOL
REMARK 927      BINDING AFFINITY PREDICTED BY RF-SCORE:    0.00 PKD
ROOT
HETATM    1  C   UNL     1      -9.060  10.048  65.946  1.00  0.00    -0.195 C  
HETATM    2  C   UNL     1      -9.048   8.600  65.473  1.00  0.00    -0.190 C  
ENDROOT
BRANCH   2   3
HETATM    3  C   UNL     1      -9.307   7.642  66.638  1.00  0.00    -0.239 C  
BRANCH   3   4
HETATM    4  C   UNL     1      -8.497   8.000  67.894  1.00  0.00    -0.125 C  
HETATM    5  C   UNL     1      -9.378   8.137  69.161  1.00  0.00    -0.151 C  
HETATM    6  C   UNL     1     -10.111   6.829  69.378  1.00  0.00    -0.171 C  
HETATM    7  C   UNL     1      -8.561   8.436  70.422  1.00  0.00    -0.136 C  
HETATM    8  N   UNL     1      -9.245   8.874  71.586  1.00  0.00    -0.260 N  
HETATM    9  O   UNL     1      -7.358   8.138  70.393  1.00  0.00    -0.059 OA 
HETATM   10  O   UNL     1     -11.315   6.698  69.210  1.00  0.00    -0.291 OA 
HETATM   11  O   UNL     1      -9.317   5.800  69.743  1.00  0.00    -0.142 OA 
BRANCH   8  12
HETATM   12  C   UNL     1     -10.664   9.055  71.609  1.00  0.00    -0.371 A  
HETATM   13  C   UNL     1     -11.441   8.209  72.414  1.00  0.00    -0.462 A  
HETATM   14  C   UNL     1     -11.296  10.082  70.888  1.00  0.00    -0.439 A  
HETATM   15  C   UNL     1     -12.822   8.421  72.524  1.00  0.00    -0.256 A  
HETATM   16  C   UNL     1     -13.433   9.471  71.840  1.00  0.00    -0.502 A  
HETATM   17  C   UNL     1     -12.667  10.300  71.018  1.00  0.00    -0.491 A  
ENDBRANCH   8  12
BRANCH   8  18
HETATM   18  N   UNL     1      -8.739   8.471  72.870  1.00  0.00    -0.376 NA 
HETATM   19  H   UNL     1      -8.718   9.142  73.638  1.00  0.00     0.000 HD 
BRANCH  18  20
HETATM   20  C   UNL     1      -8.269   7.152  73.078  1.00  0.00    -0.105 A  
HETATM   21  C   UNL     1      -8.537   4.745  73.301  1.00  0.00    -0.102 A  
HETATM   22  C   UNL     1      -7.197   4.607  73.650  1.00  0.00    -0.073 A  
HETATM   23  C   UNL     1      -9.058   6.004  72.976  1.00  0.00    -0.130 A  
HETATM   24  C   UNL     1      -6.363   5.719  73.629  1.00  0.00    -0.068 A  
HETATM   25  C   UNL     1      -6.895   6.977  73.330  1.00  0.00    -0.073 A  
ENDBRANCH  18  20
ENDBRANCH   8  18
ENDBRANCH   3   4
ENDBRANCH   2   3
TORSDOF 5
ENDMDL
MODEL      117
REMARK 921   NORMALIZED FREE ENERGY PREDICTED BY IDOCK:   -3.57 KCAL/MOL
REMARK 922        TOTAL FREE ENERGY PREDICTED BY IDOCK:   -5.62 KCAL/MOL
REMARK 923 INTER-LIGAND FREE ENERGY PREDICTED BY IDOCK:   -4.99 KCAL/MOL
REMARK 924 INTRA-LIGAND FREE ENERGY PREDICTED BY IDOCK:   -0.63 KCAL/MOL
REMARK 927      BINDING AFFINITY PREDICTED BY RF-SCORE:    0.00 PKD
ROOT
HETATM    1  C   UNL     1     -10.187   8.502  72.458  1.00  0.00    -0.323 C  
HETATM    2  C   UNL     1     -11.312   8.314  71.447  1.00  0.00    -0.309 C  
ENDROOT
BRANCH   2   3
HETATM    3  C   UNL     1     -10.848   8.687  70.037  1.00  0.00    -0.226 C  
BRANCH   3   4
HETATM    4  C   UNL     1     -11.305  10.092  69.613  1.00  0.00    -0.289 C  
HETATM    5  C   UNL     1     -10.188  10.901  68.907  1.00  0.00    -0.213 C  
HETATM    6  C   UNL     1      -9.727  10.121  67.692  1.00  0.00    -0.161 C  
HETATM    7  C   UNL     1     -10.662  12.278  68.433  1.00  0.00    -0.234 C  
HETATM    8  N   UNL     1      -9.688  13.234  68.041  1.00  0.00    -0.217 N  
HETATM    9  O   UNL     1     -11.883  12.428  68.284  1.00  0.00    -0.326 OA 
HETATM   10  O   UNL     1      -8.635   9.576  67.618  1.00  0.00    -0.122 OA 
HETATM   11  O   UNL     1     -10.639  10.048  66.699  1.00  0.00    -0.198 OA 
BRANCH   8  12
HETATM   12  C   UNL     1      -8.286  12.952  68.088  1.00  0.00    -0.168 A  
HETATM   13  C   UNL     1      -7.596  13.146  69.293  1.00  0.00     0.367 A  
HETATM   14  C   UNL     1      -7.592  12.443  66.977  1.00  0.00    -0.046 A  
HETATM   15  C   UNL     1      -6.243  12.793  69.391  1.00  0.00    -0.112 A  
HETATM   16  C   UNL     1      -5.574  12.247  68.296  1.00  0.00    -0.054 A  
HETATM   17  C   UNL     1      -6.251  12.075  67.087  1.00  0.00    -0.151 A  
ENDBRANCH   8  12
BRANCH   8  18
HETATM   18  N   UNL     1     -10.012  14.144  66.977  1.00  0.00    -0.255 NA 
HETATM   19  H   UNL     1     -10.215  13.781  66.046  1.00  0.00     0.000 HD 
BRANCH  18  20
HETATM   20  C   UNL     1     -10.052  15.541  67.209  1.00  0.00    -0.250 A  
HETATM   21  C   UNL     1     -10.103  17.522  68.618  1.00  0.00    -0.361 A  
HETATM   22  C   UNL     1     -10.277  18.336  67.504  1.00  0.00    -0.384 A  
HETATM   23  C   UNL     1      -9.949  16.138  68.467  1.00  0.00    -0.229 A  
HETATM   24  C   UNL     1     -10.249  17.775  66.231  1.00  0.00    -0.364 A  
HETATM   25  C   UNL     1     -10.122  16.390  66.089  1.00  0.00    -0.364 A  
ENDBRANCH  18  20
ENDBRANCH   8  18
ENDBRANCH   3   4
ENDBRANCH   2   3
TORSDOF 5
ENDMDL
MODEL      118
REMARK 921   NORMALIZED FREE ENERGY PREDICTED BY IDOCK:   -3.56 KCAL/MOL
REMARK 922        TOTAL FREE ENERGY PREDICTED BY IDOCK:   -5.61 KCAL/MOL
REMARK 923 INTER-LIGAND FREE ENERGY PREDICTED BY IDOCK:   -4.81 KCAL/MOL
REMARK 924 INTRA-LIGAND FREE ENERGY PREDICTED BY IDOCK:   -0.80 KCAL/MOL
REMARK 927      BINDING AFFINITY PREDICTED BY RF-SCORE:    0.00 PKD
ROOT
HETATM    1  C   UNL     1      -5.579   5.868  65.439  1.00  0.00    -0.020 C  
HETATM    2  C   UNL     1      -6.395   4.724  66.027  1.00  0.00    -0.036 C  
ENDROOT
BRANCH   2   3
HETATM    3  C   UNL     1      -7.416   5.244  67.041  1.00  0.00    -0.087 C  
BRANCH   3   4
HETATM    4  C   UNL     1      -7.798   6.714  66.800  1.00  0.00    -0.107 C  
HETATM    5  C   UNL     1      -8.408   7.391  68.052  1.00  0.00    -0.124 C  
HETATM    6  C   UNL     1      -7.403   7.300  69.183  1.00  0.00    -0.087 C  
HETATM    7  C   UNL     1      -8.734   8.871  67.827  1.00  0.00    -0.125 C  
HETATM    8  N   UNL     1      -9.558   9.536  68.772  1.00  0.00    -0.155 N  
HETATM    9  O   UNL     1      -8.138   9.440  66.902  1.00  0.00    -0.108 OA 
HETATM   10  O   UNL     1      -7.554   6.582  70.161  1.00  0.00    -0.092 OA 
HETATM   11  O   UNL     1      -6.300   8.059  69.009  1.00  0.00    -0.038 OA 
BRANCH   8  12
HETATM   12  C   UNL     1     -10.098   8.864  69.914  1.00  0.00    -0.195 A  
HETATM   13  C   UNL     1     -11.007   7.815  69.716  1.00  0.00    -0.162 A  
HETATM   14  C   UNL     1      -9.709   9.192  71.224  1.00  0.00    -0.351 A  
HETATM   15  C   UNL     1     -11.482   7.082  70.812  1.00  0.00    -0.360 A  
HETATM   16  C   UNL     1     -11.056   7.386  72.104  1.00  0.00    -0.291 A  
HETATM   17  C   UNL     1     -10.171   8.447  72.309  1.00  0.00    -0.396 A  
ENDBRANCH   8  12
BRANCH   8  18
HETATM   18  N   UNL     1      -9.305  10.925  69.043  1.00  0.00    -0.329 NA 
HETATM   19  H   UNL     1      -8.534  11.188  69.657  1.00  0.00     0.000 HD 
BRANCH  18  20
HETATM   20  C   UNL     1     -10.116  11.932  68.466  1.00  0.00    -0.206 A  
HETATM   21  C   UNL     1     -11.979  13.495  68.449  1.00  0.00    -0.378 A  
HETATM   22  C   UNL     1     -11.715  13.828  67.124  1.00  0.00    -0.417 A  
HETATM   23  C   UNL     1     -11.159  12.585  69.127  1.00  0.00    -0.254 A  
HETATM   24  C   UNL     1     -10.602  13.288  66.488  1.00  0.00    -0.289 A  
HETATM   25  C   UNL     1      -9.802  12.361  67.163  1.00  0.00    -0.206 A  
ENDBRANCH  18  20
ENDBRANCH   8  18
ENDBRANCH   3   4
ENDBRANCH   2   3
TORSDOF 5
ENDMDL
MODEL      119
REMARK 921   NORMALIZED FREE ENERGY PREDICTED BY IDOCK:   -3.55 KCAL/MOL
REMARK 922        TOTAL FREE ENERGY PREDICTED BY IDOCK:   -5.59 KCAL/MOL
REMARK 923 INTER-LIGAND FREE ENERGY PREDICTED BY IDOCK:   -6.45 KCAL/MOL
REMARK 924 INTRA-LIGAND FREE ENERGY PREDICTED BY IDOCK:    0.86 KCAL/MOL
REMARK 927      BINDING AFFINITY PREDICTED BY RF-SCORE:    0.00 PKD
ROOT
HETATM    1  C   UNL     1     -12.637  16.000  73.255  1.00  0.00    -0.649 C  
HETATM    2  C   UNL     1     -13.699  15.535  72.268  1.00  0.00    -0.633 C  
ENDROOT
BRANCH   2   3
HETATM    3  C   UNL     1     -13.140  15.487  70.844  1.00  0.00    -0.508 C  
BRANCH   3   4
HETATM    4  C   UNL     1     -13.003  14.053  70.307  1.00  0.00    -0.031 C  
HETATM    5  C   UNL     1     -12.261  13.986  68.949  1.00  0.00    -0.261 C  
HETATM    6  C   UNL     1     -10.887  14.602  69.124  1.00  0.00    -0.259 C  
HETATM    7  C   UNL     1     -12.074  12.551  68.446  1.00  0.00    -0.072 C  
HETATM    8  N   UNL     1     -11.681  12.351  67.096  1.00  0.00    -0.361 N  
HETATM    9  O   UNL     1     -12.139  11.648  69.292  1.00  0.00    -0.311 OA 
HETATM   10  O   UNL     1     -10.566  15.676  68.636  1.00  0.00    -0.229 OA 
HETATM   11  O   UNL     1     -10.048  13.881  69.897  1.00  0.00     0.636 OA 
BRANCH   8  12
HETATM   12  C   UNL     1     -11.468  13.444  66.198  1.00  0.00    -0.327 A  
HETATM   13  C   UNL     1     -12.564  13.964  65.492  1.00  0.00    -0.560 A  
HETATM   14  C   UNL     1     -10.207  14.042  66.037  1.00  0.00    -0.313 A  
HETATM   15  C   UNL     1     -12.399  15.090  64.674  1.00  0.00    -0.223 A  
HETATM   16  C   UNL     1     -11.153  15.703  64.557  1.00  0.00    -0.303 A  
HETATM   17  C   UNL     1     -10.055  15.174  65.238  1.00  0.00    -0.365 A  
ENDBRANCH   8  12
BRANCH   8  18
HETATM   18  N   UNL     1     -10.826  11.237  66.790  1.00  0.00    -0.276 NA 
HETATM   19  H   UNL     1     -10.611  10.552  67.514  1.00  0.00     0.000 HD 
BRANCH  18  20
HETATM   20  C   UNL     1     -10.278  11.083  65.493  1.00  0.00    -0.268 A  
HETATM   21  C   UNL     1      -8.487  10.604  63.919  1.00  0.00    -0.059 A  
HETATM   22  C   UNL     1      -9.305  10.956  62.849  1.00  0.00    -0.367 A  
HETATM   23  C   UNL     1      -8.985  10.627  65.228  1.00  0.00    -0.209 A  
HETATM   24  C   UNL     1     -10.636  11.286  63.081  1.00  0.00    -0.233 A  
HETATM   25  C   UNL     1     -11.119  11.333  64.392  1.00  0.00    -0.273 A  
ENDBRANCH  18  20
ENDBRANCH   8  18
ENDBRANCH   3   4
ENDBRANCH   2   3
TORSDOF 5
ENDMDL
MODEL      120
REMARK 921   NORMALIZED FREE ENERGY PREDICTED BY IDOCK:   -3.48 KCAL/MOL
REMARK 922        TOTAL FREE ENERGY PREDICTED BY IDOCK:   -5.51 KCAL/MOL
REMARK 923 INTER-LIGAND FREE ENERGY PREDICTED BY IDOCK:   -5.29 KCAL/MOL
REMARK 924 INTRA-LIGAND FREE ENERGY PREDICTED BY IDOCK:   -0.21 KCAL/MOL
REMARK 927      BINDING AFFINITY PREDICTED BY RF-SCORE:    0.00 PKD
ROOT
HETATM    1  C   UNL     1      -8.515  10.366  63.022  1.00  0.00    -0.180 C  
HETATM    2  C   UNL     1      -7.304  10.165  63.925  1.00  0.00    -0.111 C  
ENDROOT
BRANCH   2   3
HETATM    3  C   UNL     1      -7.489   8.941  64.824  1.00  0.00    -0.103 C  
BRANCH   3   4
HETATM    4  C   UNL     1      -8.784   9.000  65.650  1.00  0.00    -0.205 C  
HETATM    5  C   UNL     1      -9.094   7.670  66.381  1.00  0.00    -0.214 C  
HETATM    6  C   UNL     1      -7.923   7.335  67.283  1.00  0.00    -0.111 C  
HETATM    7  C   UNL     1     -10.352   7.749  67.250  1.00  0.00    -0.301 C  
HETATM    8  N   UNL     1     -10.919   6.543  67.738  1.00  0.00    -0.316 N  
HETATM    9  O   UNL     1     -10.722   8.880  67.597  1.00  0.00    -0.244 OA 
HETATM   10  O   UNL     1      -7.151   6.413  67.067  1.00  0.00    -0.069 OA 
HETATM   11  O   UNL     1      -7.779   8.166  68.338  1.00  0.00    -0.108 OA 
BRANCH   8  12
HETATM   12  C   UNL     1     -10.357   5.263  67.432  1.00  0.00    -0.180 A  
HETATM   13  C   UNL     1     -10.327   4.839  66.095  1.00  0.00    -0.337 A  
HETATM   14  C   UNL     1      -9.794   4.440  68.422  1.00  0.00    -0.132 A  
HETATM   15  C   UNL     1      -9.702   3.630  65.757  1.00  0.00    -0.101 A  
HETATM   16  C   UNL     1      -9.107   2.843  66.741  1.00  0.00    -0.171 A  
HETATM   17  C   UNL     1      -9.157   3.249  68.076  1.00  0.00    -0.214 A  
ENDBRANCH   8  12
BRANCH   8  18
HETATM   18  N   UNL     1     -11.542   6.553  69.033  1.00  0.00    -0.594 NA 
HETATM   19  H   UNL     1     -12.444   6.093  69.164  1.00  0.00     0.000 HD 
BRANCH  18  20
HETATM   20  C   UNL     1     -10.918   7.196  70.130  1.00  0.00    -0.267 A  
HETATM   21  C   UNL     1      -9.182   7.454  71.813  1.00  0.00    -0.155 A  
HETATM   22  C   UNL     1      -9.877   8.508  72.398  1.00  0.00    -0.358 A  
HETATM   23  C   UNL     1      -9.679   6.831  70.661  1.00  0.00    -0.180 A  
HETATM   24  C   UNL     1     -11.046   8.974  71.806  1.00  0.00    -0.444 A  
HETATM   25  C   UNL     1     -11.551   8.330  70.672  1.00  0.00    -0.199 A  
ENDBRANCH  18  20
ENDBRANCH   8  18
ENDBRANCH   3   4
ENDBRANCH   2   3
TORSDOF 5
ENDMDL
MODEL      121
REMARK 921   NORMALIZED FREE ENERGY PREDICTED BY IDOCK:   -3.48 KCAL/MOL
REMARK 922        TOTAL FREE ENERGY PREDICTED BY IDOCK:   -5.50 KCAL/MOL
REMARK 923 INTER-LIGAND FREE ENERGY PREDICTED BY IDOCK:   -4.69 KCAL/MOL
REMARK 924 INTRA-LIGAND FREE ENERGY PREDICTED BY IDOCK:   -0.81 KCAL/MOL
REMARK 927      BINDING AFFINITY PREDICTED BY RF-SCORE:    0.00 PKD
ROOT
HETATM    1  C   UNL     1      -8.777   2.714  64.939  1.00  0.00    -0.111 C  
HETATM    2  C   UNL     1      -8.000   3.746  65.747  1.00  0.00    -0.093 C  
ENDROOT
BRANCH   2   3
HETATM    3  C   UNL     1      -8.578   3.885  67.157  1.00  0.00    -0.109 C  
BRANCH   3   4
HETATM    4  C   UNL     1      -9.634   4.998  67.259  1.00  0.00    -0.164 C  
HETATM    5  C   UNL     1      -9.212   6.143  68.214  1.00  0.00    -0.114 C  
HETATM    6  C   UNL     1      -7.901   6.721  67.719  1.00  0.00    -0.113 C  
HETATM    7  C   UNL     1     -10.238   7.278  68.269  1.00  0.00    -0.180 C  
HETATM    8  N   UNL     1     -10.133   8.240  69.308  1.00  0.00    -0.194 N  
HETATM    9  O   UNL     1     -11.021   7.371  67.313  1.00  0.00    -0.280 OA 
HETATM   10  O   UNL     1      -6.837   6.569  68.302  1.00  0.00    -0.065 OA 
HETATM   11  O   UNL     1      -7.996   7.398  66.555  1.00  0.00    -0.105 OA 
BRANCH   8  12
HETATM   12  C   UNL     1      -9.108   8.171  70.305  1.00  0.00    -0.151 A  
HETATM   13  C   UNL     1      -8.094   9.140  70.302  1.00  0.00    -0.156 A  
HETATM   14  C   UNL     1      -9.113   7.191  71.311  1.00  0.00    -0.151 A  
HETATM   15  C   UNL     1      -7.130   9.148  71.319  1.00  0.00    -0.063 A  
HETATM   16  C   UNL     1      -7.170   8.199  72.339  1.00  0.00    -0.119 A  
HETATM   17  C   UNL     1      -8.163   7.217  72.331  1.00  0.00    -0.113 A  
ENDBRANCH   8  12
BRANCH   8  18
HETATM   18  N   UNL     1     -10.508   9.598  69.024  1.00  0.00    -0.207 NA 
HETATM   19  H   UNL     1     -10.111  10.073  68.213  1.00  0.00     0.000 HD 
BRANCH  18  20
HETATM   20  C   UNL     1     -11.422  10.284  69.861  1.00  0.00    -0.273 A  
HETATM   21  C   UNL     1     -12.469  12.275  70.785  1.00  0.00    -0.356 A  
HETATM   22  C   UNL     1     -13.195  11.501  71.685  1.00  0.00    -0.389 A  
HETATM   23  C   UNL     1     -11.620  11.667  69.851  1.00  0.00    -0.366 A  
HETATM   24  C   UNL     1     -13.111  10.114  71.622  1.00  0.00    -0.550 A  
HETATM   25  C   UNL     1     -12.243   9.514  70.706  1.00  0.00    -0.269 A  
ENDBRANCH  18  20
ENDBRANCH   8  18
ENDBRANCH   3   4
ENDBRANCH   2   3
TORSDOF 5
ENDMDL
MODEL      122
REMARK 921   NORMALIZED FREE ENERGY PREDICTED BY IDOCK:   -3.47 KCAL/MOL
REMARK 922        TOTAL FREE ENERGY PREDICTED BY IDOCK:   -5.50 KCAL/MOL
REMARK 923 INTER-LIGAND FREE ENERGY PREDICTED BY IDOCK:   -4.59 KCAL/MOL
REMARK 924 INTRA-LIGAND FREE ENERGY PREDICTED BY IDOCK:   -0.91 KCAL/MOL
REMARK 927      BINDING AFFINITY PREDICTED BY RF-SCORE:    0.00 PKD
ROOT
HETATM    1  C   UNL     1      -9.681   4.498  72.724  1.00  0.00    -0.180 C  
HETATM    2  C   UNL     1      -9.514   5.539  73.824  1.00  0.00    -0.138 C  
ENDROOT
BRANCH   2   3
HETATM    3  C   UNL     1     -10.441   6.734  73.593  1.00  0.00    -0.374 C  
BRANCH   3   4
HETATM    4  C   UNL     1      -9.805   7.818  72.708  1.00  0.00    -0.307 C  
HETATM    5  C   UNL     1      -9.982   7.541  71.194  1.00  0.00    -0.187 C  
HETATM    6  C   UNL     1     -11.465   7.439  70.896  1.00  0.00    -0.286 C  
HETATM    7  C   UNL     1      -9.399   8.651  70.315  1.00  0.00    -0.167 C  
HETATM    8  N   UNL     1      -9.225   8.400  68.929  1.00  0.00    -0.147 N  
HETATM    9  O   UNL     1      -9.244   9.761  70.845  1.00  0.00    -0.108 OA 
HETATM   10  O   UNL     1     -12.021   6.391  70.605  1.00  0.00    -0.340 OA 
HETATM   11  O   UNL     1     -12.136   8.605  71.011  1.00  0.00    -0.287 OA 
BRANCH   8  12
HETATM   12  C   UNL     1      -9.566   7.142  68.337  1.00  0.00    -0.137 A  
HETATM   13  C   UNL     1     -10.735   7.052  67.566  1.00  0.00    -0.352 A  
HETATM   14  C   UNL     1      -8.744   6.010  68.467  1.00  0.00    -0.110 A  
HETATM   15  C   UNL     1     -11.045   5.857  66.902  1.00  0.00    -0.175 A  
HETATM   16  C   UNL     1     -10.200   4.753  67.001  1.00  0.00    -0.205 A  
HETATM   17  C   UNL     1      -9.049   4.831  67.788  1.00  0.00    -0.130 A  
ENDBRANCH   8  12
BRANCH   8  18
HETATM   18  N   UNL     1      -9.407   9.488  68.007  1.00  0.00    -0.133 NA 
HETATM   19  H   UNL     1     -10.181  10.139  68.142  1.00  0.00     0.000 HD 
BRANCH  18  20
HETATM   20  C   UNL     1      -8.524   9.664  66.915  1.00  0.00    -0.120 A  
HETATM   21  C   UNL     1      -6.339  10.012  65.904  1.00  0.00    -0.091 A  
HETATM   22  C   UNL     1      -6.919  10.144  64.646  1.00  0.00    -0.121 A  
HETATM   23  C   UNL     1      -7.133   9.732  67.024  1.00  0.00    -0.086 A  
HETATM   24  C   UNL     1      -8.288   9.949  64.496  1.00  0.00    -0.168 A  
HETATM   25  C   UNL     1      -9.078   9.695  65.622  1.00  0.00    -0.236 A  
ENDBRANCH  18  20
ENDBRANCH   8  18
ENDBRANCH   3   4
ENDBRANCH   2   3
TORSDOF 5
ENDMDL
MODEL      123
REMARK 921   NORMALIZED FREE ENERGY PREDICTED BY IDOCK:   -3.47 KCAL/MOL
REMARK 922        TOTAL FREE ENERGY PREDICTED BY IDOCK:   -5.49 KCAL/MOL
REMARK 923 INTER-LIGAND FREE ENERGY PREDICTED BY IDOCK:   -4.71 KCAL/MOL
REMARK 924 INTRA-LIGAND FREE ENERGY PREDICTED BY IDOCK:   -0.78 KCAL/MOL
REMARK 927      BINDING AFFINITY PREDICTED BY RF-SCORE:    0.00 PKD
ROOT
HETATM    1  C   UNL     1      -6.115   4.250  63.615  1.00  0.00    -0.018 C  
HETATM    2  C   UNL     1      -6.612   3.623  64.912  1.00  0.00    -0.040 C  
ENDROOT
BRANCH   2   3
HETATM    3  C   UNL     1      -8.101   3.907  65.120  1.00  0.00    -0.097 C  
BRANCH   3   4
HETATM    4  C   UNL     1      -8.454   5.392  64.945  1.00  0.00    -0.148 C  
HETATM    5  C   UNL     1      -8.752   6.104  66.289  1.00  0.00    -0.144 C  
HETATM    6  C   UNL     1      -7.535   5.966  67.182  1.00  0.00    -0.084 C  
HETATM    7  C   UNL     1      -9.045   7.597  66.117  1.00  0.00    -0.144 C  
HETATM    8  N   UNL     1      -9.617   8.307  67.205  1.00  0.00    -0.156 N  
HETATM    9  O   UNL     1      -8.632   8.133  65.078  1.00  0.00    -0.143 OA 
HETATM   10  O   UNL     1      -7.511   5.260  68.179  1.00  0.00    -0.074 OA 
HETATM   11  O   UNL     1      -6.458   6.668  66.768  1.00  0.00    -0.040 OA 
BRANCH   8  12
HETATM   12  C   UNL     1      -9.935   7.667  68.445  1.00  0.00    -0.176 A  
HETATM   13  C   UNL     1     -10.936   6.684  68.463  1.00  0.00    -0.314 A  
HETATM   14  C   UNL     1      -9.243   7.959  69.633  1.00  0.00    -0.153 A  
HETATM   15  C   UNL     1     -11.205   5.979  69.644  1.00  0.00    -0.428 A  
HETATM   16  C   UNL     1     -10.482   6.245  70.806  1.00  0.00    -0.273 A  
HETATM   17  C   UNL     1      -9.502   7.240  70.799  1.00  0.00    -0.164 A  
ENDBRANCH   8  12
BRANCH   8  18
HETATM   18  N   UNL     1      -9.245   9.682  67.397  1.00  0.00    -0.130 NA 
HETATM   19  H   UNL     1      -8.337   9.908  67.804  1.00  0.00     0.000 HD 
BRANCH  18  20
HETATM   20  C   UNL     1     -10.128  10.726  67.027  1.00  0.00    -0.208 A  
HETATM   21  C   UNL     1     -11.850  12.388  67.457  1.00  0.00    -0.354 A  
HETATM   22  C   UNL     1     -11.923  12.694  66.102  1.00  0.00    -0.458 A  
HETATM   23  C   UNL     1     -10.928  11.440  67.921  1.00  0.00    -0.295 A  
HETATM   24  C   UNL     1     -11.042  12.089  65.212  1.00  0.00    -0.367 A  
HETATM   25  C   UNL     1     -10.142  11.125  65.678  1.00  0.00    -0.304 A  
ENDBRANCH  18  20
ENDBRANCH   8  18
ENDBRANCH   3   4
ENDBRANCH   2   3
TORSDOF 5
ENDMDL
MODEL      124
REMARK 921   NORMALIZED FREE ENERGY PREDICTED BY IDOCK:   -3.46 KCAL/MOL
REMARK 922        TOTAL FREE ENERGY PREDICTED BY IDOCK:   -5.47 KCAL/MOL
REMARK 923 INTER-LIGAND FREE ENERGY PREDICTED BY IDOCK:   -5.67 KCAL/MOL
REMARK 924 INTRA-LIGAND FREE ENERGY PREDICTED BY IDOCK:    0.19 KCAL/MOL
REMARK 927      BINDING AFFINITY PREDICTED BY RF-SCORE:    0.00 PKD
ROOT
HETATM    1  C   UNL     1     -11.196  11.383  63.399  1.00  0.00    -0.252 C  
HETATM    2  C   UNL     1     -12.598  11.758  63.860  1.00  0.00    -0.356 C  
ENDROOT
BRANCH   2   3
HETATM    3  C   UNL     1     -12.749  13.277  63.976  1.00  0.00    -0.092 C  
BRANCH   3   4
HETATM    4  C   UNL     1     -12.685  13.771  65.430  1.00  0.00    -0.513 C  
HETATM    5  C   UNL     1     -11.295  13.556  66.080  1.00  0.00    -0.327 C  
HETATM    6  C   UNL     1     -10.259  14.281  65.244  1.00  0.00    -0.382 C  
HETATM    7  C   UNL     1     -11.217  14.103  67.508  1.00  0.00    -0.306 C  
HETATM    8  N   UNL     1     -10.119  13.720  68.322  1.00  0.00    -0.234 N  
HETATM    9  O   UNL     1     -12.048  14.966  67.823  1.00  0.00    -0.260 OA 
HETATM   10  O   UNL     1      -9.430  13.706  64.555  1.00  0.00     0.359 OA 
HETATM   11  O   UNL     1     -10.347  15.627  65.295  1.00  0.00    -0.374 OA 
BRANCH   8  12
HETATM   12  C   UNL     1      -9.097  12.835  67.852  1.00  0.00    -0.204 A  
HETATM   13  C   UNL     1      -7.788  13.322  67.719  1.00  0.00    -0.157 A  
HETATM   14  C   UNL     1      -9.356  11.485  67.564  1.00  0.00    -0.166 A  
HETATM   15  C   UNL     1      -6.753  12.454  67.346  1.00  0.00    -0.152 A  
HETATM   16  C   UNL     1      -7.012  11.105  67.107  1.00  0.00    -0.112 A  
HETATM   17  C   UNL     1      -8.318  10.622  67.213  1.00  0.00    -0.120 A  
ENDBRANCH   8  12
BRANCH   8  18
HETATM   18  N   UNL     1      -9.603  14.672  69.267  1.00  0.00    -0.400 NA 
HETATM   19  H   UNL     1      -9.408  14.379  70.225  1.00  0.00     0.000 HD 
BRANCH  18  20
HETATM   20  C   UNL     1      -9.364  16.015  68.882  1.00  0.00    -0.231 A  
HETATM   21  C   UNL     1      -9.954  18.363  68.660  1.00  0.00    -0.415 A  
HETATM   22  C   UNL     1      -8.795  18.607  67.930  1.00  0.00    -0.308 A  
HETATM   23  C   UNL     1     -10.215  17.084  69.169  1.00  0.00    -0.288 A  
HETATM   24  C   UNL     1      -7.870  17.585  67.747  1.00  0.00    -0.209 A  
HETATM   25  C   UNL     1      -8.148  16.304  68.235  1.00  0.00    -0.167 A  
ENDBRANCH  18  20
ENDBRANCH   8  18
ENDBRANCH   3   4
ENDBRANCH   2   3
TORSDOF 5
ENDMDL
MODEL      125
REMARK 921   NORMALIZED FREE ENERGY PREDICTED BY IDOCK:   -3.45 KCAL/MOL
REMARK 922        TOTAL FREE ENERGY PREDICTED BY IDOCK:   -5.47 KCAL/MOL
REMARK 923 INTER-LIGAND FREE ENERGY PREDICTED BY IDOCK:   -6.02 KCAL/MOL
REMARK 924 INTRA-LIGAND FREE ENERGY PREDICTED BY IDOCK:    0.55 KCAL/MOL
REMARK 927      BINDING AFFINITY PREDICTED BY RF-SCORE:    0.00 PKD
ROOT
HETATM    1  C   UNL     1      -6.160  11.888  67.760  1.00  0.00    -0.067 C  
HETATM    2  C   UNL     1      -6.004  12.219  69.239  1.00  0.00    -0.087 C  
ENDROOT
BRANCH   2   3
HETATM    3  C   UNL     1      -5.242  13.533  69.428  1.00  0.00    -0.082 C  
BRANCH   3   4
HETATM    4  C   UNL     1      -5.433  14.505  68.252  1.00  0.00    -0.114 C  
HETATM    5  C   UNL     1      -6.921  14.838  67.981  1.00  0.00    -0.149 C  
HETATM    6  C   UNL     1      -7.516  15.434  69.242  1.00  0.00    -0.207 C  
HETATM    7  C   UNL     1      -7.105  15.852  66.848  1.00  0.00    -0.096 C  
HETATM    8  N   UNL     1      -8.401  16.027  66.297  1.00  0.00    -0.305 N  
HETATM    9  O   UNL     1      -6.130  16.567  66.574  1.00  0.00    -0.297 OA 
HETATM   10  O   UNL     1      -8.331  14.850  69.940  1.00  0.00     0.035 OA 
HETATM   11  O   UNL     1      -7.044  16.660  69.554  1.00  0.00    -0.212 OA 
BRANCH   8  12
HETATM   12  C   UNL     1      -9.530  15.279  66.760  1.00  0.00    -0.245 A  
HETATM   13  C   UNL     1     -10.400  15.871  67.686  1.00  0.00    -0.281 A  
HETATM   14  C   UNL     1      -9.817  13.991  66.279  1.00  0.00    -0.318 A  
HETATM   15  C   UNL     1     -11.561  15.196  68.088  1.00  0.00    -0.358 A  
HETATM   16  C   UNL     1     -11.860  13.936  67.572  1.00  0.00    -0.431 A  
HETATM   17  C   UNL     1     -10.983  13.332  66.668  1.00  0.00    -0.297 A  
ENDBRANCH   8  12
BRANCH   8  18
HETATM   18  N   UNL     1      -8.781  17.337  65.843  1.00  0.00    -0.539 NA 
HETATM   19  H   UNL     1      -8.752  17.555  64.848  1.00  0.00     0.000 HD 
BRANCH  18  20
HETATM   20  C   UNL     1      -9.194  18.329  66.767  1.00  0.00    -0.288 A  
HETATM   21  C   UNL     1      -8.886  19.799  68.679  1.00  0.00    -0.244 A  
HETATM   22  C   UNL     1     -10.216  20.202  68.610  1.00  0.00    -0.363 A  
HETATM   23  C   UNL     1      -8.369  18.900  67.737  1.00  0.00    -0.305 A  
HETATM   24  C   UNL     1     -11.020  19.745  67.571  1.00  0.00    -0.287 A  
HETATM   25  C   UNL     1     -10.505  18.828  66.650  1.00  0.00    -0.483 A  
ENDBRANCH  18  20
ENDBRANCH   8  18
ENDBRANCH   3   4
ENDBRANCH   2   3
TORSDOF 5
ENDMDL
MODEL      126
REMARK 921   NORMALIZED FREE ENERGY PREDICTED BY IDOCK:   -3.44 KCAL/MOL
REMARK 922        TOTAL FREE ENERGY PREDICTED BY IDOCK:   -5.45 KCAL/MOL
REMARK 923 INTER-LIGAND FREE ENERGY PREDICTED BY IDOCK:   -5.01 KCAL/MOL
REMARK 924 INTRA-LIGAND FREE ENERGY PREDICTED BY IDOCK:   -0.44 KCAL/MOL
REMARK 927      BINDING AFFINITY PREDICTED BY RF-SCORE:    0.00 PKD
ROOT
HETATM    1  C   UNL     1     -12.652  10.897  71.192  1.00  0.00    -0.532 C  
HETATM    2  C   UNL     1     -13.424   9.837  71.967  1.00  0.00    -0.498 C  
ENDROOT
BRANCH   2   3
HETATM    3  C   UNL     1     -12.538   8.626  72.271  1.00  0.00    -0.457 C  
BRANCH   3   4
HETATM    4  C   UNL     1     -11.042   8.921  72.074  1.00  0.00    -0.421 C  
HETATM    5  C   UNL     1     -10.283   7.755  71.392  1.00  0.00    -0.211 C  
HETATM    6  C   UNL     1     -10.934   7.481  70.050  1.00  0.00    -0.240 C  
HETATM    7  C   UNL     1      -8.806   8.074  71.144  1.00  0.00    -0.140 C  
HETATM    8  N   UNL     1      -7.930   7.011  70.802  1.00  0.00    -0.100 N  
HETATM    9  O   UNL     1      -8.489   9.272  71.117  1.00  0.00    -0.294 OA 
HETATM   10  O   UNL     1     -11.592   6.478  69.816  1.00  0.00    -0.394 OA 
HETATM   11  O   UNL     1     -10.755   8.458  69.136  1.00  0.00    -0.200 OA 
BRANCH   8  12
HETATM   12  C   UNL     1      -8.384   5.658  70.695  1.00  0.00    -0.118 A  
HETATM   13  C   UNL     1      -8.757   4.974  71.862  1.00  0.00    -0.136 A  
HETATM   14  C   UNL     1      -8.512   5.011  69.455  1.00  0.00    -0.087 A  
HETATM   15  C   UNL     1      -9.289   3.681  71.777  1.00  0.00    -0.195 A  
HETATM   16  C   UNL     1      -9.454   3.064  70.538  1.00  0.00    -0.221 A  
HETATM   17  C   UNL     1      -9.060   3.731  69.375  1.00  0.00    -0.197 A  
ENDBRANCH   8  12
BRANCH   8  18
HETATM   18  N   UNL     1      -6.846   7.280  69.897  1.00  0.00    -0.054 NA 
HETATM   19  H   UNL     1      -5.944   6.827  70.040  1.00  0.00     0.000 HD 
BRANCH  18  20
HETATM   20  C   UNL     1      -7.019   8.171  68.809  1.00  0.00    -0.067 A  
HETATM   21  C   UNL     1      -6.758  10.300  67.664  1.00  0.00    -0.074 A  
HETATM   22  C   UNL     1      -7.571   9.864  66.622  1.00  0.00    -0.103 A  
HETATM   23  C   UNL     1      -6.450   9.443  68.729  1.00  0.00    -0.048 A  
HETATM   24  C   UNL     1      -8.040   8.554  66.619  1.00  0.00    -0.104 A  
HETATM   25  C   UNL     1      -7.751   7.713  67.697  1.00  0.00    -0.122 A  
ENDBRANCH  18  20
ENDBRANCH   8  18
ENDBRANCH   3   4
ENDBRANCH   2   3
TORSDOF 5
ENDMDL
MODEL      127
REMARK 921   NORMALIZED FREE ENERGY PREDICTED BY IDOCK:   -3.42 KCAL/MOL
REMARK 922        TOTAL FREE ENERGY PREDICTED BY IDOCK:   -5.43 KCAL/MOL
REMARK 923 INTER-LIGAND FREE ENERGY PREDICTED BY IDOCK:   -5.16 KCAL/MOL
REMARK 924 INTRA-LIGAND FREE ENERGY PREDICTED BY IDOCK:   -0.27 KCAL/MOL
REMARK 927      BINDING AFFINITY PREDICTED BY RF-SCORE:    0.00 PKD
ROOT
HETATM    1  C   UNL     1     -13.198  12.353  72.041  1.00  0.00    -0.514 C  
HETATM    2  C   UNL     1     -13.227  10.830  72.021  1.00  0.00    -0.466 C  
ENDROOT
BRANCH   2   3
HETATM    3  C   UNL     1     -12.777  10.292  70.661  1.00  0.00    -0.382 C  
BRANCH   3   4
HETATM    4  C   UNL     1     -11.249  10.307  70.492  1.00  0.00    -0.408 C  
HETATM    5  C   UNL     1     -10.567   9.035  71.057  1.00  0.00    -0.341 C  
HETATM    6  C   UNL     1     -11.151   7.827  70.352  1.00  0.00    -0.251 C  
HETATM    7  C   UNL     1      -9.052   9.026  70.834  1.00  0.00    -0.250 C  
HETATM    8  N   UNL     1      -8.267   8.083  71.547  1.00  0.00    -0.107 N  
HETATM    9  O   UNL     1      -8.615   9.754  69.931  1.00  0.00    -0.190 OA 
HETATM   10  O   UNL     1     -11.889   7.022  70.900  1.00  0.00    -0.325 OA 
HETATM   11  O   UNL     1     -10.813   7.726  69.049  1.00  0.00    -0.151 OA 
BRANCH   8  12
HETATM   12  C   UNL     1      -8.847   7.155  72.470  1.00  0.00    -0.123 A  
HETATM   13  C   UNL     1      -9.440   7.647  73.642  1.00  0.00    -0.340 A  
HETATM   14  C   UNL     1      -8.881   5.774  72.215  1.00  0.00    -0.135 A  
HETATM   15  C   UNL     1     -10.093   6.770  74.518  1.00  0.00    -0.192 A  
HETATM   16  C   UNL     1     -10.161   5.407  74.234  1.00  0.00    -0.293 A  
HETATM   17  C   UNL     1      -9.550   4.910  73.081  1.00  0.00    -0.154 A  
ENDBRANCH   8  12
BRANCH   8  18
HETATM   18  N   UNL     1      -7.103   7.536  70.905  1.00  0.00    -0.058 NA 
HETATM   19  H   UNL     1      -6.239   7.424  71.435  1.00  0.00     0.000 HD 
BRANCH  18  20
HETATM   20  C   UNL     1      -7.145   7.151  69.542  1.00  0.00    -0.071 A  
HETATM   21  C   UNL     1      -6.592   7.388  67.186  1.00  0.00    -0.061 A  
HETATM   22  C   UNL     1      -7.443   6.337  66.859  1.00  0.00    -0.087 A  
HETATM   23  C   UNL     1      -6.413   7.764  68.523  1.00  0.00    -0.052 A  
HETATM   24  C   UNL     1      -8.080   5.628  67.872  1.00  0.00    -0.101 A  
HETATM   25  C   UNL     1      -7.917   6.025  69.202  1.00  0.00    -0.103 A  
ENDBRANCH  18  20
ENDBRANCH   8  18
ENDBRANCH   3   4
ENDBRANCH   2   3
TORSDOF 5
ENDMDL
MODEL      128
REMARK 921   NORMALIZED FREE ENERGY PREDICTED BY IDOCK:   -3.38 KCAL/MOL
REMARK 922        TOTAL FREE ENERGY PREDICTED BY IDOCK:   -5.37 KCAL/MOL
REMARK 923 INTER-LIGAND FREE ENERGY PREDICTED BY IDOCK:   -5.15 KCAL/MOL
REMARK 924 INTRA-LIGAND FREE ENERGY PREDICTED BY IDOCK:   -0.22 KCAL/MOL
REMARK 927      BINDING AFFINITY PREDICTED BY RF-SCORE:    0.00 PKD
ROOT
HETATM    1  C   UNL     1      -6.587   4.395  72.994  1.00  0.00    -0.047 C  
HETATM    2  C   UNL     1      -7.447   5.542  72.478  1.00  0.00    -0.097 C  
ENDROOT
BRANCH   2   3
HETATM    3  C   UNL     1      -6.626   6.489  71.599  1.00  0.00    -0.057 C  
BRANCH   3   4
HETATM    4  C   UNL     1      -7.292   6.769  70.243  1.00  0.00    -0.085 C  
HETATM    5  C   UNL     1      -8.630   7.539  70.376  1.00  0.00    -0.143 C  
HETATM    6  C   UNL     1      -8.360   8.845  71.097  1.00  0.00    -0.183 C  
HETATM    7  C   UNL     1      -9.262   7.869  69.021  1.00  0.00    -0.147 C  
HETATM    8  N   UNL     1     -10.613   8.303  68.990  1.00  0.00    -0.191 N  
HETATM    9  O   UNL     1      -8.508   7.873  68.038  1.00  0.00    -0.122 OA 
HETATM   10  O   UNL     1      -8.736   9.073  72.237  1.00  0.00    -0.367 OA 
HETATM   11  O   UNL     1      -7.636   9.735  70.384  1.00  0.00    -0.159 OA 
BRANCH   8  12
HETATM   12  C   UNL     1     -11.398   8.429  70.180  1.00  0.00    -0.065 A  
HETATM   13  C   UNL     1     -11.694   9.712  70.664  1.00  0.00    -0.353 A  
HETATM   14  C   UNL     1     -11.918   7.309  70.850  1.00  0.00    -0.342 A  
HETATM   15  C   UNL     1     -12.534   9.865  71.775  1.00  0.00    -0.487 A  
HETATM   16  C   UNL     1     -13.082   8.749  72.406  1.00  0.00    -0.444 A  
HETATM   17  C   UNL     1     -12.769   7.469  71.943  1.00  0.00    -0.318 A  
ENDBRANCH   8  12
BRANCH   8  18
HETATM   18  N   UNL     1     -11.000   9.265  67.994  1.00  0.00    -0.499 NA 
HETATM   19  H   UNL     1     -11.929   9.214  67.576  1.00  0.00     0.000 HD 
BRANCH  18  20
HETATM   20  C   UNL     1     -10.104  10.284  67.587  1.00  0.00    -0.191 A  
HETATM   21  C   UNL     1      -8.609  11.379  66.013  1.00  0.00    -0.094 A  
HETATM   22  C   UNL     1      -8.231  12.303  66.982  1.00  0.00    -0.155 A  
HETATM   23  C   UNL     1      -9.571  10.402  66.302  1.00  0.00    -0.230 A  
HETATM   24  C   UNL     1      -8.848  12.283  68.228  1.00  0.00    -0.178 A  
HETATM   25  C   UNL     1      -9.788  11.290  68.519  1.00  0.00    -0.198 A  
ENDBRANCH  18  20
ENDBRANCH   8  18
ENDBRANCH   3   4
ENDBRANCH   2   3
TORSDOF 5
ENDMDL
MODEL      129
REMARK 921   NORMALIZED FREE ENERGY PREDICTED BY IDOCK:   -3.38 KCAL/MOL
REMARK 922        TOTAL FREE ENERGY PREDICTED BY IDOCK:   -5.37 KCAL/MOL
REMARK 923 INTER-LIGAND FREE ENERGY PREDICTED BY IDOCK:   -5.13 KCAL/MOL
REMARK 924 INTRA-LIGAND FREE ENERGY PREDICTED BY IDOCK:   -0.25 KCAL/MOL
REMARK 927      BINDING AFFINITY PREDICTED BY RF-SCORE:    0.00 PKD
ROOT
HETATM    1  C   UNL     1     -11.821  11.352  69.574  1.00  0.00    -0.426 C  
HETATM    2  C   UNL     1     -12.733  10.970  70.733  1.00  0.00    -0.414 C  
ENDROOT
BRANCH   2   3
HETATM    3  C   UNL     1     -12.288   9.651  71.368  1.00  0.00    -0.468 C  
BRANCH   3   4
HETATM    4  C   UNL     1     -10.879   9.223  70.925  1.00  0.00    -0.365 C  
HETATM    5  C   UNL     1     -10.561   7.747  71.271  1.00  0.00    -0.241 C  
HETATM    6  C   UNL     1     -11.600   6.865  70.606  1.00  0.00    -0.353 C  
HETATM    7  C   UNL     1      -9.181   7.306  70.776  1.00  0.00    -0.156 C  
HETATM    8  N   UNL     1      -8.638   6.091  71.270  1.00  0.00    -0.128 N  
HETATM    9  O   UNL     1      -8.677   7.970  69.858  1.00  0.00    -0.136 OA 
HETATM   10  O   UNL     1     -12.464   6.262  71.226  1.00  0.00    -0.058 OA 
HETATM   11  O   UNL     1     -11.515   6.824  69.260  1.00  0.00    -0.203 OA 
BRANCH   8  12
HETATM   12  C   UNL     1      -9.336   5.279  72.219  1.00  0.00    -0.142 A  
HETATM   13  C   UNL     1      -9.592   5.799  73.497  1.00  0.00    -0.140 A  
HETATM   14  C   UNL     1      -9.812   3.997  71.896  1.00  0.00    -0.247 A  
HETATM   15  C   UNL     1     -10.351   5.061  74.415  1.00  0.00    -0.321 A  
HETATM   16  C   UNL     1     -10.857   3.809  74.069  1.00  0.00    -0.270 A  
HETATM   17  C   UNL     1     -10.583   3.276  72.807  1.00  0.00    -0.168 A  
ENDBRANCH   8  12
BRANCH   8  18
HETATM   18  N   UNL     1      -7.822   5.298  70.391  1.00  0.00    -0.075 NA 
HETATM   19  H   UNL     1      -6.950   4.897  70.736  1.00  0.00     0.000 HD 
BRANCH  18  20
HETATM   20  C   UNL     1      -8.217   5.069  69.050  1.00  0.00    -0.087 A  
HETATM   21  C   UNL     1      -9.600   4.066  67.320  1.00  0.00    -0.229 A  
HETATM   22  C   UNL     1      -8.787   4.605  66.328  1.00  0.00    -0.113 A  
HETATM   23  C   UNL     1      -9.341   4.332  68.671  1.00  0.00    -0.213 A  
HETATM   24  C   UNL     1      -7.741   5.451  66.681  1.00  0.00    -0.100 A  
HETATM   25  C   UNL     1      -7.471   5.691  68.032  1.00  0.00    -0.074 A  
ENDBRANCH  18  20
ENDBRANCH   8  18
ENDBRANCH   3   4
ENDBRANCH   2   3
TORSDOF 5
ENDMDL
MODEL      130
REMARK 921   NORMALIZED FREE ENERGY PREDICTED BY IDOCK:   -3.38 KCAL/MOL
REMARK 922        TOTAL FREE ENERGY PREDICTED BY IDOCK:   -5.37 KCAL/MOL
REMARK 923 INTER-LIGAND FREE ENERGY PREDICTED BY IDOCK:   -4.74 KCAL/MOL
REMARK 924 INTRA-LIGAND FREE ENERGY PREDICTED BY IDOCK:   -0.63 KCAL/MOL
REMARK 927      BINDING AFFINITY PREDICTED BY RF-SCORE:    0.00 PKD
ROOT
HETATM    1  C   UNL     1     -11.726   9.931  71.023  1.00  0.00    -0.466 C  
HETATM    2  C   UNL     1     -10.672   9.056  71.689  1.00  0.00    -0.441 C  
ENDROOT
BRANCH   2   3
HETATM    3  C   UNL     1      -9.424   8.940  70.812  1.00  0.00    -0.280 C  
BRANCH   3   4
HETATM    4  C   UNL     1      -9.748   8.523  69.368  1.00  0.00    -0.177 C  
HETATM    5  C   UNL     1      -9.560   7.005  69.123  1.00  0.00    -0.149 C  
HETATM    6  C   UNL     1     -10.451   6.250  70.089  1.00  0.00    -0.222 C  
HETATM    7  C   UNL     1      -9.940   6.582  67.700  1.00  0.00    -0.130 C  
HETATM    8  N   UNL     1      -9.545   5.297  67.246  1.00  0.00    -0.130 N  
HETATM    9  O   UNL     1     -10.697   7.338  67.076  1.00  0.00    -0.332 OA 
HETATM   10  O   UNL     1     -10.022   5.603  71.033  1.00  0.00    -0.178 OA 
HETATM   11  O   UNL     1     -11.772   6.375  69.840  1.00  0.00    -0.426 OA 
BRANCH   8  12
HETATM   12  C   UNL     1      -8.798   4.397  68.070  1.00  0.00    -0.109 A  
HETATM   13  C   UNL     1      -9.445   3.272  68.603  1.00  0.00    -0.200 A  
HETATM   14  C   UNL     1      -7.428   4.580  68.321  1.00  0.00    -0.065 A  
HETATM   15  C   UNL     1      -8.715   2.328  69.339  1.00  0.00    -0.130 A  
HETATM   16  C   UNL     1      -7.347   2.496  69.545  1.00  0.00    -0.044 A  
HETATM   17  C   UNL     1      -6.705   3.627  69.037  1.00  0.00    -0.045 A  
ENDBRANCH   8  12
BRANCH   8  18
HETATM   18  N   UNL     1     -10.415   4.593  66.343  1.00  0.00    -0.341 NA 
HETATM   19  H   UNL     1     -11.379   4.403  66.616  1.00  0.00     0.000 HD 
BRANCH  18  20
HETATM   20  C   UNL     1      -9.946   4.161  65.078  1.00  0.00    -0.208 A  
HETATM   21  C   UNL     1      -8.222   3.717  63.421  1.00  0.00    -0.089 A  
HETATM   22  C   UNL     1      -9.188   3.403  62.470  1.00  0.00    -0.088 A  
HETATM   23  C   UNL     1      -8.599   4.052  64.728  1.00  0.00    -0.116 A  
HETATM   24  C   UNL     1     -10.530   3.378  62.835  1.00  0.00    -0.196 A  
HETATM   25  C   UNL     1     -10.900   3.739  64.134  1.00  0.00    -0.179 A  
ENDBRANCH  18  20
ENDBRANCH   8  18
ENDBRANCH   3   4
ENDBRANCH   2   3
TORSDOF 5
ENDMDL
MODEL      131
REMARK 921   NORMALIZED FREE ENERGY PREDICTED BY IDOCK:   -3.35 KCAL/MOL
REMARK 922        TOTAL FREE ENERGY PREDICTED BY IDOCK:   -5.34 KCAL/MOL
REMARK 923 INTER-LIGAND FREE ENERGY PREDICTED BY IDOCK:   -5.01 KCAL/MOL
REMARK 924 INTRA-LIGAND FREE ENERGY PREDICTED BY IDOCK:   -0.33 KCAL/MOL
REMARK 927      BINDING AFFINITY PREDICTED BY RF-SCORE:    0.00 PKD
ROOT
HETATM    1  C   UNL     1      -5.448   5.436  72.337  1.00  0.00    -0.017 C  
HETATM    2  C   UNL     1      -6.125   6.736  72.753  1.00  0.00    -0.053 C  
ENDROOT
BRANCH   2   3
HETATM    3  C   UNL     1      -5.763   7.873  71.795  1.00  0.00    -0.035 C  
BRANCH   3   4
HETATM    4  C   UNL     1      -6.380   7.692  70.398  1.00  0.00    -0.038 C  
HETATM    5  C   UNL     1      -7.924   7.581  70.431  1.00  0.00    -0.102 C  
HETATM    6  C   UNL     1      -8.480   8.833  71.080  1.00  0.00    -0.179 C  
HETATM    7  C   UNL     1      -8.540   7.460  69.034  1.00  0.00    -0.133 C  
HETATM    8  N   UNL     1      -9.897   7.059  68.922  1.00  0.00    -0.148 N  
HETATM    9  O   UNL     1      -7.853   7.859  68.083  1.00  0.00    -0.121 OA 
HETATM   10  O   UNL     1      -8.995   8.842  72.188  1.00  0.00    -0.381 OA 
HETATM   11  O   UNL     1      -8.332   9.954  70.343  1.00  0.00    -0.153 OA 
BRANCH   8  12
HETATM   12  C   UNL     1     -10.696   6.755  70.070  1.00  0.00    -0.247 A  
HETATM   13  C   UNL     1     -10.373   5.629  70.841  1.00  0.00    -0.303 A  
HETATM   14  C   UNL     1     -11.762   7.576  70.473  1.00  0.00    -0.183 A  
HETATM   15  C   UNL     1     -11.082   5.360  72.020  1.00  0.00    -0.204 A  
HETATM   16  C   UNL     1     -12.110   6.206  72.435  1.00  0.00    -0.186 A  
HETATM   17  C   UNL     1     -12.451   7.314  71.657  1.00  0.00    -0.394 A  
ENDBRANCH   8  12
BRANCH   8  18
HETATM   18  N   UNL     1     -10.688   7.608  67.854  1.00  0.00    -0.429 NA 
HETATM   19  H   UNL     1     -11.311   7.000  67.323  1.00  0.00     0.000 HD 
BRANCH  18  20
HETATM   20  C   UNL     1     -10.609   8.985  67.533  1.00  0.00    -0.237 A  
HETATM   21  C   UNL     1     -10.943  11.354  67.968  1.00  0.00    -0.290 A  
HETATM   22  C   UNL     1     -10.509  11.673  66.685  1.00  0.00    -0.268 A  
HETATM   23  C   UNL     1     -10.952  10.022  68.402  1.00  0.00    -0.266 A  
HETATM   24  C   UNL     1     -10.038  10.666  65.849  1.00  0.00    -0.321 A  
HETATM   25  C   UNL     1     -10.074   9.336  66.279  1.00  0.00    -0.322 A  
ENDBRANCH  18  20
ENDBRANCH   8  18
ENDBRANCH   3   4
ENDBRANCH   2   3
TORSDOF 5
ENDMDL
MODEL      132
REMARK 921   NORMALIZED FREE ENERGY PREDICTED BY IDOCK:   -3.34 KCAL/MOL
REMARK 922        TOTAL FREE ENERGY PREDICTED BY IDOCK:   -5.32 KCAL/MOL
REMARK 923 INTER-LIGAND FREE ENERGY PREDICTED BY IDOCK:   -5.27 KCAL/MOL
REMARK 924 INTRA-LIGAND FREE ENERGY PREDICTED BY IDOCK:   -0.06 KCAL/MOL
REMARK 927      BINDING AFFINITY PREDICTED BY RF-SCORE:    0.00 PKD
ROOT
HETATM    1  C   UNL     1      -5.519   8.005  62.618  1.00  0.00    -0.064 C  
HETATM    2  C   UNL     1      -6.928   8.490  62.935  1.00  0.00    -0.090 C  
ENDROOT
BRANCH   2   3
HETATM    3  C   UNL     1      -6.915   9.951  63.390  1.00  0.00    -0.124 C  
BRANCH   3   4
HETATM    4  C   UNL     1      -6.906  10.097  64.920  1.00  0.00    -0.129 C  
HETATM    5  C   UNL     1      -8.158  10.830  65.463  1.00  0.00    -0.084 C  
HETATM    6  C   UNL     1      -9.389  10.061  65.027  1.00  0.00    -0.256 C  
HETATM    7  C   UNL     1      -8.175  10.922  66.992  1.00  0.00    -0.134 C  
HETATM    8  N   UNL     1      -9.095  11.810  67.608  1.00  0.00    -0.171 N  
HETATM    9  O   UNL     1      -7.478  10.105  67.609  1.00  0.00    -0.089 OA 
HETATM   10  O   UNL     1     -10.175  10.472  64.186  1.00  0.00    -0.342 OA 
HETATM   11  O   UNL     1      -9.533   8.857  65.622  1.00  0.00    -0.229 OA 
BRANCH   8  12
HETATM   12  C   UNL     1      -9.991  12.624  66.845  1.00  0.00    -0.230 A  
HETATM   13  C   UNL     1     -11.333  12.230  66.730  1.00  0.00    -0.395 A  
HETATM   14  C   UNL     1      -9.579  13.828  66.249  1.00  0.00    -0.265 A  
HETATM   15  C   UNL     1     -12.250  13.054  66.064  1.00  0.00    -0.463 A  
HETATM   16  C   UNL     1     -11.841  14.269  65.515  1.00  0.00    -0.363 A  
HETATM   17  C   UNL     1     -10.502  14.652  65.605  1.00  0.00    -0.358 A  
ENDBRANCH   8  12
BRANCH   8  18
HETATM   18  N   UNL     1      -9.663  11.437  68.875  1.00  0.00    -0.376 NA 
HETATM   19  H   UNL     1     -10.029  12.158  69.496  1.00  0.00     0.000 HD 
BRANCH  18  20
HETATM   20  C   UNL     1      -9.720  10.077  69.267  1.00  0.00    -0.215 A  
HETATM   21  C   UNL     1      -8.970   8.129  70.513  1.00  0.00    -0.145 A  
HETATM   22  C   UNL     1      -9.878   7.320  69.837  1.00  0.00    -0.178 A  
HETATM   23  C   UNL     1      -8.922   9.505  70.260  1.00  0.00    -0.288 A  
HETATM   24  C   UNL     1     -10.773   7.893  68.939  1.00  0.00    -0.098 A  
HETATM   25  C   UNL     1     -10.702   9.263  68.672  1.00  0.00    -0.180 A  
ENDBRANCH  18  20
ENDBRANCH   8  18
ENDBRANCH   3   4
ENDBRANCH   2   3
TORSDOF 5
ENDMDL
MODEL      133
REMARK 921   NORMALIZED FREE ENERGY PREDICTED BY IDOCK:   -3.34 KCAL/MOL
REMARK 922        TOTAL FREE ENERGY PREDICTED BY IDOCK:   -5.32 KCAL/MOL
REMARK 923 INTER-LIGAND FREE ENERGY PREDICTED BY IDOCK:   -5.40 KCAL/MOL
REMARK 924 INTRA-LIGAND FREE ENERGY PREDICTED BY IDOCK:    0.08 KCAL/MOL
REMARK 927      BINDING AFFINITY PREDICTED BY RF-SCORE:    0.00 PKD
ROOT
HETATM    1  C   UNL     1      -5.274  14.711  71.449  1.00  0.00    -0.144 C  
HETATM    2  C   UNL     1      -5.374  13.488  70.545  1.00  0.00    -0.131 C  
ENDROOT
BRANCH   2   3
HETATM    3  C   UNL     1      -6.271  13.772  69.339  1.00  0.00    -0.107 C  
BRANCH   3   4
HETATM    4  C   UNL     1      -6.439  12.549  68.422  1.00  0.00    -0.066 C  
HETATM    5  C   UNL     1      -7.863  11.941  68.483  1.00  0.00    -0.136 C  
HETATM    6  C   UNL     1      -8.859  13.016  68.095  1.00  0.00    -0.194 C  
HETATM    7  C   UNL     1      -8.045  10.760  67.526  1.00  0.00    -0.111 C  
HETATM    8  N   UNL     1      -9.185   9.928  67.683  1.00  0.00    -0.134 N  
HETATM    9  O   UNL     1      -7.255  10.684  66.574  1.00  0.00    -0.118 OA 
HETATM   10  O   UNL     1      -9.630  13.536  68.888  1.00  0.00    -0.043 OA 
HETATM   11  O   UNL     1      -8.805  13.381  66.796  1.00  0.00    -0.213 OA 
BRANCH   8  12
HETATM   12  C   UNL     1     -10.154  10.155  68.711  1.00  0.00    -0.187 A  
HETATM   13  C   UNL     1     -11.299  10.907  68.408  1.00  0.00    -0.370 A  
HETATM   14  C   UNL     1     -10.016   9.608  69.998  1.00  0.00    -0.288 A  
HETATM   15  C   UNL     1     -12.305  11.069  69.370  1.00  0.00    -0.222 A  
HETATM   16  C   UNL     1     -12.180  10.485  70.630  1.00  0.00    -0.446 A  
HETATM   17  C   UNL     1     -11.030   9.756  70.943  1.00  0.00    -0.411 A  
ENDBRANCH   8  12
BRANCH   8  18
HETATM   18  N   UNL     1      -9.781   9.355  66.507  1.00  0.00    -0.216 NA 
HETATM   19  H   UNL     1     -10.084   8.381  66.518  1.00  0.00     0.000 HD 
BRANCH  18  20
HETATM   20  C   UNL     1      -9.951  10.129  65.334  1.00  0.00    -0.307 A  
HETATM   21  C   UNL     1     -10.926  11.935  64.029  1.00  0.00    -0.445 A  
HETATM   22  C   UNL     1     -10.282  11.482  62.881  1.00  0.00    -0.188 A  
HETATM   23  C   UNL     1     -10.728  11.287  65.255  1.00  0.00    -0.302 A  
HETATM   24  C   UNL     1      -9.401  10.409  62.966  1.00  0.00    -0.344 A  
HETATM   25  C   UNL     1      -9.227   9.751  64.188  1.00  0.00    -0.277 A  
ENDBRANCH  18  20
ENDBRANCH   8  18
ENDBRANCH   3   4
ENDBRANCH   2   3
TORSDOF 5
ENDMDL
MODEL      134
REMARK 921   NORMALIZED FREE ENERGY PREDICTED BY IDOCK:   -3.31 KCAL/MOL
REMARK 922        TOTAL FREE ENERGY PREDICTED BY IDOCK:   -5.28 KCAL/MOL
REMARK 923 INTER-LIGAND FREE ENERGY PREDICTED BY IDOCK:   -5.04 KCAL/MOL
REMARK 924 INTRA-LIGAND FREE ENERGY PREDICTED BY IDOCK:   -0.24 KCAL/MOL
REMARK 927      BINDING AFFINITY PREDICTED BY RF-SCORE:    0.00 PKD
ROOT
HETATM    1  C   UNL     1      -9.361   4.500  64.778  1.00  0.00    -0.140 C  
HETATM    2  C   UNL     1      -9.121   4.487  66.282  1.00  0.00    -0.123 C  
ENDROOT
BRANCH   2   3
HETATM    3  C   UNL     1     -10.357   4.978  67.038  1.00  0.00    -0.242 C  
BRANCH   3   4
HETATM    4  C   UNL     1     -10.587   6.490  66.885  1.00  0.00    -0.376 C  
HETATM    5  C   UNL     1     -10.478   7.255  68.228  1.00  0.00    -0.239 C  
HETATM    6  C   UNL     1      -9.104   7.000  68.814  1.00  0.00    -0.133 C  
HETATM    7  C   UNL     1     -10.649   8.768  68.065  1.00  0.00    -0.159 C  
HETATM    8  N   UNL     1     -10.866   9.557  69.225  1.00  0.00    -0.218 N  
HETATM    9  O   UNL     1     -10.443   9.235  66.935  1.00  0.00    -0.248 OA 
HETATM   10  O   UNL     1      -8.914   6.314  69.808  1.00  0.00    -0.138 OA 
HETATM   11  O   UNL     1      -8.091   7.570  68.126  1.00  0.00    -0.121 OA 
BRANCH   8  12
HETATM   12  C   UNL     1     -10.942   8.979  70.531  1.00  0.00    -0.252 A  
HETATM   13  C   UNL     1     -12.096   8.267  70.892  1.00  0.00    -0.149 A  
HETATM   14  C   UNL     1      -9.878   9.062  71.446  1.00  0.00    -0.381 A  
HETATM   15  C   UNL     1     -12.160   7.616  72.131  1.00  0.00    -0.325 A  
HETATM   16  C   UNL     1     -11.081   7.668  73.013  1.00  0.00    -0.437 A  
HETATM   17  C   UNL     1      -9.940   8.396  72.669  1.00  0.00    -0.329 A  
ENDBRANCH   8  12
BRANCH   8  18
HETATM   18  N   UNL     1     -10.319  10.885  69.262  1.00  0.00    -0.323 NA 
HETATM   19  H   UNL     1     -10.851  11.638  69.699  1.00  0.00     0.000 HD 
BRANCH  18  20
HETATM   20  C   UNL     1      -9.049  11.159  68.697  1.00  0.00    -0.166 A  
HETATM   21  C   UNL     1      -6.626  10.996  68.585  1.00  0.00    -0.058 A  
HETATM   22  C   UNL     1      -6.591  11.913  67.539  1.00  0.00    -0.110 A  
HETATM   23  C   UNL     1      -7.850  10.590  69.131  1.00  0.00    -0.138 A  
HETATM   24  C   UNL     1      -7.783  12.391  67.004  1.00  0.00    -0.065 A  
HETATM   25  C   UNL     1      -9.001  12.002  67.572  1.00  0.00    -0.174 A  
ENDBRANCH  18  20
ENDBRANCH   8  18
ENDBRANCH   3   4
ENDBRANCH   2   3
TORSDOF 5
ENDMDL
MODEL      135
REMARK 921   NORMALIZED FREE ENERGY PREDICTED BY IDOCK:   -3.28 KCAL/MOL
REMARK 922        TOTAL FREE ENERGY PREDICTED BY IDOCK:   -5.25 KCAL/MOL
REMARK 923 INTER-LIGAND FREE ENERGY PREDICTED BY IDOCK:   -5.27 KCAL/MOL
REMARK 924 INTRA-LIGAND FREE ENERGY PREDICTED BY IDOCK:    0.02 KCAL/MOL
REMARK 927      BINDING AFFINITY PREDICTED BY RF-SCORE:    0.00 PKD
ROOT
HETATM    1  C   UNL     1     -13.260  12.407  64.184  1.00  0.00     0.067 C  
HETATM    2  C   UNL     1     -12.445  11.681  63.122  1.00  0.00    -0.139 C  
ENDROOT
BRANCH   2   3
HETATM    3  C   UNL     1     -10.996  11.493  63.577  1.00  0.00    -0.453 C  
BRANCH   3   4
HETATM    4  C   UNL     1     -10.474  12.680  64.404  1.00  0.00    -0.398 C  
HETATM    5  C   UNL     1     -10.277  12.332  65.900  1.00  0.00    -0.274 C  
HETATM    6  C   UNL     1      -9.307  11.171  65.998  1.00  0.00    -0.206 C  
HETATM    7  C   UNL     1      -9.702  13.498  66.710  1.00  0.00    -0.271 C  
HETATM    8  N   UNL     1      -9.743  13.427  68.127  1.00  0.00    -0.222 N  
HETATM    9  O   UNL     1      -9.101  14.376  66.075  1.00  0.00    -0.117 OA 
HETATM   10  O   UNL     1      -9.639  10.044  66.334  1.00  0.00    -0.176 OA 
HETATM   11  O   UNL     1      -8.038  11.476  65.648  1.00  0.00     0.168 OA 
BRANCH   8  12
HETATM   12  C   UNL     1     -10.315  12.309  68.814  1.00  0.00    -0.135 A  
HETATM   13  C   UNL     1     -11.694  12.304  69.070  1.00  0.00    -0.376 A  
HETATM   14  C   UNL     1      -9.545  11.198  69.197  1.00  0.00    -0.024 A  
HETATM   15  C   UNL     1     -12.293  11.184  69.661  1.00  0.00    -0.287 A  
HETATM   16  C   UNL     1     -11.528  10.068  69.997  1.00  0.00    -0.310 A  
HETATM   17  C   UNL     1     -10.151  10.078  69.767  1.00  0.00    -0.284 A  
ENDBRANCH   8  12
BRANCH   8  18
HETATM   18  N   UNL     1      -8.666  14.016  68.874  1.00  0.00    -0.367 NA 
HETATM   19  H   UNL     1      -8.050  13.420  69.427  1.00  0.00     0.000 HD 
BRANCH  18  20
HETATM   20  C   UNL     1      -8.452  15.416  68.850  1.00  0.00    -0.205 A  
HETATM   21  C   UNL     1      -9.148  17.728  68.568  1.00  0.00    -0.282 A  
HETATM   22  C   UNL     1      -7.833  18.163  68.702  1.00  0.00    -0.307 A  
HETATM   23  C   UNL     1      -9.460  16.368  68.684  1.00  0.00    -0.239 A  
HETATM   24  C   UNL     1      -6.832  17.243  69.000  1.00  0.00    -0.245 A  
HETATM   25  C   UNL     1      -7.146  15.884  69.088  1.00  0.00    -0.185 A  
ENDBRANCH  18  20
ENDBRANCH   8  18
ENDBRANCH   3   4
ENDBRANCH   2   3
TORSDOF 5
ENDMDL
MODEL      136
REMARK 921   NORMALIZED FREE ENERGY PREDICTED BY IDOCK:   -3.28 KCAL/MOL
REMARK 922        TOTAL FREE ENERGY PREDICTED BY IDOCK:   -5.25 KCAL/MOL
REMARK 923 INTER-LIGAND FREE ENERGY PREDICTED BY IDOCK:   -4.46 KCAL/MOL
REMARK 924 INTRA-LIGAND FREE ENERGY PREDICTED BY IDOCK:   -0.79 KCAL/MOL
REMARK 927      BINDING AFFINITY PREDICTED BY RF-SCORE:    0.00 PKD
ROOT
HETATM    1  C   UNL     1      -7.923   8.029  73.729  1.00  0.00    -0.255 C  
HETATM    2  C   UNL     1      -7.774   6.530  73.500  1.00  0.00    -0.091 C  
ENDROOT
BRANCH   2   3
HETATM    3  C   UNL     1      -7.764   6.203  72.005  1.00  0.00    -0.097 C  
BRANCH   3   4
HETATM    4  C   UNL     1      -8.240   7.378  71.136  1.00  0.00    -0.106 C  
HETATM    5  C   UNL     1      -8.894   6.920  69.809  1.00  0.00    -0.141 C  
HETATM    6  C   UNL     1     -10.066   6.017  70.139  1.00  0.00    -0.194 C  
HETATM    7  C   UNL     1      -9.420   8.090  68.972  1.00  0.00    -0.151 C  
HETATM    8  N   UNL     1      -9.772   7.852  67.618  1.00  0.00    -0.150 N  
HETATM    9  O   UNL     1      -9.643   9.151  69.572  1.00  0.00    -0.160 OA 
HETATM   10  O   UNL     1     -10.066   4.813  69.929  1.00  0.00    -0.235 OA 
HETATM   11  O   UNL     1     -11.109   6.649  70.719  1.00  0.00    -0.252 OA 
BRANCH   8  12
HETATM   12  C   UNL     1      -9.639   6.561  67.014  1.00  0.00    -0.144 A  
HETATM   13  C   UNL     1     -10.779   5.941  66.482  1.00  0.00    -0.251 A  
HETATM   14  C   UNL     1      -8.395   5.919  66.898  1.00  0.00    -0.108 A  
HETATM   15  C   UNL     1     -10.661   4.719  65.807  1.00  0.00    -0.220 A  
HETATM   16  C   UNL     1      -9.415   4.111  65.658  1.00  0.00    -0.177 A  
HETATM   17  C   UNL     1      -8.282   4.712  66.208  1.00  0.00    -0.107 A  
ENDBRANCH   8  12
BRANCH   8  18
HETATM   18  N   UNL     1     -10.870   8.590  67.056  1.00  0.00    -0.356 NA 
HETATM   19  H   UNL     1     -11.823   8.248  67.176  1.00  0.00     0.000 HD 
BRANCH  18  20
HETATM   20  C   UNL     1     -10.641   9.789  66.336  1.00  0.00    -0.047 A  
HETATM   21  C   UNL     1     -11.139  12.080  65.691  1.00  0.00    -0.361 A  
HETATM   22  C   UNL     1     -10.134  12.049  64.728  1.00  0.00    -0.286 A  
HETATM   23  C   UNL     1     -11.361  10.972  66.517  1.00  0.00     0.047 A  
HETATM   24  C   UNL     1      -9.319  10.928  64.621  1.00  0.00    -0.256 A  
HETATM   25  C   UNL     1      -9.563   9.815  65.432  1.00  0.00    -0.359 A  
ENDBRANCH  18  20
ENDBRANCH   8  18
ENDBRANCH   3   4
ENDBRANCH   2   3
TORSDOF 5
ENDMDL
MODEL      137
REMARK 921   NORMALIZED FREE ENERGY PREDICTED BY IDOCK:   -3.26 KCAL/MOL
REMARK 922        TOTAL FREE ENERGY PREDICTED BY IDOCK:   -5.22 KCAL/MOL
REMARK 923 INTER-LIGAND FREE ENERGY PREDICTED BY IDOCK:   -5.11 KCAL/MOL
REMARK 924 INTRA-LIGAND FREE ENERGY PREDICTED BY IDOCK:   -0.11 KCAL/MOL
REMARK 927      BINDING AFFINITY PREDICTED BY RF-SCORE:    0.00 PKD
ROOT
HETATM    1  C   UNL     1     -13.349  13.081  71.072  1.00  0.00     0.152 C  
HETATM    2  C   UNL     1     -12.649  11.767  71.392  1.00  0.00    -0.367 C  
ENDROOT
BRANCH   2   3
HETATM    3  C   UNL     1     -12.345  10.982  70.114  1.00  0.00    -0.389 C  
BRANCH   3   4
HETATM    4  C   UNL     1     -10.847  10.965  69.769  1.00  0.00    -0.247 C  
HETATM    5  C   UNL     1     -10.527  11.687  68.437  1.00  0.00    -0.230 C  
HETATM    6  C   UNL     1     -11.014  13.119  68.539  1.00  0.00    -0.263 C  
HETATM    7  C   UNL     1      -9.028  11.720  68.125  1.00  0.00    -0.181 C  
HETATM    8  N   UNL     1      -8.614  12.080  66.816  1.00  0.00    -0.191 N  
HETATM    9  O   UNL     1      -8.254  11.566  69.081  1.00  0.00    -0.004 OA 
HETATM   10  O   UNL     1     -11.975  13.547  67.917  1.00  0.00    -0.357 OA 
HETATM   11  O   UNL     1     -10.316  13.884  69.405  1.00  0.00    -0.009 OA 
BRANCH   8  12
HETATM   12  C   UNL     1      -9.553  12.400  65.784  1.00  0.00    -0.156 A  
HETATM   13  C   UNL     1     -10.211  11.354  65.120  1.00  0.00    -0.328 A  
HETATM   14  C   UNL     1      -9.869  13.727  65.450  1.00  0.00    -0.171 A  
HETATM   15  C   UNL     1     -11.200  11.641  64.169  1.00  0.00    -0.421 A  
HETATM   16  C   UNL     1     -11.538  12.961  63.876  1.00  0.00    -0.515 A  
HETATM   17  C   UNL     1     -10.867  14.005  64.517  1.00  0.00    -0.362 A  
ENDBRANCH   8  12
BRANCH   8  18
HETATM   18  N   UNL     1      -7.387  12.813  66.663  1.00  0.00    -0.132 NA 
HETATM   19  H   UNL     1      -6.701  12.511  65.971  1.00  0.00     0.000 HD 
BRANCH  18  20
HETATM   20  C   UNL     1      -7.120  13.950  67.465  1.00  0.00    -0.158 A  
HETATM   21  C   UNL     1      -5.961  15.157  69.229  1.00  0.00    -0.106 A  
HETATM   22  C   UNL     1      -6.809  16.249  69.067  1.00  0.00    -0.182 A  
HETATM   23  C   UNL     1      -6.090  14.032  68.404  1.00  0.00    -0.100 A  
HETATM   24  C   UNL     1      -7.757  16.239  68.049  1.00  0.00    -0.154 A  
HETATM   25  C   UNL     1      -7.897  15.103  67.246  1.00  0.00    -0.241 A  
ENDBRANCH  18  20
ENDBRANCH   8  18
ENDBRANCH   3   4
ENDBRANCH   2   3
TORSDOF 5
ENDMDL
MODEL      138
REMARK 921   NORMALIZED FREE ENERGY PREDICTED BY IDOCK:   -3.21 KCAL/MOL
REMARK 922        TOTAL FREE ENERGY PREDICTED BY IDOCK:   -5.15 KCAL/MOL
REMARK 923 INTER-LIGAND FREE ENERGY PREDICTED BY IDOCK:   -4.89 KCAL/MOL
REMARK 924 INTRA-LIGAND FREE ENERGY PREDICTED BY IDOCK:   -0.26 KCAL/MOL
REMARK 927      BINDING AFFINITY PREDICTED BY RF-SCORE:    0.00 PKD
ROOT
HETATM    1  C   UNL     1     -10.053  14.940  65.960  1.00  0.00    -0.331 C  
HETATM    2  C   UNL     1     -11.275  14.224  66.519  1.00  0.00    -0.333 C  
ENDROOT
BRANCH   2   3
HETATM    3  C   UNL     1     -11.057  13.828  67.981  1.00  0.00    -0.284 C  
BRANCH   3   4
HETATM    4  C   UNL     1      -9.716  13.113  68.210  1.00  0.00    -0.223 C  
HETATM    5  C   UNL     1      -9.887  11.636  68.644  1.00  0.00    -0.173 C  
HETATM    6  C   UNL     1     -10.681  10.911  67.575  1.00  0.00    -0.252 C  
HETATM    7  C   UNL     1      -8.550  10.908  68.814  1.00  0.00    -0.159 C  
HETATM    8  N   UNL     1      -8.538   9.657  69.484  1.00  0.00    -0.157 N  
HETATM    9  O   UNL     1      -7.572  11.392  68.226  1.00  0.00    -0.099 OA 
HETATM   10  O   UNL     1     -11.831  10.530  67.735  1.00  0.00    -0.361 OA 
HETATM   11  O   UNL     1     -10.022  10.748  66.408  1.00  0.00    -0.201 OA 
BRANCH   8  12
HETATM   12  C   UNL     1      -9.730   9.067  70.011  1.00  0.00    -0.185 A  
HETATM   13  C   UNL     1     -10.166   7.840  69.490  1.00  0.00    -0.207 A  
HETATM   14  C   UNL     1     -10.449   9.656  71.065  1.00  0.00    -0.327 A  
HETATM   15  C   UNL     1     -11.279   7.197  70.049  1.00  0.00    -0.271 A  
HETATM   16  C   UNL     1     -11.959   7.768  71.124  1.00  0.00    -0.312 A  
HETATM   17  C   UNL     1     -11.544   9.002  71.629  1.00  0.00    -0.426 A  
ENDBRANCH   8  12
BRANCH   8  18
HETATM   18  N   UNL     1      -7.596   8.659  69.054  1.00  0.00    -0.089 NA 
HETATM   19  H   UNL     1      -7.147   8.058  69.745  1.00  0.00     0.000 HD 
BRANCH  18  20
HETATM   20  C   UNL     1      -7.286   8.504  67.681  1.00  0.00    -0.084 A  
HETATM   21  C   UNL     1      -5.849   8.701  65.729  1.00  0.00    -0.047 A  
HETATM   22  C   UNL     1      -6.877   8.258  64.902  1.00  0.00    -0.071 A  
HETATM   23  C   UNL     1      -6.040   8.783  67.114  1.00  0.00    -0.055 A  
HETATM   24  C   UNL     1      -8.082   7.850  65.462  1.00  0.00    -0.130 A  
HETATM   25  C   UNL     1      -8.276   7.958  66.842  1.00  0.00    -0.116 A  
ENDBRANCH  18  20
ENDBRANCH   8  18
ENDBRANCH   3   4
ENDBRANCH   2   3
TORSDOF 5
ENDMDL
MODEL      139
REMARK 921   NORMALIZED FREE ENERGY PREDICTED BY IDOCK:   -3.20 KCAL/MOL
REMARK 922        TOTAL FREE ENERGY PREDICTED BY IDOCK:   -5.14 KCAL/MOL
REMARK 923 INTER-LIGAND FREE ENERGY PREDICTED BY IDOCK:   -4.84 KCAL/MOL
REMARK 924 INTRA-LIGAND FREE ENERGY PREDICTED BY IDOCK:   -0.30 KCAL/MOL
REMARK 927      BINDING AFFINITY PREDICTED BY RF-SCORE:    0.00 PKD
ROOT
HETATM    1  C   UNL     1     -11.946   8.642  72.255  1.00  0.00    -0.438 C  
HETATM    2  C   UNL     1     -12.550   7.574  71.352  1.00  0.00    -0.382 C  
ENDROOT
BRANCH   2   3
HETATM    3  C   UNL     1     -11.511   6.511  70.990  1.00  0.00    -0.392 C  
BRANCH   3   4
HETATM    4  C   UNL     1     -11.374   6.304  69.473  1.00  0.00    -0.475 C  
HETATM    5  C   UNL     1     -10.483   7.375  68.796  1.00  0.00    -0.215 C  
HETATM    6  C   UNL     1      -9.113   7.337  69.446  1.00  0.00    -0.142 C  
HETATM    7  C   UNL     1     -10.301   7.133  67.295  1.00  0.00    -0.272 C  
HETATM    8  N   UNL     1      -9.763   8.178  66.499  1.00  0.00    -0.239 N  
HETATM    9  O   UNL     1     -10.503   5.981  66.886  1.00  0.00    -0.219 OA 
HETATM   10  O   UNL     1      -8.691   8.222  70.175  1.00  0.00    -0.129 OA 
HETATM   11  O   UNL     1      -8.401   6.222  69.177  1.00  0.00    -0.118 OA 
BRANCH   8  12
HETATM   12  C   UNL     1      -9.400   9.446  67.055  1.00  0.00    -0.148 A  
HETATM   13  C   UNL     1      -8.048   9.819  67.064  1.00  0.00    -0.113 A  
HETATM   14  C   UNL     1     -10.360  10.345  67.549  1.00  0.00    -0.268 A  
HETATM   15  C   UNL     1      -7.675  11.091  67.521  1.00  0.00    -0.114 A  
HETATM   16  C   UNL     1      -8.640  11.993  67.967  1.00  0.00    -0.170 A  
HETATM   17  C   UNL     1      -9.985  11.616  67.983  1.00  0.00    -0.194 A  
ENDBRANCH   8  12
BRANCH   8  18
HETATM   18  N   UNL     1      -8.926   7.828  65.384  1.00  0.00    -0.380 NA 
HETATM   19  H   UNL     1      -8.996   8.357  64.515  1.00  0.00     0.000 HD 
BRANCH  18  20
HETATM   20  C   UNL     1      -8.007   6.755  65.480  1.00  0.00    -0.119 A  
HETATM   21  C   UNL     1      -5.987   5.673  66.295  1.00  0.00    -0.022 A  
HETATM   22  C   UNL     1      -6.204   4.586  65.453  1.00  0.00    -0.031 A  
HETATM   23  C   UNL     1      -6.906   6.730  66.338  1.00  0.00    -0.061 A  
HETATM   24  C   UNL     1      -7.364   4.531  64.687  1.00  0.00    -0.071 A  
HETATM   25  C   UNL     1      -8.263   5.601  64.716  1.00  0.00    -0.134 A  
ENDBRANCH  18  20
ENDBRANCH   8  18
ENDBRANCH   3   4
ENDBRANCH   2   3
TORSDOF 5
ENDMDL
MODEL      140
REMARK 921   NORMALIZED FREE ENERGY PREDICTED BY IDOCK:   -3.19 KCAL/MOL
REMARK 922        TOTAL FREE ENERGY PREDICTED BY IDOCK:   -5.13 KCAL/MOL
REMARK 923 INTER-LIGAND FREE ENERGY PREDICTED BY IDOCK:   -4.22 KCAL/MOL
REMARK 924 INTRA-LIGAND FREE ENERGY PREDICTED BY IDOCK:   -0.91 KCAL/MOL
REMARK 927      BINDING AFFINITY PREDICTED BY RF-SCORE:    0.00 PKD
ROOT
HETATM    1  C   UNL     1      -5.632   5.807  73.894  1.00  0.00    -0.036 C  
HETATM    2  C   UNL     1      -6.337   7.145  74.072  1.00  0.00    -0.073 C  
ENDROOT
BRANCH   2   3
HETATM    3  C   UNL     1      -5.775   8.193  73.109  1.00  0.00    -0.057 C  
BRANCH   3   4
HETATM    4  C   UNL     1      -5.961   7.805  71.633  1.00  0.00    -0.035 C  
HETATM    5  C   UNL     1      -7.438   7.514  71.269  1.00  0.00    -0.079 C  
HETATM    6  C   UNL     1      -8.262   8.747  71.585  1.00  0.00    -0.110 C  
HETATM    7  C   UNL     1      -7.630   7.186  69.786  1.00  0.00    -0.103 C  
HETATM    8  N   UNL     1      -8.862   6.616  69.370  1.00  0.00    -0.134 N  
HETATM    9  O   UNL     1      -6.745   7.571  69.009  1.00  0.00    -0.046 OA 
HETATM   10  O   UNL     1      -9.062   8.802  72.508  1.00  0.00    -0.367 OA 
HETATM   11  O   UNL     1      -8.015   9.802  70.780  1.00  0.00    -0.288 OA 
BRANCH   8  12
HETATM   12  C   UNL     1      -9.917   6.331  70.294  1.00  0.00    -0.173 A  
HETATM   13  C   UNL     1      -9.714   5.344  71.269  1.00  0.00    -0.215 A  
HETATM   14  C   UNL     1     -11.128   7.042  70.282  1.00  0.00    -0.323 A  
HETATM   15  C   UNL     1     -10.696   5.108  72.241  1.00  0.00    -0.266 A  
HETATM   16  C   UNL     1     -11.876   5.849  72.249  1.00  0.00    -0.266 A  
HETATM   17  C   UNL     1     -12.092   6.815  71.264  1.00  0.00    -0.421 A  
ENDBRANCH   8  12
BRANCH   8  18
HETATM   18  N   UNL     1      -9.372   6.961  68.071  1.00  0.00    -0.124 NA 
HETATM   19  H   UNL     1      -9.791   7.878  67.920  1.00  0.00     0.000 HD 
BRANCH  18  20
HETATM   20  C   UNL     1      -9.298   6.038  66.998  1.00  0.00    -0.122 A  
HETATM   21  C   UNL     1      -8.155   4.854  65.208  1.00  0.00    -0.115 A  
HETATM   22  C   UNL     1      -9.352   4.275  64.799  1.00  0.00    -0.163 A  
HETATM   23  C   UNL     1      -8.122   5.697  66.326  1.00  0.00    -0.107 A  
HETATM   24  C   UNL     1     -10.511   4.498  65.534  1.00  0.00    -0.241 A  
HETATM   25  C   UNL     1     -10.476   5.361  66.634  1.00  0.00    -0.356 A  
ENDBRANCH  18  20
ENDBRANCH   8  18
ENDBRANCH   3   4
ENDBRANCH   2   3
TORSDOF 5
ENDMDL
MODEL      141
REMARK 921   NORMALIZED FREE ENERGY PREDICTED BY IDOCK:   -3.17 KCAL/MOL
REMARK 922        TOTAL FREE ENERGY PREDICTED BY IDOCK:   -5.10 KCAL/MOL
REMARK 923 INTER-LIGAND FREE ENERGY PREDICTED BY IDOCK:   -4.92 KCAL/MOL
REMARK 924 INTRA-LIGAND FREE ENERGY PREDICTED BY IDOCK:   -0.19 KCAL/MOL
REMARK 927      BINDING AFFINITY PREDICTED BY RF-SCORE:    0.00 PKD
ROOT
HETATM    1  C   UNL     1      -6.222   5.501  64.686  1.00  0.00    -0.022 C  
HETATM    2  C   UNL     1      -7.596   5.801  65.270  1.00  0.00    -0.085 C  
ENDROOT
BRANCH   2   3
HETATM    3  C   UNL     1      -7.698   7.264  65.706  1.00  0.00    -0.099 C  
BRANCH   3   4
HETATM    4  C   UNL     1      -7.381   7.463  67.197  1.00  0.00    -0.097 C  
HETATM    5  C   UNL     1      -8.446   8.316  67.931  1.00  0.00    -0.132 C  
HETATM    6  C   UNL     1      -9.792   7.637  67.778  1.00  0.00    -0.158 C  
HETATM    7  C   UNL     1      -8.159   8.463  69.428  1.00  0.00    -0.114 C  
HETATM    8  N   UNL     1      -8.872   9.446  70.163  1.00  0.00    -0.204 N  
HETATM    9  O   UNL     1      -7.417   7.613  69.942  1.00  0.00    -0.079 OA 
HETATM   10  O   UNL     1     -10.693   8.082  67.083  1.00  0.00    -0.322 OA 
HETATM   11  O   UNL     1      -9.906   6.471  68.450  1.00  0.00    -0.134 OA 
BRANCH   8  12
HETATM   12  C   UNL     1      -9.836  10.304  69.545  1.00  0.00    -0.220 A  
HETATM   13  C   UNL     1     -11.175  10.225  69.956  1.00  0.00    -0.376 A  
HETATM   14  C   UNL     1      -9.475  11.253  68.575  1.00  0.00    -0.191 A  
HETATM   15  C   UNL     1     -12.123  11.115  69.432  1.00  0.00    -0.396 A  
HETATM   16  C   UNL     1     -11.745  12.083  68.502  1.00  0.00    -0.387 A  
HETATM   17  C   UNL     1     -10.418  12.148  68.072  1.00  0.00    -0.227 A  
ENDBRANCH   8  12
BRANCH   8  18
HETATM   18  N   UNL     1      -9.210   9.166  71.532  1.00  0.00    -0.321 NA 
HETATM   19  H   UNL     1      -9.146   9.907  72.230  1.00  0.00     0.000 HD 
BRANCH  18  20
HETATM   20  C   UNL     1      -9.630   7.871  71.921  1.00  0.00    -0.173 A  
HETATM   21  C   UNL     1      -9.310   5.678  72.922  1.00  0.00    -0.144 A  
HETATM   22  C   UNL     1     -10.576   5.279  72.503  1.00  0.00    -0.276 A  
HETATM   23  C   UNL     1      -8.858   6.979  72.669  1.00  0.00    -0.140 A  
HETATM   24  C   UNL     1     -11.411   6.194  71.872  1.00  0.00    -0.355 A  
HETATM   25  C   UNL     1     -10.944   7.484  71.600  1.00  0.00    -0.263 A  
ENDBRANCH  18  20
ENDBRANCH   8  18
ENDBRANCH   3   4
ENDBRANCH   2   3
TORSDOF 5
ENDMDL
MODEL      142
REMARK 921   NORMALIZED FREE ENERGY PREDICTED BY IDOCK:   -3.17 KCAL/MOL
REMARK 922        TOTAL FREE ENERGY PREDICTED BY IDOCK:   -5.10 KCAL/MOL
REMARK 923 INTER-LIGAND FREE ENERGY PREDICTED BY IDOCK:   -4.45 KCAL/MOL
REMARK 924 INTRA-LIGAND FREE ENERGY PREDICTED BY IDOCK:   -0.65 KCAL/MOL
REMARK 927      BINDING AFFINITY PREDICTED BY RF-SCORE:    0.00 PKD
ROOT
HETATM    1  C   UNL     1     -12.086  14.521  64.299  1.00  0.00    -0.448 C  
HETATM    2  C   UNL     1     -12.873  14.034  65.510  1.00  0.00    -0.453 C  
ENDROOT
BRANCH   2   3
HETATM    3  C   UNL     1     -11.982  13.216  66.447  1.00  0.00    -0.462 C  
BRANCH   3   4
HETATM    4  C   UNL     1     -11.163  12.146  65.707  1.00  0.00    -0.384 C  
HETATM    5  C   UNL     1      -9.929  11.668  66.511  1.00  0.00    -0.230 C  
HETATM    6  C   UNL     1     -10.408  11.120  67.841  1.00  0.00    -0.185 C  
HETATM    7  C   UNL     1      -9.148  10.560  65.798  1.00  0.00    -0.179 C  
HETATM    8  N   UNL     1      -7.849  10.235  66.267  1.00  0.00    -0.113 N  
HETATM    9  O   UNL     1      -9.759   9.912  64.935  1.00  0.00    -0.302 OA 
HETATM   10  O   UNL     1     -10.213  11.682  68.908  1.00  0.00    -0.198 OA 
HETATM   11  O   UNL     1     -11.102   9.965  67.749  1.00  0.00    -0.269 OA 
BRANCH   8  12
HETATM   12  C   UNL     1      -7.248  10.916  67.372  1.00  0.00    -0.094 A  
HETATM   13  C   UNL     1      -6.852  12.252  67.210  1.00  0.00    -0.140 A  
HETATM   14  C   UNL     1      -7.087  10.303  68.626  1.00  0.00    -0.075 A  
HETATM   15  C   UNL     1      -6.344  12.969  68.302  1.00  0.00    -0.089 A  
HETATM   16  C   UNL     1      -6.230  12.366  69.554  1.00  0.00    -0.126 A  
HETATM   17  C   UNL     1      -6.600  11.029  69.713  1.00  0.00    -0.143 A  
ENDBRANCH   8  12
BRANCH   8  18
HETATM   18  N   UNL     1      -7.414   8.867  66.186  1.00  0.00    -0.090 NA 
HETATM   19  H   UNL     1      -7.335   8.311  67.038  1.00  0.00     0.000 HD 
BRANCH  18  20
HETATM   20  C   UNL     1      -7.096   8.283  64.935  1.00  0.00    -0.079 A  
HETATM   21  C   UNL     1      -6.145   8.294  62.697  1.00  0.00    -0.086 A  
HETATM   22  C   UNL     1      -6.662   7.026  62.449  1.00  0.00    -0.052 A  
HETATM   23  C   UNL     1      -6.325   8.900  63.947  1.00  0.00    -0.086 A  
HETATM   24  C   UNL     1      -7.320   6.341  63.465  1.00  0.00    -0.068 A  
HETATM   25  C   UNL     1      -7.519   6.962  64.702  1.00  0.00    -0.098 A  
ENDBRANCH  18  20
ENDBRANCH   8  18
ENDBRANCH   3   4
ENDBRANCH   2   3
TORSDOF 5
ENDMDL
MODEL      143
REMARK 921   NORMALIZED FREE ENERGY PREDICTED BY IDOCK:   -3.14 KCAL/MOL
REMARK 922        TOTAL FREE ENERGY PREDICTED BY IDOCK:   -5.06 KCAL/MOL
REMARK 923 INTER-LIGAND FREE ENERGY PREDICTED BY IDOCK:   -5.31 KCAL/MOL
REMARK 924 INTRA-LIGAND FREE ENERGY PREDICTED BY IDOCK:    0.25 KCAL/MOL
REMARK 927      BINDING AFFINITY PREDICTED BY RF-SCORE:    0.00 PKD
ROOT
HETATM    1  C   UNL     1     -10.077   4.676  66.111  1.00  0.00    -0.291 C  
HETATM    2  C   UNL     1      -8.886   5.169  65.299  1.00  0.00    -0.152 C  
ENDROOT
BRANCH   2   3
HETATM    3  C   UNL     1      -8.066   6.188  66.094  1.00  0.00    -0.115 C  
BRANCH   3   4
HETATM    4  C   UNL     1      -8.757   6.621  67.397  1.00  0.00    -0.118 C  
HETATM    5  C   UNL     1      -8.681   8.149  67.641  1.00  0.00    -0.130 C  
HETATM    6  C   UNL     1      -9.319   8.854  66.460  1.00  0.00    -0.195 C  
HETATM    7  C   UNL     1      -9.421   8.585  68.908  1.00  0.00    -0.147 C  
HETATM    8  N   UNL     1      -9.192   9.892  69.413  1.00  0.00    -0.200 N  
HETATM    9  O   UNL     1     -10.291   7.816  69.341  1.00  0.00    -0.210 OA 
HETATM   10  O   UNL     1      -8.684   9.497  65.638  1.00  0.00    -0.134 OA 
HETATM   11  O   UNL     1     -10.656   8.688  66.370  1.00  0.00    -0.115 OA 
BRANCH   8  12
HETATM   12  C   UNL     1      -8.286  10.802  68.780  1.00  0.00    -0.147 A  
HETATM   13  C   UNL     1      -8.804  11.939  68.142  1.00  0.00    -0.178 A  
HETATM   14  C   UNL     1      -6.895  10.614  68.819  1.00  0.00    -0.062 A  
HETATM   15  C   UNL     1      -7.934  12.891  67.593  1.00  0.00    -0.167 A  
HETATM   16  C   UNL     1      -6.553  12.718  67.676  1.00  0.00    -0.150 A  
HETATM   17  C   UNL     1      -6.035  11.575  68.288  1.00  0.00    -0.045 A  
ENDBRANCH   8  12
BRANCH   8  18
HETATM   18  N   UNL     1     -10.282  10.583  70.046  1.00  0.00    -0.434 NA 
HETATM   19  H   UNL     1     -10.406  11.583  69.890  1.00  0.00     0.000 HD 
BRANCH  18  20
HETATM   20  C   UNL     1     -11.186   9.887  70.887  1.00  0.00    -0.360 A  
HETATM   21  C   UNL     1     -11.763   8.302  72.638  1.00  0.00    -0.406 A  
HETATM   22  C   UNL     1     -13.119   8.482  72.383  1.00  0.00    -0.338 A  
HETATM   23  C   UNL     1     -10.805   9.031  71.923  1.00  0.00    -0.413 A  
HETATM   24  C   UNL     1     -13.523   9.427  71.446  1.00  0.00    -0.403 A  
HETATM   25  C   UNL     1     -12.561  10.133  70.717  1.00  0.00    -0.406 A  
ENDBRANCH  18  20
ENDBRANCH   8  18
ENDBRANCH   3   4
ENDBRANCH   2   3
TORSDOF 5
ENDMDL
MODEL      144
REMARK 921   NORMALIZED FREE ENERGY PREDICTED BY IDOCK:   -3.14 KCAL/MOL
REMARK 922        TOTAL FREE ENERGY PREDICTED BY IDOCK:   -5.06 KCAL/MOL
REMARK 923 INTER-LIGAND FREE ENERGY PREDICTED BY IDOCK:   -4.29 KCAL/MOL
REMARK 924 INTRA-LIGAND FREE ENERGY PREDICTED BY IDOCK:   -0.77 KCAL/MOL
REMARK 927      BINDING AFFINITY PREDICTED BY RF-SCORE:    0.00 PKD
ROOT
HETATM    1  C   UNL     1      -9.844   3.880  74.313  1.00  0.00    -0.165 C  
HETATM    2  C   UNL     1      -8.637   3.724  73.396  1.00  0.00    -0.087 C  
ENDROOT
BRANCH   2   3
HETATM    3  C   UNL     1      -7.525   4.700  73.784  1.00  0.00    -0.086 C  
BRANCH   3   4
HETATM    4  C   UNL     1      -7.210   5.715  72.674  1.00  0.00    -0.090 C  
HETATM    5  C   UNL     1      -8.373   6.707  72.417  1.00  0.00    -0.106 C  
HETATM    6  C   UNL     1      -8.674   7.437  73.710  1.00  0.00    -0.197 C  
HETATM    7  C   UNL     1      -8.035   7.754  71.351  1.00  0.00    -0.095 C  
HETATM    8  N   UNL     1      -9.089   8.532  70.805  1.00  0.00    -0.154 N  
HETATM    9  O   UNL     1      -6.833   7.959  71.130  1.00  0.00    -0.044 OA 
HETATM   10  O   UNL     1      -9.690   7.252  74.364  1.00  0.00    -0.163 OA 
HETATM   11  O   UNL     1      -7.707   8.292  74.105  1.00  0.00    -0.197 OA 
BRANCH   8  12
HETATM   12  C   UNL     1     -10.450   8.358  71.212  1.00  0.00    -0.216 A  
HETATM   13  C   UNL     1     -11.023   7.080  71.131  1.00  0.00    -0.275 A  
HETATM   14  C   UNL     1     -11.212   9.416  71.733  1.00  0.00    -0.359 A  
HETATM   15  C   UNL     1     -12.324   6.864  71.606  1.00  0.00    -0.413 A  
HETATM   16  C   UNL     1     -13.056   7.911  72.163  1.00  0.00    -0.187 A  
HETATM   17  C   UNL     1     -12.499   9.190  72.222  1.00  0.00    -0.403 A  
ENDBRANCH   8  12
BRANCH   8  18
HETATM   18  N   UNL     1      -8.814   9.894  70.437  1.00  0.00    -0.315 NA 
HETATM   19  H   UNL     1      -8.808  10.620  71.153  1.00  0.00     0.000 HD 
BRANCH  18  20
HETATM   20  C   UNL     1      -8.553  10.238  69.088  1.00  0.00    -0.164 A  
HETATM   21  C   UNL     1      -7.989   9.741  66.775  1.00  0.00    -0.105 A  
HETATM   22  C   UNL     1      -7.921  11.099  66.478  1.00  0.00    -0.158 A  
HETATM   23  C   UNL     1      -8.344   9.314  68.061  1.00  0.00    -0.120 A  
HETATM   24  C   UNL     1      -8.255  12.033  67.452  1.00  0.00    -0.168 A  
HETATM   25  C   UNL     1      -8.583  11.601  68.741  1.00  0.00    -0.023 A  
ENDBRANCH  18  20
ENDBRANCH   8  18
ENDBRANCH   3   4
ENDBRANCH   2   3
TORSDOF 5
ENDMDL
MODEL      145
REMARK 921   NORMALIZED FREE ENERGY PREDICTED BY IDOCK:   -3.10 KCAL/MOL
REMARK 922        TOTAL FREE ENERGY PREDICTED BY IDOCK:   -5.01 KCAL/MOL
REMARK 923 INTER-LIGAND FREE ENERGY PREDICTED BY IDOCK:   -4.12 KCAL/MOL
REMARK 924 INTRA-LIGAND FREE ENERGY PREDICTED BY IDOCK:   -0.89 KCAL/MOL
REMARK 927      BINDING AFFINITY PREDICTED BY RF-SCORE:    0.00 PKD
ROOT
HETATM    1  C   UNL     1      -8.202   7.524  74.395  1.00  0.00    -0.248 C  
HETATM    2  C   UNL     1      -9.580   7.471  73.749  1.00  0.00    -0.321 C  
ENDROOT
BRANCH   2   3
HETATM    3  C   UNL     1      -9.547   6.657  72.453  1.00  0.00    -0.154 C  
BRANCH   3   4
HETATM    4  C   UNL     1      -9.541   7.541  71.196  1.00  0.00    -0.164 C  
HETATM    5  C   UNL     1      -9.343   6.730  69.890  1.00  0.00    -0.157 C  
HETATM    6  C   UNL     1     -10.452   5.703  69.792  1.00  0.00    -0.306 C  
HETATM    7  C   UNL     1      -9.397   7.605  68.635  1.00  0.00    -0.147 C  
HETATM    8  N   UNL     1      -8.943   7.059  67.406  1.00  0.00    -0.117 N  
HETATM    9  O   UNL     1      -9.970   8.699  68.739  1.00  0.00    -0.172 OA 
HETATM   10  O   UNL     1     -10.270   4.502  69.929  1.00  0.00    -0.208 OA 
HETATM   11  O   UNL     1     -11.677   6.226  69.570  1.00  0.00    -0.360 OA 
BRANCH   8  12
HETATM   12  C   UNL     1      -8.430   5.726  67.312  1.00  0.00    -0.107 A  
HETATM   13  C   UNL     1      -9.148   4.775  66.571  1.00  0.00    -0.121 A  
HETATM   14  C   UNL     1      -7.208   5.355  67.898  1.00  0.00    -0.072 A  
HETATM   15  C   UNL     1      -8.623   3.488  66.389  1.00  0.00    -0.117 A  
HETATM   16  C   UNL     1      -7.388   3.143  66.937  1.00  0.00    -0.070 A  
HETATM   17  C   UNL     1      -6.683   4.080  67.696  1.00  0.00    -0.047 A  
ENDBRANCH   8  12
BRANCH   8  18
HETATM   18  N   UNL     1      -9.601   7.462  66.193  1.00  0.00    -0.411 NA 
HETATM   19  H   UNL     1     -10.552   7.145  66.004  1.00  0.00     0.000 HD 
BRANCH  18  20
HETATM   20  C   UNL     1      -8.940   8.294  65.256  1.00  0.00     0.045 A  
HETATM   21  C   UNL     1      -7.254   8.781  63.573  1.00  0.00    -0.094 A  
HETATM   22  C   UNL     1      -7.644  10.117  63.538  1.00  0.00    -0.138 A  
HETATM   23  C   UNL     1      -7.926   7.868  64.396  1.00  0.00    -0.132 A  
HETATM   24  C   UNL     1      -8.738  10.533  64.290  1.00  0.00    -0.184 A  
HETATM   25  C   UNL     1      -9.388   9.622  65.128  1.00  0.00    -0.322 A  
ENDBRANCH  18  20
ENDBRANCH   8  18
ENDBRANCH   3   4
ENDBRANCH   2   3
TORSDOF 5
ENDMDL
MODEL      146
REMARK 921   NORMALIZED FREE ENERGY PREDICTED BY IDOCK:   -3.10 KCAL/MOL
REMARK 922        TOTAL FREE ENERGY PREDICTED BY IDOCK:   -5.01 KCAL/MOL
REMARK 923 INTER-LIGAND FREE ENERGY PREDICTED BY IDOCK:   -5.48 KCAL/MOL
REMARK 924 INTRA-LIGAND FREE ENERGY PREDICTED BY IDOCK:    0.48 KCAL/MOL
REMARK 927      BINDING AFFINITY PREDICTED BY RF-SCORE:    0.00 PKD
ROOT
HETATM    1  C   UNL     1      -7.785   2.366  73.739  1.00  0.00    -0.050 C  
HETATM    2  C   UNL     1      -8.341   3.592  73.027  1.00  0.00    -0.086 C  
ENDROOT
BRANCH   2   3
HETATM    3  C   UNL     1      -7.531   3.908  71.768  1.00  0.00    -0.056 C  
BRANCH   3   4
HETATM    4  C   UNL     1      -8.394   3.933  70.496  1.00  0.00    -0.083 C  
HETATM    5  C   UNL     1      -9.247   5.220  70.372  1.00  0.00    -0.190 C  
HETATM    6  C   UNL     1      -8.315   6.416  70.384  1.00  0.00    -0.126 C  
HETATM    7  C   UNL     1     -10.061   5.270  69.075  1.00  0.00    -0.202 C  
HETATM    8  N   UNL     1     -11.099   6.231  68.962  1.00  0.00    -0.371 N  
HETATM    9  O   UNL     1      -9.669   4.556  68.141  1.00  0.00    -0.155 OA 
HETATM   10  O   UNL     1      -8.241   7.200  71.318  1.00  0.00    -0.107 OA 
HETATM   11  O   UNL     1      -7.541   6.529  69.283  1.00  0.00    -0.095 OA 
BRANCH   8  12
HETATM   12  C   UNL     1     -11.411   7.141  70.022  1.00  0.00    -0.206 A  
HETATM   13  C   UNL     1     -10.868   8.434  69.986  1.00  0.00    -0.225 A  
HETATM   14  C   UNL     1     -12.280   6.793  71.070  1.00  0.00    -0.405 A  
HETATM   15  C   UNL     1     -11.228   9.372  70.963  1.00  0.00    -0.412 A  
HETATM   16  C   UNL     1     -12.126   9.031  71.974  1.00  0.00    -0.440 A  
HETATM   17  C   UNL     1     -12.649   7.737  72.027  1.00  0.00    -0.298 A  
ENDBRANCH   8  12
BRANCH   8  18
HETATM   18  N   UNL     1     -11.358   6.810  67.671  1.00  0.00    -0.667 NA 
HETATM   19  H   UNL     1     -12.237   6.609  67.194  1.00  0.00     0.000 HD 
BRANCH  18  20
HETATM   20  C   UNL     1     -10.404   7.657  67.056  1.00  0.00    -0.330 A  
HETATM   21  C   UNL     1      -8.437   8.111  65.700  1.00  0.00    -0.170 A  
HETATM   22  C   UNL     1      -8.505   9.464  66.017  1.00  0.00    -0.132 A  
HETATM   23  C   UNL     1      -9.405   7.221  66.183  1.00  0.00    -0.101 A  
HETATM   24  C   UNL     1      -9.569   9.940  66.777  1.00  0.00    -0.231 A  
HETATM   25  C   UNL     1     -10.517   9.042  67.277  1.00  0.00    -0.343 A  
ENDBRANCH  18  20
ENDBRANCH   8  18
ENDBRANCH   3   4
ENDBRANCH   2   3
TORSDOF 5
ENDMDL
MODEL      147
REMARK 921   NORMALIZED FREE ENERGY PREDICTED BY IDOCK:   -3.09 KCAL/MOL
REMARK 922        TOTAL FREE ENERGY PREDICTED BY IDOCK:   -5.00 KCAL/MOL
REMARK 923 INTER-LIGAND FREE ENERGY PREDICTED BY IDOCK:   -4.23 KCAL/MOL
REMARK 924 INTRA-LIGAND FREE ENERGY PREDICTED BY IDOCK:   -0.77 KCAL/MOL
REMARK 927      BINDING AFFINITY PREDICTED BY RF-SCORE:    0.00 PKD
ROOT
HETATM    1  C   UNL     1     -11.571  13.725  65.650  1.00  0.00    -0.339 C  
HETATM    2  C   UNL     1     -11.669  12.536  66.597  1.00  0.00    -0.453 C  
ENDROOT
BRANCH   2   3
HETATM    3  C   UNL     1     -10.874  11.343  66.061  1.00  0.00    -0.306 C  
BRANCH   3   4
HETATM    4  C   UNL     1      -9.542  11.136  66.800  1.00  0.00    -0.215 C  
HETATM    5  C   UNL     1      -9.596   9.979  67.829  1.00  0.00    -0.168 C  
HETATM    6  C   UNL     1      -9.983   8.708  67.099  1.00  0.00    -0.231 C  
HETATM    7  C   UNL     1      -8.252   9.737  68.520  1.00  0.00    -0.106 C  
HETATM    8  N   UNL     1      -8.222   8.920  69.681  1.00  0.00    -0.109 N  
HETATM    9  O   UNL     1      -7.240  10.155  67.939  1.00  0.00    -0.084 OA 
HETATM   10  O   UNL     1     -11.067   8.160  67.233  1.00  0.00    -0.015 OA 
HETATM   11  O   UNL     1      -9.037   8.241  66.256  1.00  0.00    -0.167 OA 
BRANCH   8  12
HETATM   12  C   UNL     1      -9.408   8.332  70.225  1.00  0.00    -0.159 A  
HETATM   13  C   UNL     1     -10.360   9.164  70.833  1.00  0.00    -0.349 A  
HETATM   14  C   UNL     1      -9.669   6.955  70.127  1.00  0.00    -0.175 A  
HETATM   15  C   UNL     1     -11.569   8.626  71.294  1.00  0.00    -0.340 A  
HETATM   16  C   UNL     1     -11.837   7.266  71.151  1.00  0.00    -0.345 A  
HETATM   17  C   UNL     1     -10.882   6.429  70.570  1.00  0.00    -0.335 A  
ENDBRANCH   8  12
BRANCH   8  18
HETATM   18  N   UNL     1      -7.067   8.096  69.910  1.00  0.00    -0.058 NA 
HETATM   19  H   UNL     1      -6.582   7.675  69.117  1.00  0.00     0.000 HD 
BRANCH  18  20
HETATM   20  C   UNL     1      -6.597   7.862  71.225  1.00  0.00    -0.041 A  
HETATM   21  C   UNL     1      -5.857   8.550  73.437  1.00  0.00    -0.096 A  
HETATM   22  C   UNL     1      -5.529   7.237  73.759  1.00  0.00    -0.046 A  
HETATM   23  C   UNL     1      -6.426   8.853  72.193  1.00  0.00    -0.010 A  
HETATM   24  C   UNL     1      -5.813   6.216  72.858  1.00  0.00    -0.038 A  
HETATM   25  C   UNL     1      -6.358   6.529  71.608  1.00  0.00    -0.042 A  
ENDBRANCH  18  20
ENDBRANCH   8  18
ENDBRANCH   3   4
ENDBRANCH   2   3
TORSDOF 5
ENDMDL
MODEL      148
REMARK 921   NORMALIZED FREE ENERGY PREDICTED BY IDOCK:   -3.05 KCAL/MOL
REMARK 922        TOTAL FREE ENERGY PREDICTED BY IDOCK:   -4.94 KCAL/MOL
REMARK 923 INTER-LIGAND FREE ENERGY PREDICTED BY IDOCK:   -4.10 KCAL/MOL
REMARK 924 INTRA-LIGAND FREE ENERGY PREDICTED BY IDOCK:   -0.84 KCAL/MOL
REMARK 927      BINDING AFFINITY PREDICTED BY RF-SCORE:    0.00 PKD
ROOT
HETATM    1  C   UNL     1     -13.608   9.330  71.633  1.00  0.00    -0.448 C  
HETATM    2  C   UNL     1     -12.227   8.801  72.001  1.00  0.00    -0.447 C  
ENDROOT
BRANCH   2   3
HETATM    3  C   UNL     1     -12.149   7.287  71.796  1.00  0.00    -0.353 C  
BRANCH   3   4
HETATM    4  C   UNL     1     -11.779   6.900  70.355  1.00  0.00    -0.377 C  
HETATM    5  C   UNL     1     -10.427   7.503  69.898  1.00  0.00    -0.232 C  
HETATM    6  C   UNL     1      -9.346   7.032  70.850  1.00  0.00    -0.157 C  
HETATM    7  C   UNL     1     -10.032   7.069  68.483  1.00  0.00    -0.155 C  
HETATM    8  N   UNL     1      -8.984   7.765  67.827  1.00  0.00    -0.128 N  
HETATM    9  O   UNL     1     -10.560   6.036  68.047  1.00  0.00    -0.211 OA 
HETATM   10  O   UNL     1      -8.790   7.768  71.651  1.00  0.00    -0.114 OA 
HETATM   11  O   UNL     1      -9.067   5.713  70.766  1.00  0.00    -0.144 OA 
BRANCH   8  12
HETATM   12  C   UNL     1      -8.299   8.861  68.442  1.00  0.00    -0.125 A  
HETATM   13  C   UNL     1      -6.990   8.666  68.908  1.00  0.00    -0.062 A  
HETATM   14  C   UNL     1      -8.880  10.135  68.551  1.00  0.00    -0.127 A  
HETATM   15  C   UNL     1      -6.265   9.744  69.433  1.00  0.00    -0.044 A  
HETATM   16  C   UNL     1      -6.835  11.015  69.496  1.00  0.00    -0.133 A  
HETATM   17  C   UNL     1      -8.146  11.208  69.056  1.00  0.00    -0.078 A  
ENDBRANCH   8  12
BRANCH   8  18
HETATM   18  N   UNL     1      -8.122   7.029  66.942  1.00  0.00    -0.115 NA 
HETATM   19  H   UNL     1      -7.769   6.115  67.225  1.00  0.00     0.000 HD 
BRANCH  18  20
HETATM   20  C   UNL     1      -7.758   7.562  65.681  1.00  0.00    -0.100 A  
HETATM   21  C   UNL     1      -6.290   7.825  63.760  1.00  0.00    -0.058 A  
HETATM   22  C   UNL     1      -7.114   8.819  63.240  1.00  0.00    -0.089 A  
HETATM   23  C   UNL     1      -6.633   7.173  64.951  1.00  0.00    -0.043 A  
HETATM   24  C   UNL     1      -8.307   9.130  63.884  1.00  0.00    -0.183 A  
HETATM   25  C   UNL     1      -8.630   8.493  65.086  1.00  0.00    -0.179 A  
ENDBRANCH  18  20
ENDBRANCH   8  18
ENDBRANCH   3   4
ENDBRANCH   2   3
TORSDOF 5
ENDMDL
MODEL      149
REMARK 921   NORMALIZED FREE ENERGY PREDICTED BY IDOCK:   -3.04 KCAL/MOL
REMARK 922        TOTAL FREE ENERGY PREDICTED BY IDOCK:   -4.94 KCAL/MOL
REMARK 923 INTER-LIGAND FREE ENERGY PREDICTED BY IDOCK:   -4.77 KCAL/MOL
REMARK 924 INTRA-LIGAND FREE ENERGY PREDICTED BY IDOCK:   -0.17 KCAL/MOL
REMARK 927      BINDING AFFINITY PREDICTED BY RF-SCORE:    0.00 PKD
ROOT
HETATM    1  C   UNL     1      -7.782   8.271  71.780  1.00  0.00    -0.136 C  
HETATM    2  C   UNL     1      -9.265   8.503  71.517  1.00  0.00    -0.288 C  
ENDROOT
BRANCH   2   3
HETATM    3  C   UNL     1      -9.554   8.544  70.015  1.00  0.00    -0.170 C  
BRANCH   3   4
HETATM    4  C   UNL     1      -9.233   9.909  69.384  1.00  0.00    -0.225 C  
HETATM    5  C   UNL     1      -9.118   9.847  67.840  1.00  0.00    -0.135 C  
HETATM    6  C   UNL     1     -10.426   9.319  67.284  1.00  0.00    -0.264 C  
HETATM    7  C   UNL     1      -8.856  11.218  67.210  1.00  0.00    -0.150 C  
HETATM    8  N   UNL     1      -8.440  11.274  65.854  1.00  0.00    -0.114 N  
HETATM    9  O   UNL     1      -9.163  12.212  67.884  1.00  0.00    -0.175 OA 
HETATM   10  O   UNL     1     -10.543   8.211  66.782  1.00  0.00    -0.313 OA 
HETATM   11  O   UNL     1     -11.469  10.165  67.418  1.00  0.00    -0.212 OA 
BRANCH   8  12
HETATM   12  C   UNL     1      -8.248  10.092  65.070  1.00  0.00    -0.152 A  
HETATM   13  C   UNL     1      -9.047   9.896  63.934  1.00  0.00    -0.298 A  
HETATM   14  C   UNL     1      -7.254   9.148  65.377  1.00  0.00    -0.085 A  
HETATM   15  C   UNL     1      -8.820   8.794  63.099  1.00  0.00     0.123 A  
HETATM   16  C   UNL     1      -7.801   7.886  63.388  1.00  0.00    -0.139 A  
HETATM   17  C   UNL     1      -7.021   8.064  64.532  1.00  0.00    -0.071 A  
ENDBRANCH   8  12
BRANCH   8  18
HETATM   18  N   UNL     1      -8.877  12.381  65.048  1.00  0.00     0.320 NA 
HETATM   19  H   UNL     1      -8.268  12.744  64.315  1.00  0.00     0.000 HD 
BRANCH  18  20
HETATM   20  C   UNL     1     -10.145  12.974  65.264  1.00  0.00    -0.231 A  
HETATM   21  C   UNL     1     -11.634  14.715  66.079  1.00  0.00    -0.328 A  
HETATM   22  C   UNL     1     -12.747  13.951  65.741  1.00  0.00    -0.503 A  
HETATM   23  C   UNL     1     -10.343  14.247  65.803  1.00  0.00    -0.341 A  
HETATM   24  C   UNL     1     -12.574  12.738  65.084  1.00  0.00    -0.513 A  
HETATM   25  C   UNL     1     -11.282  12.264  64.834  1.00  0.00    -0.365 A  
ENDBRANCH  18  20
ENDBRANCH   8  18
ENDBRANCH   3   4
ENDBRANCH   2   3
TORSDOF 5
ENDMDL
MODEL      150
REMARK 921   NORMALIZED FREE ENERGY PREDICTED BY IDOCK:   -2.98 KCAL/MOL
REMARK 922        TOTAL FREE ENERGY PREDICTED BY IDOCK:   -4.86 KCAL/MOL
REMARK 923 INTER-LIGAND FREE ENERGY PREDICTED BY IDOCK:   -4.05 KCAL/MOL
REMARK 924 INTRA-LIGAND FREE ENERGY PREDICTED BY IDOCK:   -0.81 KCAL/MOL
REMARK 927      BINDING AFFINITY PREDICTED BY RF-SCORE:    0.00 PKD
ROOT
HETATM    1  C   UNL     1     -13.282  10.381  71.431  1.00  0.00    -0.459 C  
HETATM    2  C   UNL     1     -12.219   9.498  72.071  1.00  0.00    -0.370 C  
ENDROOT
BRANCH   2   3
HETATM    3  C   UNL     1     -12.655   8.031  72.074  1.00  0.00    -0.346 C  
BRANCH   3   4
HETATM    4  C   UNL     1     -12.253   7.289  70.788  1.00  0.00    -0.256 C  
HETATM    5  C   UNL     1     -10.719   7.134  70.636  1.00  0.00    -0.255 C  
HETATM    6  C   UNL     1     -10.192   6.389  71.846  1.00  0.00    -0.195 C  
HETATM    7  C   UNL     1     -10.324   6.343  69.385  1.00  0.00    -0.209 C  
HETATM    8  N   UNL     1      -8.970   6.374  68.962  1.00  0.00    -0.128 N  
HETATM    9  O   UNL     1     -11.189   5.604  68.895  1.00  0.00    -0.092 OA 
HETATM   10  O   UNL     1      -9.511   6.914  72.714  1.00  0.00    -0.141 OA 
HETATM   11  O   UNL     1     -10.564   5.092  71.907  1.00  0.00    -0.220 OA 
BRANCH   8  12
HETATM   12  C   UNL     1      -7.974   7.127  69.661  1.00  0.00    -0.124 A  
HETATM   13  C   UNL     1      -8.042   8.528  69.636  1.00  0.00    -0.113 A  
HETATM   14  C   UNL     1      -6.958   6.507  70.407  1.00  0.00    -0.064 A  
HETATM   15  C   UNL     1      -7.133   9.288  70.384  1.00  0.00    -0.091 A  
HETATM   16  C   UNL     1      -6.157   8.662  71.158  1.00  0.00    -0.043 A  
HETATM   17  C   UNL     1      -6.069   7.268  71.165  1.00  0.00    -0.036 A  
ENDBRANCH   8  12
BRANCH   8  18
HETATM   18  N   UNL     1      -8.415   5.195  68.354  1.00  0.00    -0.095 NA 
HETATM   19  H   UNL     1      -7.863   4.549  68.916  1.00  0.00     0.000 HD 
BRANCH  18  20
HETATM   20  C   UNL     1      -8.629   4.924  66.980  1.00  0.00    -0.104 A  
HETATM   21  C   UNL     1      -8.480   5.422  64.605  1.00  0.00    -0.126 A  
HETATM   22  C   UNL     1      -9.257   4.307  64.301  1.00  0.00    -0.151 A  
HETATM   23  C   UNL     1      -8.134   5.703  65.932  1.00  0.00    -0.111 A  
HETATM   24  C   UNL     1      -9.649   3.445  65.319  1.00  0.00    -0.116 A  
HETATM   25  C   UNL     1      -9.322   3.746  66.645  1.00  0.00    -0.207 A  
ENDBRANCH  18  20
ENDBRANCH   8  18
ENDBRANCH   3   4
ENDBRANCH   2   3
TORSDOF 5
ENDMDL
MODEL      151
REMARK 921   NORMALIZED FREE ENERGY PREDICTED BY IDOCK:   -2.77 KCAL/MOL
REMARK 922        TOTAL FREE ENERGY PREDICTED BY IDOCK:   -4.59 KCAL/MOL
REMARK 923 INTER-LIGAND FREE ENERGY PREDICTED BY IDOCK:   -4.57 KCAL/MOL
REMARK 924 INTRA-LIGAND FREE ENERGY PREDICTED BY IDOCK:   -0.01 KCAL/MOL
REMARK 927      BINDING AFFINITY PREDICTED BY RF-SCORE:    0.00 PKD
ROOT
HETATM    1  C   UNL     1     -10.486   3.940  64.781  1.00  0.00    -0.164 C  
HETATM    2  C   UNL     1      -9.428   4.560  65.685  1.00  0.00    -0.174 C  
ENDROOT
BRANCH   2   3
HETATM    3  C   UNL     1      -9.538   4.014  67.110  1.00  0.00    -0.231 C  
BRANCH   3   4
HETATM    4  C   UNL     1      -8.595   4.726  68.094  1.00  0.00    -0.106 C  
HETATM    5  C   UNL     1      -9.090   6.142  68.485  1.00  0.00    -0.117 C  
HETATM    6  C   UNL     1     -10.471   6.014  69.097  1.00  0.00    -0.257 C  
HETATM    7  C   UNL     1      -8.180   6.825  69.510  1.00  0.00    -0.131 C  
HETATM    8  N   UNL     1      -8.338   8.218  69.736  1.00  0.00    -0.121 N  
HETATM    9  O   UNL     1      -7.450   6.089  70.189  1.00  0.00    -0.084 OA 
HETATM   10  O   UNL     1     -11.489   6.399  68.541  1.00  0.00    -0.228 OA 
HETATM   11  O   UNL     1     -10.491   5.407  70.302  1.00  0.00    -0.271 OA 
BRANCH   8  12
HETATM   12  C   UNL     1      -9.309   8.996  69.030  1.00  0.00    -0.140 A  
HETATM   13  C   UNL     1     -10.498   9.352  69.684  1.00  0.00    -0.236 A  
HETATM   14  C   UNL     1      -9.088   9.452  67.719  1.00  0.00    -0.134 A  
HETATM   15  C   UNL     1     -11.425  10.188  69.046  1.00  0.00    -0.138 A  
HETATM   16  C   UNL     1     -11.175  10.672  67.763  1.00  0.00    -0.383 A  
HETATM   17  C   UNL     1     -10.005  10.299  67.099  1.00  0.00    -0.243 A  
ENDBRANCH   8  12
BRANCH   8  18
HETATM   18  N   UNL     1      -8.113   8.726  71.062  1.00  0.00    -0.141 NA 
HETATM   19  H   UNL     1      -7.612   9.606  71.187  1.00  0.00     0.000 HD 
BRANCH  18  20
HETATM   20  C   UNL     1      -8.578   8.016  72.196  1.00  0.00    -0.155 A  
HETATM   21  C   UNL     1     -10.264   7.344  73.814  1.00  0.00    -0.321 A  
HETATM   22  C   UNL     1      -9.310   6.649  74.552  1.00  0.00    -0.256 A  
HETATM   23  C   UNL     1      -9.907   7.987  72.622  1.00  0.00    -0.347 A  
HETATM   24  C   UNL     1      -8.007   6.555  74.074  1.00  0.00    -0.111 A  
HETATM   25  C   UNL     1      -7.652   7.221  72.897  1.00  0.00    -0.085 A  
ENDBRANCH  18  20
ENDBRANCH   8  18
ENDBRANCH   3   4
ENDBRANCH   2   3
TORSDOF 5
ENDMDL
MODEL      152
REMARK 921   NORMALIZED FREE ENERGY PREDICTED BY IDOCK:   -2.74 KCAL/MOL
REMARK 922        TOTAL FREE ENERGY PREDICTED BY IDOCK:   -4.54 KCAL/MOL
REMARK 923 INTER-LIGAND FREE ENERGY PREDICTED BY IDOCK:   -3.81 KCAL/MOL
REMARK 924 INTRA-LIGAND FREE ENERGY PREDICTED BY IDOCK:   -0.73 KCAL/MOL
REMARK 927      BINDING AFFINITY PREDICTED BY RF-SCORE:    0.00 PKD
ROOT
HETATM    1  C   UNL     1     -10.370   3.978  64.556  1.00  0.00    -0.221 C  
HETATM    2  C   UNL     1      -9.088   4.763  64.804  1.00  0.00    -0.129 C  
ENDROOT
BRANCH   2   3
HETATM    3  C   UNL     1      -9.014   5.245  66.255  1.00  0.00    -0.133 C  
BRANCH   3   4
HETATM    4  C   UNL     1      -8.070   6.445  66.435  1.00  0.00    -0.112 C  
HETATM    5  C   UNL     1      -8.468   7.352  67.626  1.00  0.00    -0.120 C  
HETATM    6  C   UNL     1      -8.477   6.510  68.887  1.00  0.00    -0.122 C  
HETATM    7  C   UNL     1      -7.493   8.513  67.840  1.00  0.00    -0.097 C  
HETATM    8  N   UNL     1      -7.883   9.579  68.692  1.00  0.00    -0.084 N  
HETATM    9  O   UNL     1      -6.356   8.383  67.365  1.00  0.00    -0.055 OA 
HETATM   10  O   UNL     1      -9.500   6.198  69.479  1.00  0.00    -0.139 OA 
HETATM   11  O   UNL     1      -7.255   6.100  69.290  1.00  0.00    -0.077 OA 
BRANCH   8  12
HETATM   12  C   UNL     1      -9.157   9.604  69.342  1.00  0.00    -0.188 A  
HETATM   13  C   UNL     1      -9.240   9.210  70.686  1.00  0.00    -0.310 A  
HETATM   14  C   UNL     1     -10.317  10.054  68.690  1.00  0.00    -0.211 A  
HETATM   15  C   UNL     1     -10.458   9.310  71.372  1.00  0.00    -0.408 A  
HETATM   16  C   UNL     1     -11.594   9.800  70.729  1.00  0.00    -0.417 A  
HETATM   17  C   UNL     1     -11.522  10.169  69.384  1.00  0.00    -0.202 A  
ENDBRANCH   8  12
BRANCH   8  18
HETATM   18  N   UNL     1      -6.872  10.231  69.479  1.00  0.00    -0.071 NA 
HETATM   19  H   UNL     1      -6.306   9.685  70.128  1.00  0.00     0.000 HD 
BRANCH  18  20
HETATM   20  C   UNL     1      -6.655  11.626  69.363  1.00  0.00    -0.115 A  
HETATM   21  C   UNL     1      -6.925  13.800  68.306  1.00  0.00    -0.109 A  
HETATM   22  C   UNL     1      -6.012  14.367  69.191  1.00  0.00    -0.091 A  
HETATM   23  C   UNL     1      -7.275  12.448  68.420  1.00  0.00    -0.110 A  
HETATM   24  C   UNL     1      -5.483  13.596  70.221  1.00  0.00    -0.123 A  
HETATM   25  C   UNL     1      -5.817  12.241  70.312  1.00  0.00    -0.166 A  
ENDBRANCH  18  20
ENDBRANCH   8  18
ENDBRANCH   3   4
ENDBRANCH   2   3
TORSDOF 5
ENDMDL
MODEL      153
REMARK 921   NORMALIZED FREE ENERGY PREDICTED BY IDOCK:   -2.73 KCAL/MOL
REMARK 922        TOTAL FREE ENERGY PREDICTED BY IDOCK:   -4.53 KCAL/MOL
REMARK 923 INTER-LIGAND FREE ENERGY PREDICTED BY IDOCK:   -4.78 KCAL/MOL
REMARK 924 INTRA-LIGAND FREE ENERGY PREDICTED BY IDOCK:    0.25 KCAL/MOL
REMARK 927      BINDING AFFINITY PREDICTED BY RF-SCORE:    0.00 PKD
ROOT
HETATM    1  C   UNL     1      -9.943  11.296  64.706  1.00  0.00    -0.327 C  
HETATM    2  C   UNL     1      -9.548  11.989  66.003  1.00  0.00    -0.247 C  
ENDROOT
BRANCH   2   3
HETATM    3  C   UNL     1     -10.338  11.427  67.187  1.00  0.00    -0.247 C  
BRANCH   3   4
HETATM    4  C   UNL     1     -10.648   9.928  67.037  1.00  0.00    -0.272 C  
HETATM    5  C   UNL     1      -9.796   9.040  67.978  1.00  0.00    -0.197 C  
HETATM    6  C   UNL     1     -10.049   9.477  69.407  1.00  0.00    -0.198 C  
HETATM    7  C   UNL     1     -10.148   7.553  67.869  1.00  0.00    -0.182 C  
HETATM    8  N   UNL     1      -9.264   6.602  68.442  1.00  0.00    -0.124 N  
HETATM    9  O   UNL     1     -11.264   7.275  67.408  1.00  0.00    -0.145 OA 
HETATM   10  O   UNL     1      -9.218  10.059  70.088  1.00  0.00    -0.189 OA 
HETATM   11  O   UNL     1     -11.288   9.197  69.863  1.00  0.00    -0.166 OA 
BRANCH   8  12
HETATM   12  C   UNL     1      -8.056   6.991  69.102  1.00  0.00    -0.121 A  
HETATM   13  C   UNL     1      -8.019   6.986  70.505  1.00  0.00    -0.113 A  
HETATM   14  C   UNL     1      -6.894   7.332  68.390  1.00  0.00    -0.073 A  
HETATM   15  C   UNL     1      -6.823   7.276  71.175  1.00  0.00    -0.055 A  
HETATM   16  C   UNL     1      -5.664   7.569  70.459  1.00  0.00    -0.027 A  
HETATM   17  C   UNL     1      -5.702   7.600  69.063  1.00  0.00    -0.026 A  
ENDBRANCH   8  12
BRANCH   8  18
HETATM   18  N   UNL     1      -9.821   5.406  69.013  1.00  0.00    -0.154 NA 
HETATM   19  H   UNL     1      -9.830   4.544  68.469  1.00  0.00     0.000 HD 
BRANCH  18  20
HETATM   20  C   UNL     1     -10.357   5.415  70.324  1.00  0.00    -0.287 A  
HETATM   21  C   UNL     1     -11.724   6.318  72.121  1.00  0.00    -0.368 A  
HETATM   22  C   UNL     1     -11.223   5.370  73.007  1.00  0.00    -0.370 A  
HETATM   23  C   UNL     1     -11.325   6.313  70.778  1.00  0.00    -0.397 A  
HETATM   24  C   UNL     1     -10.358   4.384  72.543  1.00  0.00    -0.252 A  
HETATM   25  C   UNL     1      -9.943   4.401  71.208  1.00  0.00    -0.245 A  
ENDBRANCH  18  20
ENDBRANCH   8  18
ENDBRANCH   3   4
ENDBRANCH   2   3
TORSDOF 5
ENDMDL
MODEL      154
REMARK 921   NORMALIZED FREE ENERGY PREDICTED BY IDOCK:   -2.71 KCAL/MOL
REMARK 922        TOTAL FREE ENERGY PREDICTED BY IDOCK:   -4.51 KCAL/MOL
REMARK 923 INTER-LIGAND FREE ENERGY PREDICTED BY IDOCK:   -3.55 KCAL/MOL
REMARK 924 INTRA-LIGAND FREE ENERGY PREDICTED BY IDOCK:   -0.96 KCAL/MOL
REMARK 927      BINDING AFFINITY PREDICTED BY RF-SCORE:    0.00 PKD
ROOT
HETATM    1  C   UNL     1      -6.543   6.190  64.324  1.00  0.00    -0.034 C  
HETATM    2  C   UNL     1      -6.155   5.047  65.253  1.00  0.00    -0.030 C  
ENDROOT
BRANCH   2   3
HETATM    3  C   UNL     1      -7.359   4.149  65.548  1.00  0.00    -0.076 C  
BRANCH   3   4
HETATM    4  C   UNL     1      -7.835   4.252  67.006  1.00  0.00    -0.097 C  
HETATM    5  C   UNL     1      -8.537   5.598  67.316  1.00  0.00    -0.109 C  
HETATM    6  C   UNL     1      -9.717   5.750  66.377  1.00  0.00    -0.147 C  
HETATM    7  C   UNL     1      -9.063   5.675  68.752  1.00  0.00    -0.118 C  
HETATM    8  N   UNL     1      -9.460   6.939  69.263  1.00  0.00    -0.147 N  
HETATM    9  O   UNL     1      -9.246   4.599  69.340  1.00  0.00    -0.100 OA 
HETATM   10  O   UNL     1      -9.749   6.561  65.464  1.00  0.00     0.422 OA 
HETATM   11  O   UNL     1     -10.729   4.887  66.611  1.00  0.00    -0.223 OA 
BRANCH   8  12
HETATM   12  C   UNL     1      -9.371   8.135  68.483  1.00  0.00    -0.138 A  
HETATM   13  C   UNL     1      -8.102   8.642  68.163  1.00  0.00    -0.115 A  
HETATM   14  C   UNL     1     -10.512   8.789  67.990  1.00  0.00    -0.260 A  
HETATM   15  C   UNL     1      -7.986   9.760  67.326  1.00  0.00    -0.106 A  
HETATM   16  C   UNL     1      -9.123  10.375  66.805  1.00  0.00    -0.161 A  
HETATM   17  C   UNL     1     -10.388   9.889  67.142  1.00  0.00    -0.304 A  
ENDBRANCH   8  12
BRANCH   8  18
HETATM   18  N   UNL     1     -10.558   6.989  70.189  1.00  0.00    -0.221 NA 
HETATM   19  H   UNL     1     -11.507   7.120  69.840  1.00  0.00     0.000 HD 
BRANCH  18  20
HETATM   20  C   UNL     1     -10.334   6.858  71.582  1.00  0.00    -0.199 A  
HETATM   21  C   UNL     1     -10.697   5.860  73.770  1.00  0.00    -0.219 A  
HETATM   22  C   UNL     1      -9.884   6.820  74.365  1.00  0.00    -0.318 A  
HETATM   23  C   UNL     1     -10.886   5.855  72.382  1.00  0.00    -0.288 A  
HETATM   24  C   UNL     1      -9.220   7.748  73.570  1.00  0.00    -0.350 A  
HETATM   25  C   UNL     1      -9.433   7.753  72.188  1.00  0.00    -0.216 A  
ENDBRANCH  18  20
ENDBRANCH   8  18
ENDBRANCH   3   4
ENDBRANCH   2   3
TORSDOF 5
ENDMDL
MODEL      155
REMARK 921   NORMALIZED FREE ENERGY PREDICTED BY IDOCK:   -2.69 KCAL/MOL
REMARK 922        TOTAL FREE ENERGY PREDICTED BY IDOCK:   -4.49 KCAL/MOL
REMARK 923 INTER-LIGAND FREE ENERGY PREDICTED BY IDOCK:   -4.72 KCAL/MOL
REMARK 924 INTRA-LIGAND FREE ENERGY PREDICTED BY IDOCK:    0.24 KCAL/MOL
REMARK 927      BINDING AFFINITY PREDICTED BY RF-SCORE:    0.00 PKD
ROOT
HETATM    1  C   UNL     1      -7.039   4.841  64.617  1.00  0.00    -0.058 C  
HETATM    2  C   UNL     1      -7.346   6.062  63.760  1.00  0.00    -0.066 C  
ENDROOT
BRANCH   2   3
HETATM    3  C   UNL     1      -7.325   7.340  64.601  1.00  0.00    -0.079 C  
BRANCH   3   4
HETATM    4  C   UNL     1      -8.568   7.484  65.495  1.00  0.00    -0.102 C  
HETATM    5  C   UNL     1      -8.505   8.725  66.419  1.00  0.00    -0.127 C  
HETATM    6  C   UNL     1      -8.348   9.960  65.553  1.00  0.00    -0.140 C  
HETATM    7  C   UNL     1      -9.769   8.899  67.266  1.00  0.00    -0.181 C  
HETATM    8  N   UNL     1      -9.736   9.807  68.357  1.00  0.00    -0.147 N  
HETATM    9  O   UNL     1     -10.796   8.339  66.859  1.00  0.00    -0.228 OA 
HETATM   10  O   UNL     1      -7.319  10.616  65.499  1.00  0.00    -0.135 OA 
HETATM   11  O   UNL     1      -9.437  10.261  64.813  1.00  0.00    -0.233 OA 
BRANCH   8  12
HETATM   12  C   UNL     1      -8.559  10.548  68.692  1.00  0.00    -0.139 A  
HETATM   13  C   UNL     1      -8.427  11.861  68.214  1.00  0.00    -0.161 A  
HETATM   14  C   UNL     1      -7.555  10.019  69.521  1.00  0.00    -0.133 A  
HETATM   15  C   UNL     1      -7.327  12.640  68.600  1.00  0.00    -0.101 A  
HETATM   16  C   UNL     1      -6.360  12.121  69.460  1.00  0.00    -0.122 A  
HETATM   17  C   UNL     1      -6.474  10.806  69.917  1.00  0.00    -0.135 A  
ENDBRANCH   8  12
BRANCH   8  18
HETATM   18  N   UNL     1     -10.932  10.535  68.678  1.00  0.00    -0.231 NA 
HETATM   19  H   UNL     1     -11.534  10.210  69.435  1.00  0.00     0.000 HD 
BRANCH  18  20
HETATM   20  C   UNL     1     -11.284  11.701  67.953  1.00  0.00    -0.269 A  
HETATM   21  C   UNL     1     -11.819  12.937  65.929  1.00  0.00    -0.476 A  
HETATM   22  C   UNL     1     -11.843  14.133  66.640  1.00  0.00    -0.447 A  
HETATM   23  C   UNL     1     -11.582  11.724  66.589  1.00  0.00    -0.273 A  
HETATM   24  C   UNL     1     -11.679  14.114  68.021  1.00  0.00    -0.394 A  
HETATM   25  C   UNL     1     -11.418  12.904  68.671  1.00  0.00    -0.346 A  
ENDBRANCH  18  20
ENDBRANCH   8  18
ENDBRANCH   3   4
ENDBRANCH   2   3
TORSDOF 5
ENDMDL
MODEL      156
REMARK 921   NORMALIZED FREE ENERGY PREDICTED BY IDOCK:   -2.69 KCAL/MOL
REMARK 922        TOTAL FREE ENERGY PREDICTED BY IDOCK:   -4.48 KCAL/MOL
REMARK 923 INTER-LIGAND FREE ENERGY PREDICTED BY IDOCK:   -4.10 KCAL/MOL
REMARK 924 INTRA-LIGAND FREE ENERGY PREDICTED BY IDOCK:   -0.38 KCAL/MOL
REMARK 927      BINDING AFFINITY PREDICTED BY RF-SCORE:    0.00 PKD
ROOT
HETATM    1  C   UNL     1     -12.599  10.190  70.787  1.00  0.00    -0.406 C  
HETATM    2  C   UNL     1     -12.106  11.603  70.502  1.00  0.00    -0.458 C  
ENDROOT
BRANCH   2   3
HETATM    3  C   UNL     1     -11.266  11.642  69.223  1.00  0.00    -0.328 C  
BRANCH   3   4
HETATM    4  C   UNL     1     -11.271  10.302  68.468  1.00  0.00    -0.271 C  
HETATM    5  C   UNL     1      -9.846   9.795  68.131  1.00  0.00    -0.170 C  
HETATM    6  C   UNL     1      -9.070   9.653  69.426  1.00  0.00    -0.188 C  
HETATM    7  C   UNL     1      -9.851   8.433  67.431  1.00  0.00    -0.191 C  
HETATM    8  N   UNL     1      -8.658   7.986  66.806  1.00  0.00    -0.126 N  
HETATM    9  O   UNL     1     -10.864   7.734  67.576  1.00  0.00    -0.216 OA 
HETATM   10  O   UNL     1      -8.150  10.392  69.741  1.00  0.00    -0.146 OA 
HETATM   11  O   UNL     1      -9.502   8.655  70.226  1.00  0.00    -0.158 OA 
BRANCH   8  12
HETATM   12  C   UNL     1      -7.463   8.773  66.802  1.00  0.00    -0.086 A  
HETATM   13  C   UNL     1      -7.430   9.950  66.039  1.00  0.00    -0.106 A  
HETATM   14  C   UNL     1      -6.341   8.428  67.573  1.00  0.00    -0.057 A  
HETATM   15  C   UNL     1      -6.305  10.785  66.088  1.00  0.00    -0.134 A  
HETATM   16  C   UNL     1      -5.214  10.456  66.892  1.00  0.00    -0.041 A  
HETATM   17  C   UNL     1      -5.233   9.273  67.632  1.00  0.00    -0.037 A  
ENDBRANCH   8  12
BRANCH   8  18
HETATM   18  N   UNL     1      -8.367   6.578  66.813  1.00  0.00    -0.110 NA 
HETATM   19  H   UNL     1      -8.015   6.131  65.966  1.00  0.00     0.000 HD 
BRANCH  18  20
HETATM   20  C   UNL     1      -8.566   5.806  67.983  1.00  0.00    -0.105 A  
HETATM   21  C   UNL     1      -8.172   5.223  70.311  1.00  0.00    -0.095 A  
HETATM   22  C   UNL     1      -8.967   4.088  70.183  1.00  0.00    -0.159 A  
HETATM   23  C   UNL     1      -8.008   6.098  69.229  1.00  0.00    -0.108 A  
HETATM   24  C   UNL     1      -9.638   3.850  68.989  1.00  0.00    -0.209 A  
HETATM   25  C   UNL     1      -9.450   4.713  67.905  1.00  0.00    -0.194 A  
ENDBRANCH  18  20
ENDBRANCH   8  18
ENDBRANCH   3   4
ENDBRANCH   2   3
TORSDOF 5
ENDMDL
MODEL      157
REMARK 921   NORMALIZED FREE ENERGY PREDICTED BY IDOCK:   -2.66 KCAL/MOL
REMARK 922        TOTAL FREE ENERGY PREDICTED BY IDOCK:   -4.44 KCAL/MOL
REMARK 923 INTER-LIGAND FREE ENERGY PREDICTED BY IDOCK:   -4.61 KCAL/MOL
REMARK 924 INTRA-LIGAND FREE ENERGY PREDICTED BY IDOCK:    0.17 KCAL/MOL
REMARK 927      BINDING AFFINITY PREDICTED BY RF-SCORE:    0.00 PKD
ROOT
HETATM    1  C   UNL     1     -12.229  13.542  64.679  1.00  0.00    -0.450 C  
HETATM    2  C   UNL     1     -12.132  12.128  64.120  1.00  0.00    -0.501 C  
ENDROOT
BRANCH   2   3
HETATM    3  C   UNL     1     -10.808  11.471  64.519  1.00  0.00    -0.390 C  
BRANCH   3   4
HETATM    4  C   UNL     1     -10.706  11.211  66.031  1.00  0.00    -0.272 C  
HETATM    5  C   UNL     1     -10.185   9.790  66.364  1.00  0.00    -0.288 C  
HETATM    6  C   UNL     1      -8.824   9.616  65.718  1.00  0.00    -0.157 C  
HETATM    7  C   UNL     1     -10.027   9.554  67.869  1.00  0.00    -0.172 C  
HETATM    8  N   UNL     1      -9.845   8.225  68.332  1.00  0.00    -0.167 N  
HETATM    9  O   UNL     1      -9.925  10.560  68.585  1.00  0.00    -0.166 OA 
HETATM   10  O   UNL     1      -8.624   8.882  64.762  1.00  0.00    -0.175 OA 
HETATM   11  O   UNL     1      -7.848  10.370  66.267  1.00  0.00    -0.120 OA 
BRANCH   8  12
HETATM   12  C   UNL     1      -9.817   7.107  67.439  1.00  0.00    -0.155 A  
HETATM   13  C   UNL     1      -8.575   6.590  67.040  1.00  0.00    -0.113 A  
HETATM   14  C   UNL     1     -10.993   6.484  66.987  1.00  0.00    -0.466 A  
HETATM   15  C   UNL     1      -8.520   5.442  66.238  1.00  0.00    -0.117 A  
HETATM   16  C   UNL     1      -9.691   4.805  65.832  1.00  0.00    -0.203 A  
HETATM   17  C   UNL     1     -10.930   5.331  66.206  1.00  0.00    -0.056 A  
ENDBRANCH   8  12
BRANCH   8  18
HETATM   18  N   UNL     1      -9.008   8.008  69.480  1.00  0.00    -0.147 NA 
HETATM   19  H   UNL     1      -9.354   7.448  70.259  1.00  0.00     0.000 HD 
BRANCH  18  20
HETATM   20  C   UNL     1      -7.708   8.566  69.541  1.00  0.00    -0.091 A  
HETATM   21  C   UNL     1      -5.343   8.665  68.982  1.00  0.00    -0.036 A  
HETATM   22  C   UNL     1      -5.153   9.712  69.879  1.00  0.00    -0.033 A  
HETATM   23  C   UNL     1      -6.621   8.125  68.784  1.00  0.00    -0.053 A  
HETATM   24  C   UNL     1      -6.247  10.253  70.546  1.00  0.00    -0.116 A  
HETATM   25  C   UNL     1      -7.515   9.692  70.363  1.00  0.00    -0.168 A  
ENDBRANCH  18  20
ENDBRANCH   8  18
ENDBRANCH   3   4
ENDBRANCH   2   3
TORSDOF 5
ENDMDL
MODEL      158
REMARK 921   NORMALIZED FREE ENERGY PREDICTED BY IDOCK:   -2.64 KCAL/MOL
REMARK 922        TOTAL FREE ENERGY PREDICTED BY IDOCK:   -4.42 KCAL/MOL
REMARK 923 INTER-LIGAND FREE ENERGY PREDICTED BY IDOCK:   -3.58 KCAL/MOL
REMARK 924 INTRA-LIGAND FREE ENERGY PREDICTED BY IDOCK:   -0.84 KCAL/MOL
REMARK 927      BINDING AFFINITY PREDICTED BY RF-SCORE:    0.00 PKD
ROOT
HETATM    1  C   UNL     1     -10.275   3.858  64.463  1.00  0.00    -0.231 C  
HETATM    2  C   UNL     1      -9.132   4.459  65.270  1.00  0.00    -0.146 C  
ENDROOT
BRANCH   2   3
HETATM    3  C   UNL     1      -9.438   4.416  66.769  1.00  0.00    -0.194 C  
BRANCH   3   4
HETATM    4  C   UNL     1      -8.654   5.471  67.566  1.00  0.00    -0.108 C  
HETATM    5  C   UNL     1      -9.065   6.922  67.213  1.00  0.00    -0.127 C  
HETATM    6  C   UNL     1     -10.549   7.077  67.478  1.00  0.00    -0.280 C  
HETATM    7  C   UNL     1      -8.324   7.969  68.051  1.00  0.00    -0.126 C  
HETATM    8  N   UNL     1      -8.377   9.327  67.642  1.00  0.00    -0.115 N  
HETATM    9  O   UNL     1      -7.837   7.585  69.123  1.00  0.00    -0.114 OA 
HETATM   10  O   UNL     1     -11.380   7.197  66.590  1.00  0.00     0.175 OA 
HETATM   11  O   UNL     1     -10.888   7.038  68.784  1.00  0.00    -0.211 OA 
BRANCH   8  12
HETATM   12  C   UNL     1      -9.088   9.740  66.470  1.00  0.00    -0.153 A  
HETATM   13  C   UNL     1     -10.224  10.549  66.618  1.00  0.00    -0.289 A  
HETATM   14  C   UNL     1      -8.656   9.398  65.178  1.00  0.00    -0.188 A  
HETATM   15  C   UNL     1     -10.886  11.040  65.484  1.00  0.00    -0.159 A  
HETATM   16  C   UNL     1     -10.423  10.733  64.206  1.00  0.00    -0.330 A  
HETATM   17  C   UNL     1      -9.307   9.907  64.055  1.00  0.00    -0.280 A  
ENDBRANCH   8  12
BRANCH   8  18
HETATM   18  N   UNL     1      -8.383  10.348  68.654  1.00  0.00    -0.119 NA 
HETATM   19  H   UNL     1      -8.879  10.186  69.531  1.00  0.00     0.000 HD 
BRANCH  18  20
HETATM   20  C   UNL     1      -7.708  11.575  68.446  1.00  0.00    -0.129 A  
HETATM   21  C   UNL     1      -7.574  13.999  68.298  1.00  0.00    -0.135 A  
HETATM   22  C   UNL     1      -6.254  13.921  67.863  1.00  0.00    -0.164 A  
HETATM   23  C   UNL     1      -8.281  12.835  68.627  1.00  0.00     0.012 A  
HETATM   24  C   UNL     1      -5.623  12.683  67.802  1.00  0.00    -0.122 A  
HETATM   25  C   UNL     1      -6.343  11.523  68.107  1.00  0.00    -0.046 A  
ENDBRANCH  18  20
ENDBRANCH   8  18
ENDBRANCH   3   4
ENDBRANCH   2   3
TORSDOF 5
ENDMDL
MODEL      159
REMARK 921   NORMALIZED FREE ENERGY PREDICTED BY IDOCK:   -2.51 KCAL/MOL
REMARK 922        TOTAL FREE ENERGY PREDICTED BY IDOCK:   -4.24 KCAL/MOL
REMARK 923 INTER-LIGAND FREE ENERGY PREDICTED BY IDOCK:   -4.65 KCAL/MOL
REMARK 924 INTRA-LIGAND FREE ENERGY PREDICTED BY IDOCK:    0.41 KCAL/MOL
REMARK 927      BINDING AFFINITY PREDICTED BY RF-SCORE:    0.00 PKD
ROOT
HETATM    1  C   UNL     1     -12.874  11.921  63.766  1.00  0.00    -0.396 C  
HETATM    2  C   UNL     1     -12.310  13.279  63.367  1.00  0.00    -0.402 C  
ENDROOT
BRANCH   2   3
HETATM    3  C   UNL     1     -10.786  13.303  63.514  1.00  0.00     0.314 C  
BRANCH   3   4
HETATM    4  C   UNL     1     -10.255  12.154  64.386  1.00  0.00    -0.333 C  
HETATM    5  C   UNL     1      -9.698  12.639  65.748  1.00  0.00    -0.183 C  
HETATM    6  C   UNL     1     -10.803  13.374  66.482  1.00  0.00    -0.282 C  
HETATM    7  C   UNL     1      -9.223  11.488  66.639  1.00  0.00    -0.186 C  
HETATM    8  N   UNL     1      -8.429  11.791  67.776  1.00  0.00    -0.140 N  
HETATM    9  O   UNL     1      -9.683  10.364  66.393  1.00  0.00    -0.185 OA 
HETATM   10  O   UNL     1     -10.802  14.583  66.661  1.00  0.00    -0.300 OA 
HETATM   11  O   UNL     1     -11.814  12.583  66.900  1.00  0.00    -0.437 OA 
BRANCH   8  12
HETATM   12  C   UNL     1      -8.053  13.133  68.102  1.00  0.00    -0.155 A  
HETATM   13  C   UNL     1      -8.782  13.820  69.085  1.00  0.00     0.418 A  
HETATM   14  C   UNL     1      -6.950  13.764  67.504  1.00  0.00    -0.161 A  
HETATM   15  C   UNL     1      -8.380  15.102  69.486  1.00  0.00    -0.151 A  
HETATM   16  C   UNL     1      -7.257  15.701  68.918  1.00  0.00    -0.146 A  
HETATM   17  C   UNL     1      -6.544  15.030  67.922  1.00  0.00    -0.174 A  
ENDBRANCH   8  12
BRANCH   8  18
HETATM   18  N   UNL     1      -8.580  10.980  68.953  1.00  0.00    -0.274 NA 
HETATM   19  H   UNL     1      -7.754  10.587  69.404  1.00  0.00     0.000 HD 
BRANCH  18  20
HETATM   20  C   UNL     1      -9.864  10.721  69.491  1.00  0.00    -0.016 A  
HETATM   21  C   UNL     1     -12.112  11.343  70.178  1.00  0.00    -0.439 A  
HETATM   22  C   UNL     1     -12.321  10.076  70.715  1.00  0.00    -0.396 A  
HETATM   23  C   UNL     1     -10.907  11.649  69.534  1.00  0.00    -0.087 A  
HETATM   24  C   UNL     1     -11.345   9.097  70.566  1.00  0.00    -0.300 A  
HETATM   25  C   UNL     1     -10.134   9.417  69.945  1.00  0.00    -0.243 A  
ENDBRANCH  18  20
ENDBRANCH   8  18
ENDBRANCH   3   4
ENDBRANCH   2   3
TORSDOF 5
ENDMDL
MODEL      160
REMARK 921   NORMALIZED FREE ENERGY PREDICTED BY IDOCK:   -2.34 KCAL/MOL
REMARK 922        TOTAL FREE ENERGY PREDICTED BY IDOCK:   -4.02 KCAL/MOL
REMARK 923 INTER-LIGAND FREE ENERGY PREDICTED BY IDOCK:   -3.17 KCAL/MOL
REMARK 924 INTRA-LIGAND FREE ENERGY PREDICTED BY IDOCK:   -0.85 KCAL/MOL
REMARK 927      BINDING AFFINITY PREDICTED BY RF-SCORE:    0.00 PKD
ROOT
HETATM    1  C   UNL     1     -12.895   8.351  72.038  1.00  0.00    -0.389 C  
HETATM    2  C   UNL     1     -11.642   7.975  72.819  1.00  0.00    -0.390 C  
ENDROOT
BRANCH   2   3
HETATM    3  C   UNL     1     -10.390   8.553  72.157  1.00  0.00    -0.409 C  
BRANCH   3   4
HETATM    4  C   UNL     1     -10.407   8.410  70.626  1.00  0.00    -0.224 C  
HETATM    5  C   UNL     1      -9.484   7.275  70.117  1.00  0.00    -0.165 C  
HETATM    6  C   UNL     1      -9.924   5.975  70.760  1.00  0.00    -0.191 C  
HETATM    7  C   UNL     1      -9.548   7.095  68.597  1.00  0.00    -0.140 C  
HETATM    8  N   UNL     1      -8.552   6.306  67.964  1.00  0.00    -0.117 N  
HETATM    9  O   UNL     1     -10.554   7.535  68.024  1.00  0.00    -0.201 OA 
HETATM   10  O   UNL     1      -9.270   5.393  71.613  1.00  0.00    -0.144 OA 
HETATM   11  O   UNL     1     -11.123   5.522  70.337  1.00  0.00    -0.217 OA 
BRANCH   8  12
HETATM   12  C   UNL     1      -7.491   5.689  68.700  1.00  0.00    -0.084 A  
HETATM   13  C   UNL     1      -7.508   4.297  68.874  1.00  0.00    -0.055 A  
HETATM   14  C   UNL     1      -6.412   6.429  69.213  1.00  0.00    -0.043 A  
HETATM   15  C   UNL     1      -6.437   3.658  69.514  1.00  0.00    -0.033 A  
HETATM   16  C   UNL     1      -5.349   4.396  69.979  1.00  0.00    -0.008 A  
HETATM   17  C   UNL     1      -5.340   5.784  69.830  1.00  0.00    -0.005 A  
ENDBRANCH   8  12
BRANCH   8  18
HETATM   18  N   UNL     1      -8.923   5.528  66.814  1.00  0.00    -0.113 NA 
HETATM   19  H   UNL     1      -9.743   4.923  66.857  1.00  0.00     0.000 HD 
BRANCH  18  20
HETATM   20  C   UNL     1      -8.161   5.593  65.622  1.00  0.00    -0.120 A  
HETATM   21  C   UNL     1      -6.384   4.880  64.122  1.00  0.00    -0.026 A  
HETATM   22  C   UNL     1      -6.652   5.943  63.266  1.00  0.00    -0.032 A  
HETATM   23  C   UNL     1      -7.162   4.683  65.271  1.00  0.00    -0.068 A  
HETATM   24  C   UNL     1      -7.728   6.784  63.529  1.00  0.00    -0.114 A  
HETATM   25  C   UNL     1      -8.483   6.597  64.691  1.00  0.00     0.113 A  
ENDBRANCH  18  20
ENDBRANCH   8  18
ENDBRANCH   3   4
ENDBRANCH   2   3
TORSDOF 5
ENDMDL
MODEL      161
REMARK 921   NORMALIZED FREE ENERGY PREDICTED BY IDOCK:   -2.29 KCAL/MOL
REMARK 922        TOTAL FREE ENERGY PREDICTED BY IDOCK:   -3.96 KCAL/MOL
REMARK 923 INTER-LIGAND FREE ENERGY PREDICTED BY IDOCK:   -3.62 KCAL/MOL
REMARK 924 INTRA-LIGAND FREE ENERGY PREDICTED BY IDOCK:   -0.34 KCAL/MOL
REMARK 927      BINDING AFFINITY PREDICTED BY RF-SCORE:    0.00 PKD
ROOT
HETATM    1  C   UNL     1      -8.435  10.655  62.338  1.00  0.00    -0.277 C  
HETATM    2  C   UNL     1      -7.038  10.459  62.914  1.00  0.00    -0.096 C  
ENDROOT
BRANCH   2   3
HETATM    3  C   UNL     1      -7.040   9.377  63.997  1.00  0.00    -0.102 C  
BRANCH   3   4
HETATM    4  C   UNL     1      -7.875   9.768  65.227  1.00  0.00    -0.120 C  
HETATM    5  C   UNL     1      -8.074   8.594  66.218  1.00  0.00    -0.103 C  
HETATM    6  C   UNL     1      -6.709   8.103  66.658  1.00  0.00    -0.063 C  
HETATM    7  C   UNL     1      -8.856   9.001  67.471  1.00  0.00    -0.123 C  
HETATM    8  N   UNL     1      -9.364   7.980  68.316  1.00  0.00    -0.140 N  
HETATM    9  O   UNL     1      -8.876  10.209  67.749  1.00  0.00    -0.125 OA 
HETATM   10  O   UNL     1      -6.241   7.027  66.316  1.00  0.00    -0.037 OA 
HETATM   11  O   UNL     1      -6.031   8.970  67.440  1.00  0.00    -0.049 OA 
BRANCH   8  12
HETATM   12  C   UNL     1      -9.177   6.592  68.025  1.00  0.00    -0.111 A  
HETATM   13  C   UNL     1     -10.034   5.971  67.104  1.00  0.00    -0.186 A  
HETATM   14  C   UNL     1      -8.134   5.845  68.598  1.00  0.00    -0.103 A  
HETATM   15  C   UNL     1      -9.818   4.637  66.735  1.00  0.00    -0.237 A  
HETATM   16  C   UNL     1      -8.753   3.917  67.275  1.00  0.00    -0.120 A  
HETATM   17  C   UNL     1      -7.913   4.523  68.211  1.00  0.00    -0.080 A  
ENDBRANCH   8  12
BRANCH   8  18
HETATM   18  N   UNL     1      -9.414   8.225  69.732  1.00  0.00    -0.162 NA 
HETATM   19  H   UNL     1      -8.889   9.005  70.128  1.00  0.00     0.000 HD 
BRANCH  18  20
HETATM   20  C   UNL     1     -10.183   7.393  70.581  1.00  0.00    -0.199 A  
HETATM   21  C   UNL     1     -12.260   6.428  71.400  1.00  0.00    -0.192 A  
HETATM   22  C   UNL     1     -11.582   5.799  72.440  1.00  0.00    -0.320 A  
HETATM   23  C   UNL     1     -11.558   7.185  70.453  1.00  0.00    -0.300 A  
HETATM   24  C   UNL     1     -10.196   5.885  72.508  1.00  0.00    -0.214 A  
HETATM   25  C   UNL     1      -9.504   6.664  71.575  1.00  0.00    -0.159 A  
ENDBRANCH  18  20
ENDBRANCH   8  18
ENDBRANCH   3   4
ENDBRANCH   2   3
TORSDOF 5
ENDMDL
MODEL      162
REMARK 921   NORMALIZED FREE ENERGY PREDICTED BY IDOCK:   -2.22 KCAL/MOL
REMARK 922        TOTAL FREE ENERGY PREDICTED BY IDOCK:   -3.87 KCAL/MOL
REMARK 923 INTER-LIGAND FREE ENERGY PREDICTED BY IDOCK:   -3.27 KCAL/MOL
REMARK 924 INTRA-LIGAND FREE ENERGY PREDICTED BY IDOCK:   -0.60 KCAL/MOL
REMARK 927      BINDING AFFINITY PREDICTED BY RF-SCORE:    0.00 PKD
ROOT
HETATM    1  C   UNL     1     -10.659  10.060  70.093  1.00  0.00    -0.350 C  
HETATM    2  C   UNL     1     -10.402   8.934  71.087  1.00  0.00    -0.338 C  
ENDROOT
BRANCH   2   3
HETATM    3  C   UNL     1     -11.472   7.846  70.972  1.00  0.00    -0.298 C  
BRANCH   3   4
HETATM    4  C   UNL     1     -11.425   7.108  69.624  1.00  0.00    -0.047 C  
HETATM    5  C   UNL     1      -9.987   6.722  69.197  1.00  0.00    -0.166 C  
HETATM    6  C   UNL     1      -9.383   5.853  70.282  1.00  0.00    -0.158 C  
HETATM    7  C   UNL     1      -9.948   5.935  67.884  1.00  0.00    -0.134 C  
HETATM    8  N   UNL     1      -8.701   5.773  67.226  1.00  0.00    -0.109 N  
HETATM    9  O   UNL     1     -10.993   5.361  67.546  1.00  0.00    -0.056 OA 
HETATM   10  O   UNL     1      -8.485   6.228  71.022  1.00  0.00    -0.125 OA 
HETATM   11  O   UNL     1      -9.942   4.628  70.389  1.00  0.00    -0.219 OA 
BRANCH   8  12
HETATM   12  C   UNL     1      -7.491   6.332  67.746  1.00  0.00    -0.093 A  
HETATM   13  C   UNL     1      -7.366   7.727  67.821  1.00  0.00    -0.095 A  
HETATM   14  C   UNL     1      -6.444   5.526  68.224  1.00  0.00    -0.043 A  
HETATM   15  C   UNL     1      -6.228   8.298  68.408  1.00  0.00    -0.050 A  
HETATM   16  C   UNL     1      -5.216   7.489  68.921  1.00  0.00    -0.018 A  
HETATM   17  C   UNL     1      -5.324   6.100  68.825  1.00  0.00    -0.007 A  
ENDBRANCH   8  12
BRANCH   8  18
HETATM   18  N   UNL     1      -8.458   4.551  66.510  1.00  0.00    -0.109 NA 
HETATM   19  H   UNL     1      -7.990   3.775  66.979  1.00  0.00     0.000 HD 
BRANCH  18  20
HETATM   20  C   UNL     1      -8.863   4.412  65.160  1.00  0.00    -0.138 A  
HETATM   21  C   UNL     1     -10.172   3.433  63.360  1.00  0.00    -0.197 A  
HETATM   22  C   UNL     1      -9.454   4.159  62.414  1.00  0.00    -0.121 A  
HETATM   23  C   UNL     1      -9.906   3.591  64.726  1.00  0.00    -0.152 A  
HETATM   24  C   UNL     1      -8.501   5.081  62.834  1.00  0.00    -0.115 A  
HETATM   25  C   UNL     1      -8.222   5.215  64.198  1.00  0.00    -0.131 A  
ENDBRANCH  18  20
ENDBRANCH   8  18
ENDBRANCH   3   4
ENDBRANCH   2   3
TORSDOF 5
ENDMDL
MODEL      163
REMARK 921   NORMALIZED FREE ENERGY PREDICTED BY IDOCK:   -1.98 KCAL/MOL
REMARK 922        TOTAL FREE ENERGY PREDICTED BY IDOCK:   -3.56 KCAL/MOL
REMARK 923 INTER-LIGAND FREE ENERGY PREDICTED BY IDOCK:   -4.39 KCAL/MOL
REMARK 924 INTRA-LIGAND FREE ENERGY PREDICTED BY IDOCK:    0.82 KCAL/MOL
REMARK 927      BINDING AFFINITY PREDICTED BY RF-SCORE:    0.00 PKD
ROOT
HETATM    1  C   UNL     1      -9.716  10.229  62.925  1.00  0.00    -0.198 C  
HETATM    2  C   UNL     1      -9.393  10.674  64.346  1.00  0.00    -0.291 C  
ENDROOT
BRANCH   2   3
HETATM    3  C   UNL     1      -8.839   9.510  65.171  1.00  0.00    -0.223 C  
BRANCH   3   4
HETATM    4  C   UNL     1      -9.855   8.967  66.189  1.00  0.00    -0.349 C  
HETATM    5  C   UNL     1      -9.194   8.501  67.511  1.00  0.00    -0.151 C  
HETATM    6  C   UNL     1      -8.443   9.674  68.109  1.00  0.00    -0.118 C  
HETATM    7  C   UNL     1     -10.214   8.016  68.545  1.00  0.00    -0.207 C  
HETATM    8  N   UNL     1      -9.745   7.293  69.673  1.00  0.00    -0.159 N  
HETATM    9  O   UNL     1     -11.381   8.409  68.407  1.00  0.00     0.466 OA 
HETATM   10  O   UNL     1      -7.223   9.739  68.150  1.00  0.00    -0.078 OA 
HETATM   11  O   UNL     1      -9.235  10.666  68.569  1.00  0.00    -0.154 OA 
BRANCH   8  12
HETATM   12  C   UNL     1      -8.358   6.998  69.863  1.00  0.00    -0.139 A  
HETATM   13  C   UNL     1      -7.718   6.141  68.955  1.00  0.00    -0.096 A  
HETATM   14  C   UNL     1      -7.608   7.576  70.901  1.00  0.00    -0.081 A  
HETATM   15  C   UNL     1      -6.340   5.906  69.065  1.00  0.00    -0.041 A  
HETATM   16  C   UNL     1      -5.597   6.521  70.072  1.00  0.00    -0.015 A  
HETATM   17  C   UNL     1      -6.235   7.354  70.993  1.00  0.00    -0.036 A  
ENDBRANCH   8  12
BRANCH   8  18
HETATM   18  N   UNL     1     -10.429   7.462  70.927  1.00  0.00    -0.216 NA 
HETATM   19  H   UNL     1     -10.270   6.795  71.682  1.00  0.00     0.000 HD 
BRANCH  18  20
HETATM   20  C   UNL     1     -11.320   8.546  71.123  1.00  0.00    -0.270 A  
HETATM   21  C   UNL     1     -11.917  10.902  71.178  1.00  0.00    -0.317 A  
HETATM   22  C   UNL     1     -13.174  10.593  71.689  1.00  0.00    -0.495 A  
HETATM   23  C   UNL     1     -11.013   9.882  70.857  1.00  0.00    -0.392 A  
HETATM   24  C   UNL     1     -13.548   9.262  71.836  1.00  0.00    -0.494 A  
HETATM   25  C   UNL     1     -12.631   8.249  71.539  1.00  0.00    -0.333 A  
ENDBRANCH  18  20
ENDBRANCH   8  18
ENDBRANCH   3   4
ENDBRANCH   2   3
TORSDOF 5
ENDMDL
MODEL      164
REMARK 921   NORMALIZED FREE ENERGY PREDICTED BY IDOCK:   -1.65 KCAL/MOL
REMARK 922        TOTAL FREE ENERGY PREDICTED BY IDOCK:   -3.14 KCAL/MOL
REMARK 923 INTER-LIGAND FREE ENERGY PREDICTED BY IDOCK:   -3.32 KCAL/MOL
REMARK 924 INTRA-LIGAND FREE ENERGY PREDICTED BY IDOCK:    0.18 KCAL/MOL
REMARK 927      BINDING AFFINITY PREDICTED BY RF-SCORE:    0.00 PKD
ROOT
HETATM    1  C   UNL     1      -9.562   8.179  73.157  1.00  0.00    -0.307 C  
HETATM    2  C   UNL     1     -10.580   8.525  72.079  1.00  0.00    -0.408 C  
ENDROOT
BRANCH   2   3
HETATM    3  C   UNL     1      -9.946   8.464  70.687  1.00  0.00    -0.212 C  
BRANCH   3   4
HETATM    4  C   UNL     1      -8.653   7.633  70.659  1.00  0.00    -0.135 C  
HETATM    5  C   UNL     1      -8.880   6.151  71.051  1.00  0.00    -0.139 C  
HETATM    6  C   UNL     1      -9.896   5.554  70.098  1.00  0.00    -0.198 C  
HETATM    7  C   UNL     1      -7.602   5.312  70.966  1.00  0.00    -0.088 C  
HETATM    8  N   UNL     1      -7.591   4.028  71.570  1.00  0.00    -0.062 N  
HETATM    9  O   UNL     1      -6.693   5.750  70.246  1.00  0.00    -0.045 OA 
HETATM   10  O   UNL     1     -11.034   5.256  70.430  1.00  0.00    -0.153 OA 
HETATM   11  O   UNL     1      -9.451   5.406  68.832  1.00  0.00    -0.122 OA 
BRANCH   8  12
HETATM   12  C   UNL     1      -8.729   3.505  72.261  1.00  0.00    -0.088 A  
HETATM   13  C   UNL     1      -9.265   4.235  73.333  1.00  0.00    -0.110 A  
HETATM   14  C   UNL     1      -9.353   2.308  71.870  1.00  0.00    -0.172 A  
HETATM   15  C   UNL     1     -10.432   3.790  73.969  1.00  0.00    -0.262 A  
HETATM   16  C   UNL     1     -11.069   2.625  73.545  1.00  0.00    -0.317 A  
HETATM   17  C   UNL     1     -10.524   1.882  72.495  1.00  0.00    -0.222 A  
ENDBRANCH   8  12
BRANCH   8  18
HETATM   18  N   UNL     1      -6.821   2.985  70.947  1.00  0.00    -0.032 NA 
HETATM   19  H   UNL     1      -6.315   2.316  71.527  1.00  0.00     0.000 HD 
BRANCH  18  20
HETATM   20  C   UNL     1      -6.760   2.878  69.536  1.00  0.00    -0.034 A  
HETATM   21  C   UNL     1      -5.665   3.085  67.374  1.00  0.00    -0.022 A  
HETATM   22  C   UNL     1      -6.845   2.742  66.721  1.00  0.00    -0.048 A  
HETATM   23  C   UNL     1      -5.613   3.111  68.774  1.00  0.00    -0.021 A  
HETATM   24  C   UNL     1      -7.962   2.378  67.465  1.00  0.00    -0.064 A  
HETATM   25  C   UNL     1      -7.911   2.432  68.862  1.00  0.00    -0.055 A  
ENDBRANCH  18  20
ENDBRANCH   8  18
ENDBRANCH   3   4
ENDBRANCH   2   3
TORSDOF 5
ENDMDL
MODEL      165
REMARK 921   NORMALIZED FREE ENERGY PREDICTED BY IDOCK:   -1.56 KCAL/MOL
REMARK 922        TOTAL FREE ENERGY PREDICTED BY IDOCK:   -3.02 KCAL/MOL
REMARK 923 INTER-LIGAND FREE ENERGY PREDICTED BY IDOCK:   -2.77 KCAL/MOL
REMARK 924 INTRA-LIGAND FREE ENERGY PREDICTED BY IDOCK:   -0.25 KCAL/MOL
REMARK 927      BINDING AFFINITY PREDICTED BY RF-SCORE:    0.00 PKD
ROOT
HETATM    1  C   UNL     1      -7.802   7.826  74.377  1.00  0.00    -0.247 C  
HETATM    2  C   UNL     1      -9.110   8.215  73.699  1.00  0.00    -0.235 C  
ENDROOT
BRANCH   2   3
HETATM    3  C   UNL     1      -9.384   7.322  72.487  1.00  0.00    -0.174 C  
BRANCH   3   4
HETATM    4  C   UNL     1      -8.191   7.247  71.521  1.00  0.00    -0.105 C  
HETATM    5  C   UNL     1      -8.274   6.041  70.553  1.00  0.00    -0.113 C  
HETATM    6  C   UNL     1      -9.565   6.146  69.767  1.00  0.00    -0.150 C  
HETATM    7  C   UNL     1      -7.114   6.001  69.553  1.00  0.00    -0.069 C  
HETATM    8  N   UNL     1      -6.898   4.811  68.810  1.00  0.00    -0.050 N  
HETATM    9  O   UNL     1      -6.516   7.067  69.348  1.00  0.00    -0.041 OA 
HETATM   10  O   UNL     1     -10.514   5.392  69.930  1.00  0.00    -0.283 OA 
HETATM   11  O   UNL     1      -9.598   7.168  68.886  1.00  0.00    -0.142 OA 
BRANCH   8  12
HETATM   12  C   UNL     1      -7.721   3.653  68.977  1.00  0.00    -0.052 A  
HETATM   13  C   UNL     1      -7.647   2.938  70.182  1.00  0.00    -0.043 A  
HETATM   14  C   UNL     1      -8.632   3.238  67.992  1.00  0.00    -0.118 A  
HETATM   15  C   UNL     1      -8.505   1.853  70.406  1.00  0.00    -0.078 A  
HETATM   16  C   UNL     1      -9.437   1.476  69.440  1.00  0.00    -0.138 A  
HETATM   17  C   UNL     1      -9.496   2.170  68.229  1.00  0.00    -0.232 A  
ENDBRANCH   8  12
BRANCH   8  18
HETATM   18  N   UNL     1      -6.406   4.924  67.464  1.00  0.00    -0.039 NA 
HETATM   19  H   UNL     1      -5.819   4.185  67.077  1.00  0.00     0.000 HD 
BRANCH  18  20
HETATM   20  C   UNL     1      -6.727   6.053  66.671  1.00  0.00    -0.061 A  
HETATM   21  C   UNL     1      -6.227   8.156  65.557  1.00  0.00    -0.045 A  
HETATM   22  C   UNL     1      -7.563   8.307  65.197  1.00  0.00    -0.093 A  
HETATM   23  C   UNL     1      -5.806   7.015  66.252  1.00  0.00    -0.034 A  
HETATM   24  C   UNL     1      -8.472   7.297  65.490  1.00  0.00    -0.119 A  
HETATM   25  C   UNL     1      -8.051   6.173  66.207  1.00  0.00    -0.113 A  
ENDBRANCH  18  20
ENDBRANCH   8  18
ENDBRANCH   3   4
ENDBRANCH   2   3
TORSDOF 5
ENDMDL
MODEL      166
REMARK 921   NORMALIZED FREE ENERGY PREDICTED BY IDOCK:    0.70 KCAL/MOL
REMARK 922        TOTAL FREE ENERGY PREDICTED BY IDOCK:   -0.11 KCAL/MOL
REMARK 923 INTER-LIGAND FREE ENERGY PREDICTED BY IDOCK:   -3.14 KCAL/MOL
REMARK 924 INTRA-LIGAND FREE ENERGY PREDICTED BY IDOCK:    3.03 KCAL/MOL
REMARK 927      BINDING AFFINITY PREDICTED BY RF-SCORE:    0.00 PKD
ROOT
HETATM    1  C   UNL     1      -9.973   8.468  72.498  1.00  0.00    -0.322 C  
HETATM    2  C   UNL     1     -10.309   7.960  71.102  1.00  0.00    -0.225 C  
ENDROOT
BRANCH   2   3
HETATM    3  C   UNL     1      -9.263   8.421  70.085  1.00  0.00    -0.159 C  
BRANCH   3   4
HETATM    4  C   UNL     1      -9.747   9.602  69.227  1.00  0.00    -0.191 C  
HETATM    5  C   UNL     1      -8.721  10.761  69.163  1.00  0.00    -0.101 C  
HETATM    6  C   UNL     1      -7.421  10.218  68.603  1.00  0.00    -0.086 C  
HETATM    7  C   UNL     1      -9.180  11.910  68.261  1.00  0.00    -0.187 C  
HETATM    8  N   UNL     1      -8.491  13.149  68.336  1.00  0.00    -0.156 N  
HETATM    9  O   UNL     1     -10.041  11.644  67.410  1.00  0.00    -0.195 OA 
HETATM   10  O   UNL     1      -6.409  10.075  69.273  1.00  0.00    -0.043 OA 
HETATM   11  O   UNL     1      -7.479   9.870  67.300  1.00  0.00    -0.087 OA 
BRANCH   8  12
HETATM   12  C   UNL     1      -7.396  13.355  69.234  1.00  0.00     0.183 A  
HETATM   13  C   UNL     1      -6.381  12.389  69.297  1.00  0.00    -0.106 A  
HETATM   14  C   UNL     1      -7.284  14.516  70.018  1.00  0.00     0.124 A  
HETATM   15  C   UNL     1      -5.254  12.608  70.101  1.00  0.00    -0.100 A  
HETATM   16  C   UNL     1      -5.130  13.784  70.840  1.00  0.00    -0.119 A  
HETATM   17  C   UNL     1      -6.151  14.736  70.800  1.00  0.00    -0.070 A  
ENDBRANCH   8  12
BRANCH   8  18
HETATM   18  N   UNL     1      -8.349  13.928  67.136  1.00  0.00    -0.319 NA 
HETATM   19  H   UNL     1      -7.767  13.579  66.374  1.00  0.00     0.000 HD 
BRANCH  18  20
HETATM   20  C   UNL     1      -9.008  15.174  67.002  1.00  0.00    -0.234 A  
HETATM   21  C   UNL     1     -10.530  16.930  67.718  1.00  0.00    -0.340 A  
HETATM   22  C   UNL     1     -10.344  17.610  66.518  1.00  0.00    -0.337 A  
HETATM   23  C   UNL     1      -9.833  15.742  67.974  1.00  0.00    -0.217 A  
HETATM   24  C   UNL     1      -9.425  17.129  65.591  1.00  0.00     0.208 A  
HETATM   25  C   UNL     1      -8.753  15.929  65.842  1.00  0.00    -0.055 A  
ENDBRANCH  18  20
ENDBRANCH   8  18
ENDBRANCH   3   4
ENDBRANCH   2   3
TORSDOF 5
ENDMDL
MODEL      167
REMARK 921   NORMALIZED FREE ENERGY PREDICTED BY IDOCK:    0.70 KCAL/MOL
REMARK 922        TOTAL FREE ENERGY PREDICTED BY IDOCK:   -0.10 KCAL/MOL
REMARK 923 INTER-LIGAND FREE ENERGY PREDICTED BY IDOCK:   -1.42 KCAL/MOL
REMARK 924 INTRA-LIGAND FREE ENERGY PREDICTED BY IDOCK:    1.33 KCAL/MOL
REMARK 927      BINDING AFFINITY PREDICTED BY RF-SCORE:    0.00 PKD
ROOT
HETATM    1  C   UNL     1     -12.753  10.179  69.793  1.00  0.00     0.334 C  
HETATM    2  C   UNL     1     -12.922  11.675  70.027  1.00  0.00     0.438 C  
ENDROOT
BRANCH   2   3
HETATM    3  C   UNL     1     -11.864  12.472  69.261  1.00  0.00    -0.360 C  
BRANCH   3   4
HETATM    4  C   UNL     1     -11.329  11.721  68.031  1.00  0.00    -0.355 C  
HETATM    5  C   UNL     1      -9.868  11.237  68.209  1.00  0.00    -0.201 C  
HETATM    6  C   UNL     1      -9.808  10.338  69.428  1.00  0.00    -0.227 C  
HETATM    7  C   UNL     1      -9.357  10.438  67.007  1.00  0.00    -0.154 C  
HETATM    8  N   UNL     1      -7.964  10.188  66.900  1.00  0.00    -0.113 N  
HETATM    9  O   UNL     1     -10.213   9.932  66.267  1.00  0.00    -0.243 OA 
HETATM   10  O   UNL     1      -9.260  10.659  70.473  1.00  0.00     0.898 OA 
HETATM   11  O   UNL     1     -10.440   9.155  69.278  1.00  0.00    -0.214 OA 
BRANCH   8  12
HETATM   12  C   UNL     1      -7.030  10.668  67.872  1.00  0.00    -0.077 A  
HETATM   13  C   UNL     1      -6.670  12.024  67.854  1.00  0.00    -0.080 A  
HETATM   14  C   UNL     1      -6.500   9.835  68.872  1.00  0.00    -0.045 A  
HETATM   15  C   UNL     1      -5.828  12.539  68.848  1.00  0.00    -0.070 A  
HETATM   16  C   UNL     1      -5.343  11.714  69.862  1.00  0.00    -0.083 A  
HETATM   17  C   UNL     1      -5.679  10.358  69.870  1.00  0.00    -0.050 A  
ENDBRANCH   8  12
BRANCH   8  18
HETATM   18  N   UNL     1      -7.534   8.946  66.319  1.00  0.00    -0.090 NA 
HETATM   19  H   UNL     1      -6.786   8.945  65.626  1.00  0.00     0.000 HD 
BRANCH  18  20
HETATM   20  C   UNL     1      -8.140   7.723  66.699  1.00  0.00    -0.111 A  
HETATM   21  C   UNL     1      -9.620   5.822  66.370  1.00  0.00    -0.175 A  
HETATM   22  C   UNL     1      -9.364   5.372  67.661  1.00  0.00    -0.122 A  
HETATM   23  C   UNL     1      -8.980   6.967  65.879  1.00  0.00    -0.092 A  
HETATM   24  C   UNL     1      -8.429   6.037  68.448  1.00  0.00    -0.112 A  
HETATM   25  C   UNL     1      -7.813   7.194  67.961  1.00  0.00    -0.118 A  
ENDBRANCH  18  20
ENDBRANCH   8  18
ENDBRANCH   3   4
ENDBRANCH   2   3
TORSDOF 5
ENDMDL
MODEL      168
REMARK 921   NORMALIZED FREE ENERGY PREDICTED BY IDOCK:    1.21 KCAL/MOL
REMARK 922        TOTAL FREE ENERGY PREDICTED BY IDOCK:    0.55 KCAL/MOL
REMARK 923 INTER-LIGAND FREE ENERGY PREDICTED BY IDOCK:    0.38 KCAL/MOL
REMARK 924 INTRA-LIGAND FREE ENERGY PREDICTED BY IDOCK:    0.17 KCAL/MOL
REMARK 927      BINDING AFFINITY PREDICTED BY RF-SCORE:    0.00 PKD
ROOT
HETATM    1  C   UNL     1      -9.949   9.837  63.970  1.00  0.00     0.594 C  
HETATM    2  C   UNL     1      -8.663  10.626  63.757  1.00  0.00    -0.144 C  
ENDROOT
BRANCH   2   3
HETATM    3  C   UNL     1      -8.950  12.127  63.674  1.00  0.00     0.915 C  
BRANCH   3   4
HETATM    4  C   UNL     1      -9.787  12.639  64.858  1.00  0.00    -0.078 C  
HETATM    5  C   UNL     1      -9.451  11.921  66.189  1.00  0.00    -0.243 C  
HETATM    6  C   UNL     1      -7.976  12.117  66.479  1.00  0.00     0.152 C  
HETATM    7  C   UNL     1     -10.243  12.472  67.377  1.00  0.00    -0.213 C  
HETATM    8  N   UNL     1     -10.260  11.729  68.586  1.00  0.00    -0.216 N  
HETATM    9  O   UNL     1     -10.710  13.614  67.257  1.00  0.00    -0.275 OA 
HETATM   10  O   UNL     1      -7.152  11.217  66.408  1.00  0.00    -0.135 OA 
HETATM   11  O   UNL     1      -7.635  13.385  66.792  1.00  0.00     0.257 OA 
BRANCH   8  12
HETATM   12  C   UNL     1      -9.572  10.482  68.720  1.00  0.00    -0.179 A  
HETATM   13  C   UNL     1      -9.816   9.469  67.780  1.00  0.00    -0.196 A  
HETATM   14  C   UNL     1      -8.626  10.258  69.734  1.00  0.00    -0.078 A  
HETATM   15  C   UNL     1      -9.090   8.272  67.835  1.00  0.00    -0.137 A  
HETATM   16  C   UNL     1      -8.121   8.077  68.819  1.00  0.00    -0.125 A  
HETATM   17  C   UNL     1      -7.893   9.072  69.771  1.00  0.00    -0.086 A  
ENDBRANCH   8  12
BRANCH   8  18
HETATM   18  N   UNL     1     -10.306  12.447  69.831  1.00  0.00     0.592 NA 
HETATM   19  H   UNL     1      -9.437  12.685  70.309  1.00  0.00     0.000 HD 
BRANCH  18  20
HETATM   20  C   UNL     1     -11.546  12.826  70.400  1.00  0.00     0.164 A  
HETATM   21  C   UNL     1     -13.138  14.428  71.302  1.00  0.00    -0.421 A  
HETATM   22  C   UNL     1     -14.004  13.398  71.658  1.00  0.00     0.016 A  
HETATM   23  C   UNL     1     -11.937  14.146  70.639  1.00  0.00    -0.385 A  
HETATM   24  C   UNL     1     -13.694  12.088  71.310  1.00  0.00     0.968 A  
HETATM   25  C   UNL     1     -12.481  11.810  70.672  1.00  0.00    -0.364 A  
ENDBRANCH  18  20
ENDBRANCH   8  18
ENDBRANCH   3   4
ENDBRANCH   2   3
TORSDOF 5
ENDMDL
MODEL      169
REMARK 921   NORMALIZED FREE ENERGY PREDICTED BY IDOCK:    1.25 KCAL/MOL
REMARK 922        TOTAL FREE ENERGY PREDICTED BY IDOCK:    0.61 KCAL/MOL
REMARK 923 INTER-LIGAND FREE ENERGY PREDICTED BY IDOCK:    0.44 KCAL/MOL
REMARK 924 INTRA-LIGAND FREE ENERGY PREDICTED BY IDOCK:    0.16 KCAL/MOL
REMARK 927      BINDING AFFINITY PREDICTED BY RF-SCORE:    0.00 PKD
ROOT
HETATM    1  C   UNL     1     -11.312  15.054  63.515  1.00  0.00     1.668 C  
HETATM    2  C   UNL     1     -11.665  13.774  64.262  1.00  0.00    -0.426 C  
ENDROOT
BRANCH   2   3
HETATM    3  C   UNL     1     -10.769  12.616  63.815  1.00  0.00    -0.454 C  
BRANCH   3   4
HETATM    4  C   UNL     1      -9.412  12.602  64.537  1.00  0.00     0.392 C  
HETATM    5  C   UNL     1      -9.356  11.576  65.696  1.00  0.00    -0.221 C  
HETATM    6  C   UNL     1      -9.653  10.200  65.132  1.00  0.00    -0.292 C  
HETATM    7  C   UNL     1      -7.985  11.522  66.376  1.00  0.00    -0.046 C  
HETATM    8  N   UNL     1      -7.871  10.854  67.623  1.00  0.00    -0.111 N  
HETATM    9  O   UNL     1      -7.020  11.944  65.723  1.00  0.00     0.804 OA 
HETATM   10  O   UNL     1     -10.688   9.591  65.358  1.00  0.00     0.689 OA 
HETATM   11  O   UNL     1      -8.688   9.710  64.325  1.00  0.00    -0.178 OA 
BRANCH   8  12
HETATM   12  C   UNL     1      -8.996  10.246  68.264  1.00  0.00    -0.132 A  
HETATM   13  C   UNL     1      -9.021   8.851  68.409  1.00  0.00    -0.134 A  
HETATM   14  C   UNL     1     -10.053  11.006  68.793  1.00  0.00    -0.214 A  
HETATM   15  C   UNL     1     -10.067   8.237  69.111  1.00  0.00    -0.205 A  
HETATM   16  C   UNL     1     -11.088   9.004  69.671  1.00  0.00    -0.080 A  
HETATM   17  C   UNL     1     -11.081  10.391  69.507  1.00  0.00    -0.314 A  
ENDBRANCH   8  12
BRANCH   8  18
HETATM   18  N   UNL     1      -6.650  10.154  67.917  1.00  0.00    -0.065 NA 
HETATM   19  H   UNL     1      -6.013   9.910  67.158  1.00  0.00     0.000 HD 
BRANCH  18  20
HETATM   20  C   UNL     1      -6.323   9.801  69.249  1.00  0.00    -0.047 A  
HETATM   21  C   UNL     1      -5.625  10.279  71.529  1.00  0.00     0.060 A  
HETATM   22  C   UNL     1      -5.567   8.919  71.818  1.00  0.00    -0.056 A  
HETATM   23  C   UNL     1      -6.041  10.716  70.265  1.00  0.00    -0.123 A  
HETATM   24  C   UNL     1      -5.970   7.994  70.861  1.00  0.00    -0.033 A  
HETATM   25  C   UNL     1      -6.359   8.437  69.593  1.00  0.00    -0.036 A  
ENDBRANCH  18  20
ENDBRANCH   8  18
ENDBRANCH   3   4
ENDBRANCH   2   3
TORSDOF 5
ENDMDL
MODEL      170
REMARK 921   NORMALIZED FREE ENERGY PREDICTED BY IDOCK:    6.73 KCAL/MOL
REMARK 922        TOTAL FREE ENERGY PREDICTED BY IDOCK:    7.70 KCAL/MOL
REMARK 923 INTER-LIGAND FREE ENERGY PREDICTED BY IDOCK:    0.96 KCAL/MOL
REMARK 924 INTRA-LIGAND FREE ENERGY PREDICTED BY IDOCK:    6.74 KCAL/MOL
REMARK 927      BINDING AFFINITY PREDICTED BY RF-SCORE:    0.00 PKD
ROOT
HETATM    1  C   UNL     1     -10.784  10.570  70.355  1.00  0.00    -0.074 C  
HETATM    2  C   UNL     1     -12.036  10.648  71.218  1.00  0.00    -0.401 C  
ENDROOT
BRANCH   2   3
HETATM    3  C   UNL     1     -13.105   9.672  70.721  1.00  0.00    -0.128 C  
BRANCH   3   4
HETATM    4  C   UNL     1     -12.646   8.206  70.779  1.00  0.00     0.172 C  
HETATM    5  C   UNL     1     -11.178   8.053  71.249  1.00  0.00    -0.287 C  
HETATM    6  C   UNL     1     -11.046   8.688  72.620  1.00  0.00    -0.014 C  
HETATM    7  C   UNL     1     -10.740   6.590  71.363  1.00  0.00    -0.238 C  
HETATM    8  N   UNL     1      -9.356   6.303  71.494  1.00  0.00    -0.149 N  
HETATM    9  O   UNL     1     -11.639   5.745  71.477  1.00  0.00    -0.162 OA 
HETATM   10  O   UNL     1     -10.437   9.728  72.822  1.00  0.00     2.433 OA 
HETATM   11  O   UNL     1     -11.688   8.024  73.604  1.00  0.00     0.475 OA 
BRANCH   8  12
HETATM   12  C   UNL     1      -8.366   7.335  71.511  1.00  0.00    -0.109 A  
HETATM   13  C   UNL     1      -8.656   8.563  70.898  1.00  0.00    -0.184 A  
HETATM   14  C   UNL     1      -7.132   7.172  72.163  1.00  0.00    -0.068 A  
HETATM   15  C   UNL     1      -7.739   9.620  70.977  1.00  0.00     0.217 A  
HETATM   16  C   UNL     1      -6.537   9.463  71.665  1.00  0.00     0.122 A  
HETATM   17  C   UNL     1      -6.233   8.234  72.255  1.00  0.00    -0.062 A  
ENDBRANCH   8  12
BRANCH   8  18
HETATM   18  N   UNL     1      -8.964   5.176  72.295  1.00  0.00    -0.128 NA 
HETATM   19  H   UNL     1      -9.030   5.232  73.312  1.00  0.00     0.000 HD 
BRANCH  18  20
HETATM   20  C   UNL     1      -8.486   3.989  71.687  1.00  0.00    -0.094 A  
HETATM   21  C   UNL     1      -8.591   1.626  71.126  1.00  0.00    -0.083 A  
HETATM   22  C   UNL     1      -7.330   1.687  70.540  1.00  0.00    -0.033 A  
HETATM   23  C   UNL     1      -9.182   2.779  71.657  1.00  0.00    -0.181 A  
HETATM   24  C   UNL     1      -6.677   2.911  70.442  1.00  0.00    -0.033 A  
HETATM   25  C   UNL     1      -7.261   4.053  70.998  1.00  0.00    -0.033 A  
ENDBRANCH  18  20
ENDBRANCH   8  18
ENDBRANCH   3   4
ENDBRANCH   2   3
TORSDOF 5
ENDMDL
MODEL      171
REMARK 921   NORMALIZED FREE ENERGY PREDICTED BY IDOCK:   11.35 KCAL/MOL
REMARK 922        TOTAL FREE ENERGY PREDICTED BY IDOCK:   13.67 KCAL/MOL
REMARK 923 INTER-LIGAND FREE ENERGY PREDICTED BY IDOCK:    9.88 KCAL/MOL
REMARK 924 INTRA-LIGAND FREE ENERGY PREDICTED BY IDOCK:    3.78 KCAL/MOL
REMARK 927      BINDING AFFINITY PREDICTED BY RF-SCORE:    0.00 PKD
ROOT
HETATM    1  C   UNL     1     -13.117  10.232  69.000  1.00  0.00     2.753 C  
HETATM    2  C   UNL     1     -13.899  11.317  69.730  1.00  0.00     3.753 C  
ENDROOT
BRANCH   2   3
HETATM    3  C   UNL     1     -13.161  12.657  69.671  1.00  0.00     1.463 C  
BRANCH   3   4
HETATM    4  C   UNL     1     -12.216  12.763  68.463  1.00  0.00     0.026 C  
HETATM    5  C   UNL     1     -11.344  14.043  68.491  1.00  0.00    -0.308 C  
HETATM    6  C   UNL     1     -10.539  14.046  69.776  1.00  0.00     0.304 C  
HETATM    7  C   UNL     1     -10.362  14.117  67.318  1.00  0.00    -0.267 C  
HETATM    8  N   UNL     1      -9.716  15.352  67.050  1.00  0.00    -0.221 N  
HETATM    9  O   UNL     1     -10.080  13.049  66.756  1.00  0.00    -0.238 OA 
HETATM   10  O   UNL     1     -10.751  14.819  70.699  1.00  0.00    -0.018 OA 
HETATM   11  O   UNL     1      -9.581  13.097  69.834  1.00  0.00     1.776 OA 
BRANCH   8  12
HETATM   12  C   UNL     1      -9.964  16.524  67.833  1.00  0.00    -0.245 A  
HETATM   13  C   UNL     1     -10.237  17.733  67.176  1.00  0.00    -0.353 A  
HETATM   14  C   UNL     1      -9.989  16.490  69.238  1.00  0.00    -0.244 A  
HETATM   15  C   UNL     1     -10.572  18.874  67.918  1.00  0.00    -0.425 A  
HETATM   16  C   UNL     1     -10.638  18.819  69.309  1.00  0.00     0.624 A  
HETATM   17  C   UNL     1     -10.341  17.624  69.969  1.00  0.00     0.754 A  
ENDBRANCH   8  12
BRANCH   8  18
HETATM   18  N   UNL     1      -8.370  15.326  66.546  1.00  0.00    -0.392 NA 
HETATM   19  H   UNL     1      -8.175  15.674  65.607  1.00  0.00     0.000 HD 
BRANCH  18  20
HETATM   20  C   UNL     1      -7.311  14.821  67.340  1.00  0.00    -0.185 A  
HETATM   21  C   UNL     1      -5.165  13.731  67.684  1.00  0.00     0.058 A  
HETATM   22  C   UNL     1      -5.358  13.739  69.062  1.00  0.00    -0.076 A  
HETATM   23  C   UNL     1      -6.116  14.306  66.832  1.00  0.00     1.622 A  
HETATM   24  C   UNL     1      -6.479  14.365  69.595  1.00  0.00    -0.145 A  
HETATM   25  C   UNL     1      -7.438  14.915  68.738  1.00  0.00    -0.132 A  
ENDBRANCH  18  20
ENDBRANCH   8  18
ENDBRANCH   3   4
ENDBRANCH   2   3
TORSDOF 5
ENDMDL
MODEL      172
REMARK 921   NORMALIZED FREE ENERGY PREDICTED BY IDOCK:   13.08 KCAL/MOL
REMARK 922        TOTAL FREE ENERGY PREDICTED BY IDOCK:   15.90 KCAL/MOL
REMARK 923 INTER-LIGAND FREE ENERGY PREDICTED BY IDOCK:   12.73 KCAL/MOL
REMARK 924 INTRA-LIGAND FREE ENERGY PREDICTED BY IDOCK:    3.17 KCAL/MOL
REMARK 927      BINDING AFFINITY PREDICTED BY RF-SCORE:    0.00 PKD
ROOT
HETATM    1  C   UNL     1      -5.253  15.689  64.105  1.00  0.00    13.598 C  
HETATM    2  C   UNL     1      -5.126  16.335  65.479  1.00  0.00     3.644 C  
ENDROOT
BRANCH   2   3
HETATM    3  C   UNL     1      -5.428  17.834  65.409  1.00  0.00    -0.000 C  
BRANCH   3   4
HETATM    4  C   UNL     1      -6.934  18.140  65.467  1.00  0.00    -0.094 C  
HETATM    5  C   UNL     1      -7.741  17.053  66.221  1.00  0.00    -0.346 C  
HETATM    6  C   UNL     1      -7.186  16.933  67.626  1.00  0.00    -0.143 C  
HETATM    7  C   UNL     1      -9.231  17.389  66.329  1.00  0.00    -0.208 C  
HETATM    8  N   UNL     1     -10.131  16.365  66.725  1.00  0.00    -0.276 N  
HETATM    9  O   UNL     1      -9.547  18.580  66.200  1.00  0.00    -0.445 OA 
HETATM   10  O   UNL     1      -6.548  15.966  68.016  1.00  0.00    -0.113 OA 
HETATM   11  O   UNL     1      -7.426  18.004  68.412  1.00  0.00    -0.258 OA 
BRANCH   8  12
HETATM   12  C   UNL     1      -9.689  15.035  67.013  1.00  0.00    -0.236 A  
HETATM   13  C   UNL     1      -9.825  14.047  66.026  1.00  0.00    -0.316 A  
HETATM   14  C   UNL     1      -9.080  14.700  68.234  1.00  0.00    -0.189 A  
HETATM   15  C   UNL     1      -9.319  12.760  66.249  1.00  0.00    -0.156 A  
HETATM   16  C   UNL     1      -8.677  12.450  67.447  1.00  0.00    -0.183 A  
HETATM   17  C   UNL     1      -8.561  13.423  68.442  1.00  0.00    -0.134 A  
ENDBRANCH   8  12
BRANCH   8  18
HETATM   18  N   UNL     1     -11.275  16.728  67.517  1.00  0.00    -0.024 NA 
HETATM   19  H   UNL     1     -11.800  17.572  67.289  1.00  0.00     0.000 HD 
BRANCH  18  20
HETATM   20  C   UNL     1     -11.679  15.924  68.611  1.00  0.00    -0.322 A  
HETATM   21  C   UNL     1     -12.387  13.842  69.650  1.00  0.00    -0.284 A  
HETATM   22  C   UNL     1     -12.606  14.495  70.859  1.00  0.00    -0.414 A  
HETATM   23  C   UNL     1     -11.887  14.544  68.546  1.00  0.00    -0.355 A  
HETATM   24  C   UNL     1     -12.281  15.842  70.981  1.00  0.00    -0.466 A  
HETATM   25  C   UNL     1     -11.806  16.543  69.868  1.00  0.00     0.448 A  
ENDBRANCH  18  20
ENDBRANCH   8  18
ENDBRANCH   3   4
ENDBRANCH   2   3
TORSDOF 5
ENDMDL
MODEL      173
REMARK 921   NORMALIZED FREE ENERGY PREDICTED BY IDOCK:   13.52 KCAL/MOL
REMARK 922        TOTAL FREE ENERGY PREDICTED BY IDOCK:   16.46 KCAL/MOL
REMARK 923 INTER-LIGAND FREE ENERGY PREDICTED BY IDOCK:   14.80 KCAL/MOL
REMARK 924 INTRA-LIGAND FREE ENERGY PREDICTED BY IDOCK:    1.66 KCAL/MOL
REMARK 927      BINDING AFFINITY PREDICTED BY RF-SCORE:    0.00 PKD
ROOT
HETATM    1  C   UNL     1     -10.145   9.947  64.287  1.00  0.00     0.393 C  
HETATM    2  C   UNL     1      -8.678  10.028  63.885  1.00  0.00    -0.219 C  
ENDROOT
BRANCH   2   3
HETATM    3  C   UNL     1      -8.450  11.147  62.867  1.00  0.00    -0.037 C  
BRANCH   3   4
HETATM    4  C   UNL     1      -8.589  12.549  63.483  1.00  0.00     3.125 C  
HETATM    5  C   UNL     1      -8.687  12.521  65.029  1.00  0.00     1.551 C  
HETATM    6  C   UNL     1      -7.449  11.839  65.575  1.00  0.00     1.359 C  
HETATM    7  C   UNL     1      -8.766  13.921  65.644  1.00  0.00     1.527 C  
HETATM    8  N   UNL     1      -9.153  14.045  67.004  1.00  0.00    -0.237 N  
HETATM    9  O   UNL     1      -8.347  14.860  64.952  1.00  0.00     4.056 OA 
HETATM   10  O   UNL     1      -7.464  10.731  66.091  1.00  0.00    -0.135 OA 
HETATM   11  O   UNL     1      -6.309  12.545  65.416  1.00  0.00     3.522 OA 
BRANCH   8  12
HETATM   12  C   UNL     1      -9.480  12.906  67.806  1.00  0.00    -0.202 A  
HETATM   13  C   UNL     1     -10.803  12.438  67.812  1.00  0.00    -0.257 A  
HETATM   14  C   UNL     1      -8.509  12.215  68.550  1.00  0.00    -0.083 A  
HETATM   15  C   UNL     1     -11.131  11.273  68.518  1.00  0.00    -0.288 A  
HETATM   16  C   UNL     1     -10.151  10.570  69.216  1.00  0.00    -0.244 A  
HETATM   17  C   UNL     1      -8.838  11.046  69.234  1.00  0.00     0.090 A  
ENDBRANCH   8  12
BRANCH   8  18
HETATM   18  N   UNL     1      -8.569  15.098  67.789  1.00  0.00    -0.148 NA 
HETATM   19  H   UNL     1      -7.554  15.175  67.855  1.00  0.00     0.000 HD 
BRANCH  18  20
HETATM   20  C   UNL     1      -9.389  16.029  68.472  1.00  0.00    -0.213 A  
HETATM   21  C   UNL     1     -10.612  18.120  68.687  1.00  0.00    -0.077 A  
HETATM   22  C   UNL     1     -10.907  17.835  70.016  1.00  0.00     1.281 A  
HETATM   23  C   UNL     1      -9.894  17.202  67.908  1.00  0.00    -0.283 A  
HETATM   24  C   UNL     1     -10.526  16.612  70.558  1.00  0.00     0.579 A  
HETATM   25  C   UNL     1      -9.788  15.712  69.784  1.00  0.00    -0.260 A  
ENDBRANCH  18  20
ENDBRANCH   8  18
ENDBRANCH   3   4
ENDBRANCH   2   3
TORSDOF 5
ENDMDL
