MODEL        1
REMARK 921   NORMALIZED FREE ENERGY PREDICTED BY IDOCK:   -7.07 KCAL/MOL
REMARK 922        TOTAL FREE ENERGY PREDICTED BY IDOCK:  -10.73 KCAL/MOL
REMARK 923 INTER-LIGAND FREE ENERGY PREDICTED BY IDOCK:   -9.96 KCAL/MOL
REMARK 924 INTRA-LIGAND FREE ENERGY PREDICTED BY IDOCK:   -0.77 KCAL/MOL
REMARK 927      BINDING AFFINITY PREDICTED BY RF-SCORE:    0.00 PKD
ROOT
HETATM    1  C   UNL     1     -12.480  15.385  73.760  1.00  0.00    -0.751 C  
HETATM    2  C   UNL     1     -13.684  15.894  72.989  1.00  0.00    -0.558 C  
ENDROOT
BRANCH   2   3
HETATM    3  C   UNL     1     -13.842  15.142  71.664  1.00  0.00    -0.597 C  
BRANCH   3   4
HETATM    4  C   UNL     1     -12.679  15.440  70.732  1.00  0.00    -0.459 C  
BRANCH   4   5
HETATM    5  N   UNL     1     -12.225  14.243  70.028  1.00  0.00    -0.342 NA 
HETATM    6  H   UNL     1     -12.274  13.332  70.485  1.00  0.00     0.000 HD 
BRANCH   5   7
HETATM    7  C   UNL     1     -11.725  14.348  68.733  1.00  0.00    -0.337 A  
HETATM    8  C   UNL     1     -11.879  13.342  67.754  1.00  0.00    -0.353 A  
HETATM    9  C   UNL     1     -10.021  17.124  66.805  1.00  0.00    -0.291 C  
HETATM   10  C   UNL     1     -11.407  13.594  66.445  1.00  0.00    -0.316 A  
HETATM   11  O   UNL     1      -9.081  17.143  65.844  1.00  0.00    -0.513 OA 
HETATM   12  O   UNL     1     -10.344  18.114  67.439  1.00  0.00    -0.355 OA 
HETATM   13  C   UNL     1     -10.789  14.811  66.095  1.00  0.00    -0.321 A  
HETATM   14  C   UNL     1     -10.613  15.787  67.066  1.00  0.00    -0.316 A  
HETATM   15  C   UNL     1     -11.081  15.545  68.357  1.00  0.00    -0.315 A  
BRANCH   8  16
HETATM   16  O   UNL     1     -12.284  12.058  68.057  1.00  0.00    -0.454 OA 
BRANCH  16  17
HETATM   17  C   UNL     1     -11.638  11.262  68.976  1.00  0.00    -0.319 A  
HETATM   18  C   UNL     1     -11.963   9.899  70.971  1.00  0.00    -0.456 A  
HETATM   19  C   UNL     1     -10.620   9.514  70.932  1.00  0.00    -0.395 A  
HETATM   20  C   UNL     1     -10.290  10.913  68.975  1.00  0.00    -0.230 A  
HETATM   21  C   UNL     1     -12.466  10.762  69.994  1.00  0.00    -0.317 A  
HETATM   22  C   UNL     1      -9.792  10.020  69.935  1.00  0.00    -0.266 A  
ENDBRANCH  16  17
ENDBRANCH   8  16
BRANCH  10  23
HETATM   23  S   UNL     1     -11.613  12.398  65.160  1.00  0.00    -0.366 S  
HETATM   24  O   UNL     1     -13.011  12.288  64.814  1.00  0.00    -0.713 OA 
HETATM   25  H2  UNL     1     -10.326  13.985  63.829  1.00  0.00     0.000 HD 
HETATM   26  H1  UNL     1     -10.933  12.400  63.126  1.00  0.00     0.000 HD 
HETATM   27  N   UNL     1     -10.814  13.090  63.867  1.00  0.00    -0.371 N  
HETATM   28  O   UNL     1     -10.827  11.228  65.499  1.00  0.00    -0.253 OA 
ENDBRANCH  10  23
ENDBRANCH   5   7
ENDBRANCH   4   5
ENDBRANCH   3   4
ENDBRANCH   2   3
TORSDOF 7
ENDMDL
MODEL        2
REMARK 921   NORMALIZED FREE ENERGY PREDICTED BY IDOCK:   -7.02 KCAL/MOL
REMARK 922        TOTAL FREE ENERGY PREDICTED BY IDOCK:  -10.66 KCAL/MOL
REMARK 923 INTER-LIGAND FREE ENERGY PREDICTED BY IDOCK:   -9.80 KCAL/MOL
REMARK 924 INTRA-LIGAND FREE ENERGY PREDICTED BY IDOCK:   -0.86 KCAL/MOL
REMARK 927      BINDING AFFINITY PREDICTED BY RF-SCORE:    0.00 PKD
ROOT
HETATM    1  C   UNL     1     -13.741  13.536  72.292  1.00  0.00    -0.700 C  
HETATM    2  C   UNL     1     -14.175  14.980  72.120  1.00  0.00    -0.636 C  
ENDROOT
BRANCH   2   3
HETATM    3  C   UNL     1     -13.058  15.940  72.542  1.00  0.00    -0.536 C  
BRANCH   3   4
HETATM    4  C   UNL     1     -11.758  15.602  71.828  1.00  0.00    -0.454 C  
BRANCH   4   5
HETATM    5  N   UNL     1     -11.711  16.173  70.484  1.00  0.00    -0.470 NA 
HETATM    6  H   UNL     1     -11.790  17.181  70.354  1.00  0.00     0.000 HD 
BRANCH   5   7
HETATM    7  C   UNL     1     -11.557  15.337  69.382  1.00  0.00    -0.330 A  
HETATM    8  C   UNL     1     -11.244  15.805  68.086  1.00  0.00    -0.344 A  
HETATM    9  C   UNL     1     -11.523  11.579  68.933  1.00  0.00    -0.289 C  
HETATM   10  C   UNL     1     -11.023  14.858  67.060  1.00  0.00    -0.327 A  
HETATM   11  O   UNL     1     -11.917  10.760  67.942  1.00  0.00    -0.518 OA 
HETATM   12  O   UNL     1     -11.277  11.187  70.062  1.00  0.00    -0.259 OA 
HETATM   13  C   UNL     1     -11.111  13.470  67.292  1.00  0.00    -0.302 A  
HETATM   14  C   UNL     1     -11.448  13.014  68.559  1.00  0.00    -0.340 A  
HETATM   15  C   UNL     1     -11.661  13.943  69.575  1.00  0.00    -0.358 A  
BRANCH   8  16
HETATM   16  O   UNL     1     -11.336  17.134  67.727  1.00  0.00    -0.051 OA 
BRANCH  16  17
HETATM   17  C   UNL     1     -10.279  18.011  67.810  1.00  0.00    -0.378 A  
HETATM   18  C   UNL     1      -9.546  20.268  67.251  1.00  0.00    -0.581 A  
HETATM   19  C   UNL     1      -8.341  20.048  67.921  1.00  0.00    -0.297 A  
HETATM   20  C   UNL     1      -9.055  17.784  68.433  1.00  0.00    -0.278 A  
HETATM   21  C   UNL     1     -10.509  19.257  67.204  1.00  0.00    -0.560 A  
HETATM   22  C   UNL     1      -8.102  18.810  68.510  1.00  0.00    -0.379 A  
ENDBRANCH  16  17
ENDBRANCH   8  16
BRANCH  10  23
HETATM   23  S   UNL     1     -10.578  15.374  65.429  1.00  0.00    -0.436 S  
HETATM   24  O   UNL     1      -9.323  16.087  65.467  1.00  0.00    -0.380 OA 
HETATM   25  H2  UNL     1     -10.409  12.979  64.995  1.00  0.00     0.000 HD 
HETATM   26  H1  UNL     1     -10.070  14.226  63.689  1.00  0.00     0.000 HD 
HETATM   27  N   UNL     1     -10.326  13.928  64.630  1.00  0.00    -0.418 N  
HETATM   28  O   UNL     1     -11.751  15.946  64.798  1.00  0.00    -0.182 OA 
ENDBRANCH  10  23
ENDBRANCH   5   7
ENDBRANCH   4   5
ENDBRANCH   3   4
ENDBRANCH   2   3
TORSDOF 7
ENDMDL
MODEL        3
REMARK 921   NORMALIZED FREE ENERGY PREDICTED BY IDOCK:   -6.91 KCAL/MOL
REMARK 922        TOTAL FREE ENERGY PREDICTED BY IDOCK:  -10.51 KCAL/MOL
REMARK 923 INTER-LIGAND FREE ENERGY PREDICTED BY IDOCK:   -9.67 KCAL/MOL
REMARK 924 INTRA-LIGAND FREE ENERGY PREDICTED BY IDOCK:   -0.83 KCAL/MOL
REMARK 927      BINDING AFFINITY PREDICTED BY RF-SCORE:    0.00 PKD
ROOT
HETATM    1  C   UNL     1     -10.484  19.651  66.643  1.00  0.00    -0.610 C  
HETATM    2  C   UNL     1     -10.434  19.516  68.154  1.00  0.00    -0.497 C  
ENDROOT
BRANCH   2   3
HETATM    3  C   UNL     1     -10.154  18.067  68.564  1.00  0.00    -0.399 C  
BRANCH   3   4
HETATM    4  C   UNL     1     -10.538  17.107  67.449  1.00  0.00    -0.297 C  
BRANCH   4   5
HETATM    5  N   UNL     1     -11.577  16.171  67.871  1.00  0.00    -0.100 NA 
HETATM    6  H   UNL     1     -12.332  16.486  68.482  1.00  0.00     0.000 HD 
BRANCH   5   7
HETATM    7  C   UNL     1     -11.537  14.849  67.439  1.00  0.00    -0.332 A  
HETATM    8  C   UNL     1     -11.417  13.746  68.313  1.00  0.00    -0.312 A  
HETATM    9  C   UNL     1     -11.964  13.187  64.065  1.00  0.00    -0.460 C  
HETATM   10  C   UNL     1     -11.476  12.442  67.769  1.00  0.00    -0.324 A  
HETATM   11  O   UNL     1     -11.430  12.091  63.498  1.00  0.00    -0.425 OA 
HETATM   12  O   UNL     1     -12.561  14.041  63.431  1.00  0.00    -0.845 OA 
HETATM   13  C   UNL     1     -11.647  12.215  66.388  1.00  0.00    -0.429 A  
HETATM   14  C   UNL     1     -11.735  13.301  65.528  1.00  0.00    -0.376 A  
HETATM   15  C   UNL     1     -11.683  14.588  66.060  1.00  0.00    -0.347 A  
BRANCH   8  16
HETATM   16  O   UNL     1     -11.048  13.876  69.636  1.00  0.00    -0.188 OA 
BRANCH  16  17
HETATM   17  C   UNL     1     -11.892  14.360  70.609  1.00  0.00    -0.295 A  
HETATM   18  C   UNL     1     -12.082  15.977  72.423  1.00  0.00    -0.629 A  
HETATM   19  C   UNL     1     -13.419  15.618  72.610  1.00  0.00    -0.655 A  
HETATM   20  C   UNL     1     -13.210  13.973  70.836  1.00  0.00    -0.245 A  
HETATM   21  C   UNL     1     -11.329  15.355  71.424  1.00  0.00    -0.449 A  
HETATM   22  C   UNL     1     -13.977  14.621  71.816  1.00  0.00    -0.564 A  
ENDBRANCH  16  17
ENDBRANCH   8  16
BRANCH  10  23
HETATM   23  S   UNL     1     -11.383  11.018  68.812  1.00  0.00    -0.311 S  
HETATM   24  O   UNL     1     -12.654  10.805  69.463  1.00  0.00    -0.293 OA 
HETATM   25  H2  UNL     1     -11.068   9.818  66.711  1.00  0.00     0.000 HD 
HETATM   26  H1  UNL     1     -11.089   8.949  68.330  1.00  0.00     0.000 HD 
HETATM   27  N   UNL     1     -11.143   9.770  67.728  1.00  0.00    -0.180 N  
HETATM   28  O   UNL     1     -10.150  11.091  69.571  1.00  0.00    -0.110 OA 
ENDBRANCH  10  23
ENDBRANCH   5   7
ENDBRANCH   4   5
ENDBRANCH   3   4
ENDBRANCH   2   3
TORSDOF 7
ENDMDL
MODEL        4
REMARK 921   NORMALIZED FREE ENERGY PREDICTED BY IDOCK:   -6.77 KCAL/MOL
REMARK 922        TOTAL FREE ENERGY PREDICTED BY IDOCK:  -10.31 KCAL/MOL
REMARK 923 INTER-LIGAND FREE ENERGY PREDICTED BY IDOCK:   -9.31 KCAL/MOL
REMARK 924 INTRA-LIGAND FREE ENERGY PREDICTED BY IDOCK:   -1.00 KCAL/MOL
REMARK 927      BINDING AFFINITY PREDICTED BY RF-SCORE:    0.00 PKD
ROOT
HETATM    1  C   UNL     1     -11.899   9.112  72.052  1.00  0.00    -0.407 C  
HETATM    2  C   UNL     1     -10.977   8.607  70.957  1.00  0.00    -0.314 C  
ENDROOT
BRANCH   2   3
HETATM    3  C   UNL     1     -10.392   9.773  70.154  1.00  0.00    -0.335 C  
BRANCH   3   4
HETATM    4  C   UNL     1     -11.020   9.844  68.771  1.00  0.00    -0.179 C  
BRANCH   4   5
HETATM    5  N   UNL     1     -12.115  10.809  68.718  1.00  0.00    -0.785 NA 
HETATM    6  H   UNL     1     -13.009  10.546  68.305  1.00  0.00     0.000 HD 
BRANCH   5   7
HETATM    7  C   UNL     1     -11.935  12.090  69.234  1.00  0.00    -0.270 A  
HETATM    8  C   UNL     1     -11.235  13.112  68.557  1.00  0.00    -0.272 A  
HETATM    9  C   UNL     1     -13.224  13.872  72.315  1.00  0.00    -0.473 C  
HETATM   10  C   UNL     1     -11.192  14.402  69.137  1.00  0.00    -0.272 A  
HETATM   11  O   UNL     1     -12.709  14.814  73.124  1.00  0.00    -0.445 OA 
HETATM   12  O   UNL     1     -14.200  13.203  72.611  1.00  0.00    -0.677 OA 
HETATM   13  C   UNL     1     -11.822  14.690  70.365  1.00  0.00    -0.365 A  
HETATM   14  C   UNL     1     -12.484  13.676  71.042  1.00  0.00    -0.456 A  
HETATM   15  C   UNL     1     -12.534  12.405  70.472  1.00  0.00    -0.270 A  
BRANCH   8  16
HETATM   16  O   UNL     1     -10.428  12.870  67.465  1.00  0.00    -0.220 OA 
BRANCH  16  17
HETATM   17  C   UNL     1     -10.921  12.623  66.204  1.00  0.00    -0.282 A  
HETATM   18  C   UNL     1     -10.495  11.426  64.123  1.00  0.00    -0.421 A  
HETATM   19  C   UNL     1     -11.727  11.853  63.620  1.00  0.00    -0.572 A  
HETATM   20  C   UNL     1     -12.124  13.084  65.675  1.00  0.00    -0.507 A  
HETATM   21  C   UNL     1     -10.102  11.805  65.409  1.00  0.00    -0.291 A  
HETATM   22  C   UNL     1     -12.535  12.676  64.397  1.00  0.00    -0.509 A  
ENDBRANCH  16  17
ENDBRANCH   8  16
BRANCH  10  23
HETATM   23  S   UNL     1     -10.376  15.738  68.318  1.00  0.00    -0.245 S  
HETATM   24  O   UNL     1     -11.016  15.999  67.050  1.00  0.00    -0.273 OA 
HETATM   25  H2  UNL     1     -11.200  17.055  70.199  1.00  0.00     0.000 HD 
HETATM   26  H1  UNL     1     -10.203  17.809  68.852  1.00  0.00     0.000 HD 
HETATM   27  N   UNL     1     -10.674  17.037  69.324  1.00  0.00    -0.294 N  
HETATM   28  O   UNL     1      -8.946  15.520  68.409  1.00  0.00    -0.180 OA 
ENDBRANCH  10  23
ENDBRANCH   5   7
ENDBRANCH   4   5
ENDBRANCH   3   4
ENDBRANCH   2   3
TORSDOF 7
ENDMDL
MODEL        5
REMARK 921   NORMALIZED FREE ENERGY PREDICTED BY IDOCK:   -6.75 KCAL/MOL
REMARK 922        TOTAL FREE ENERGY PREDICTED BY IDOCK:  -10.27 KCAL/MOL
REMARK 923 INTER-LIGAND FREE ENERGY PREDICTED BY IDOCK:   -9.49 KCAL/MOL
REMARK 924 INTRA-LIGAND FREE ENERGY PREDICTED BY IDOCK:   -0.78 KCAL/MOL
REMARK 927      BINDING AFFINITY PREDICTED BY RF-SCORE:    0.00 PKD
ROOT
HETATM    1  C   UNL     1     -12.104   9.045  71.840  1.00  0.00    -0.448 C  
HETATM    2  C   UNL     1     -13.212  10.082  71.831  1.00  0.00    -0.557 C  
ENDROOT
BRANCH   2   3
HETATM    3  C   UNL     1     -12.714  11.408  71.247  1.00  0.00    -0.498 C  
BRANCH   3   4
HETATM    4  C   UNL     1     -12.257  11.226  69.808  1.00  0.00    -0.275 C  
BRANCH   4   5
HETATM    5  N   UNL     1     -11.090  12.047  69.499  1.00  0.00    -0.452 NA 
HETATM    6  H   UNL     1     -10.235  11.947  70.047  1.00  0.00     0.000 HD 
BRANCH   5   7
HETATM    7  C   UNL     1     -11.145  12.967  68.456  1.00  0.00    -0.267 A  
HETATM    8  C   UNL     1     -10.808  14.331  68.599  1.00  0.00    -0.253 A  
HETATM    9  C   UNL     1     -11.836  12.673  64.746  1.00  0.00    -0.380 C  
HETATM   10  C   UNL     1     -10.815  15.154  67.450  1.00  0.00    -0.302 A  
HETATM   11  O   UNL     1     -12.420  13.482  63.845  1.00  0.00    -0.670 OA 
HETATM   12  O   UNL     1     -11.617  11.491  64.536  1.00  0.00    -0.211 OA 
HETATM   13  C   UNL     1     -11.151  14.655  66.175  1.00  0.00    -0.334 A  
HETATM   14  C   UNL     1     -11.510  13.321  66.042  1.00  0.00    -0.360 A  
HETATM   15  C   UNL     1     -11.499  12.504  67.171  1.00  0.00    -0.414 A  
BRANCH   8  16
HETATM   16  O   UNL     1     -10.666  14.942  69.829  1.00  0.00    -0.248 OA 
BRANCH  16  17
HETATM   17  C   UNL     1     -11.712  15.125  70.703  1.00  0.00    -0.312 A  
HETATM   18  C   UNL     1     -12.275  15.622  73.023  1.00  0.00    -0.574 A  
HETATM   19  C   UNL     1     -13.632  15.652  72.692  1.00  0.00    -0.667 A  
HETATM   20  C   UNL     1     -13.070  15.108  70.394  1.00  0.00    -0.232 A  
HETATM   21  C   UNL     1     -11.324  15.367  72.031  1.00  0.00    -0.466 A  
HETATM   22  C   UNL     1     -14.022  15.398  71.381  1.00  0.00    -0.565 A  
ENDBRANCH  16  17
ENDBRANCH   8  16
BRANCH  10  23
HETATM   23  S   UNL     1     -10.355  16.858  67.551  1.00  0.00    -0.322 S  
HETATM   24  O   UNL     1     -11.128  17.513  68.580  1.00  0.00    -0.123 OA 
HETATM   25  H2  UNL     1      -8.200  15.968  68.267  1.00  0.00     0.000 HD 
HETATM   26  H1  UNL     1      -8.501  17.774  68.121  1.00  0.00     0.000 HD 
HETATM   27  N   UNL     1      -8.766  16.791  68.063  1.00  0.00    -0.207 N  
HETATM   28  O   UNL     1     -10.288  17.390  66.205  1.00  0.00    -0.355 OA 
ENDBRANCH  10  23
ENDBRANCH   5   7
ENDBRANCH   4   5
ENDBRANCH   3   4
ENDBRANCH   2   3
TORSDOF 7
ENDMDL
MODEL        6
REMARK 921   NORMALIZED FREE ENERGY PREDICTED BY IDOCK:   -6.67 KCAL/MOL
REMARK 922        TOTAL FREE ENERGY PREDICTED BY IDOCK:  -10.17 KCAL/MOL
REMARK 923 INTER-LIGAND FREE ENERGY PREDICTED BY IDOCK:   -9.38 KCAL/MOL
REMARK 924 INTRA-LIGAND FREE ENERGY PREDICTED BY IDOCK:   -0.79 KCAL/MOL
REMARK 927      BINDING AFFINITY PREDICTED BY RF-SCORE:    0.00 PKD
ROOT
HETATM    1  C   UNL     1      -9.666  10.040  64.972  1.00  0.00    -0.386 C  
HETATM    2  C   UNL     1      -9.378   9.969  66.460  1.00  0.00    -0.201 C  
ENDROOT
BRANCH   2   3
HETATM    3  C   UNL     1     -10.610   9.489  67.233  1.00  0.00    -0.317 C  
BRANCH   3   4
HETATM    4  C   UNL     1     -10.825  10.329  68.482  1.00  0.00    -0.240 C  
BRANCH   4   5
HETATM    5  N   UNL     1     -11.928  11.273  68.320  1.00  0.00    -0.621 NA 
HETATM    6  H   UNL     1     -12.832  11.083  68.753  1.00  0.00     0.000 HD 
BRANCH   5   7
HETATM    7  C   UNL     1     -11.743  12.433  67.573  1.00  0.00    -0.357 A  
HETATM    8  C   UNL     1     -11.177  13.616  68.097  1.00  0.00    -0.275 A  
HETATM    9  C   UNL     1     -12.212  13.293  63.917  1.00  0.00    -0.425 C  
HETATM   10  C   UNL     1     -10.955  14.706  67.223  1.00  0.00    -0.317 A  
HETATM   11  O   UNL     1     -12.576  14.412  63.267  1.00  0.00    -0.655 OA 
HETATM   12  O   UNL     1     -12.195  12.193  63.389  1.00  0.00    -0.528 OA 
HETATM   13  C   UNL     1     -11.285  14.644  65.854  1.00  0.00    -0.336 A  
HETATM   14  C   UNL     1     -11.867  13.491  65.348  1.00  0.00    -0.379 A  
HETATM   15  C   UNL     1     -12.083  12.413  66.204  1.00  0.00    -0.295 A  
BRANCH   8  16
HETATM   16  O   UNL     1     -11.014  13.833  69.451  1.00  0.00    -0.200 OA 
BRANCH  16  17
HETATM   17  C   UNL     1     -12.065  14.079  70.305  1.00  0.00    -0.355 A  
HETATM   18  C   UNL     1     -13.413  13.118  72.095  1.00  0.00    -0.653 A  
HETATM   19  C   UNL     1     -14.097  14.327  72.235  1.00  0.00    -0.621 A  
HETATM   20  C   UNL     1     -12.787  15.263  70.418  1.00  0.00    -0.360 A  
HETATM   21  C   UNL     1     -12.399  13.001  71.140  1.00  0.00    -0.270 A  
HETATM   22  C   UNL     1     -13.781  15.393  71.399  1.00  0.00    -0.591 A  
ENDBRANCH  16  17
ENDBRANCH   8  16
BRANCH  10  23
HETATM   23  S   UNL     1     -10.204  16.196  67.804  1.00  0.00    -0.274 S  
HETATM   24  O   UNL     1      -9.078  15.879  68.650  1.00  0.00    -0.188 OA 
HETATM   25  H2  UNL     1      -9.678  16.545  65.447  1.00  0.00     0.000 HD 
HETATM   26  H1  UNL     1      -9.184  17.755  66.739  1.00  0.00     0.000 HD 
HETATM   27  N   UNL     1      -9.618  16.895  66.404  1.00  0.00    -0.271 N  
HETATM   28  O   UNL     1     -11.254  17.089  68.250  1.00  0.00    -0.267 OA 
ENDBRANCH  10  23
ENDBRANCH   5   7
ENDBRANCH   4   5
ENDBRANCH   3   4
ENDBRANCH   2   3
TORSDOF 7
ENDMDL
MODEL        7
REMARK 921   NORMALIZED FREE ENERGY PREDICTED BY IDOCK:   -6.62 KCAL/MOL
REMARK 922        TOTAL FREE ENERGY PREDICTED BY IDOCK:  -10.10 KCAL/MOL
REMARK 923 INTER-LIGAND FREE ENERGY PREDICTED BY IDOCK:   -8.38 KCAL/MOL
REMARK 924 INTRA-LIGAND FREE ENERGY PREDICTED BY IDOCK:   -1.72 KCAL/MOL
REMARK 927      BINDING AFFINITY PREDICTED BY RF-SCORE:    0.00 PKD
ROOT
HETATM    1  C   UNL     1     -10.514   6.317  70.828  1.00  0.00    -0.273 C  
HETATM    2  C   UNL     1     -11.698   7.264  70.876  1.00  0.00    -0.348 C  
ENDROOT
BRANCH   2   3
HETATM    3  C   UNL     1     -11.603   8.197  72.087  1.00  0.00    -0.417 C  
BRANCH   3   4
HETATM    4  C   UNL     1     -12.754   9.191  72.095  1.00  0.00    -0.395 C  
BRANCH   4   5
HETATM    5  N   UNL     1     -13.049   9.693  70.755  1.00  0.00    -0.577 NA 
HETATM    6  H   UNL     1     -13.549   9.106  70.087  1.00  0.00     0.000 HD 
BRANCH   5   7
HETATM    7  C   UNL     1     -12.645  10.975  70.391  1.00  0.00    -0.267 A  
HETATM    8  C   UNL     1     -12.153  11.302  69.108  1.00  0.00    -0.279 A  
HETATM    9  C   UNL     1     -12.765  14.342  72.114  1.00  0.00    -0.323 C  
HETATM   10  C   UNL     1     -11.857  12.655  68.822  1.00  0.00    -0.300 A  
HETATM   11  O   UNL     1     -11.967  15.424  72.092  1.00  0.00    -0.354 OA 
HETATM   12  O   UNL     1     -13.624  14.168  72.962  1.00  0.00    -0.651 OA 
HETATM   13  C   UNL     1     -12.036  13.677  69.777  1.00  0.00    -0.404 A  
HETATM   14  C   UNL     1     -12.492  13.348  71.045  1.00  0.00    -0.437 A  
HETATM   15  C   UNL     1     -12.791  12.017  71.330  1.00  0.00    -0.391 A  
BRANCH   8  16
HETATM   16  O   UNL     1     -11.759  10.349  68.191  1.00  0.00    -0.363 OA 
BRANCH  16  17
HETATM   17  C   UNL     1     -10.611   9.603  68.327  1.00  0.00    -0.225 A  
HETATM   18  C   UNL     1      -9.404   7.672  67.456  1.00  0.00    -0.159 A  
HETATM   19  C   UNL     1      -8.327   7.959  68.299  1.00  0.00    -0.124 A  
HETATM   20  C   UNL     1      -9.554   9.852  69.198  1.00  0.00    -0.204 A  
HETATM   21  C   UNL     1     -10.533   8.494  67.468  1.00  0.00    -0.328 A  
HETATM   22  C   UNL     1      -8.405   9.047  69.162  1.00  0.00    -0.123 A  
ENDBRANCH  16  17
ENDBRANCH   8  16
BRANCH  10  23
HETATM   23  S   UNL     1     -11.285  13.140  67.222  1.00  0.00    -0.301 S  
HETATM   24  O   UNL     1     -12.173  12.624  66.208  1.00  0.00    -0.562 OA 
HETATM   25  H2  UNL     1     -11.790  15.394  68.008  1.00  0.00     0.000 HD 
HETATM   26  H1  UNL     1     -11.115  15.083  66.327  1.00  0.00     0.000 HD 
HETATM   27  N   UNL     1     -11.445  14.803  67.251  1.00  0.00    -0.361 N  
HETATM   28  O   UNL     1      -9.856  12.907  67.161  1.00  0.00    -0.217 OA 
ENDBRANCH  10  23
ENDBRANCH   5   7
ENDBRANCH   4   5
ENDBRANCH   3   4
ENDBRANCH   2   3
TORSDOF 7
ENDMDL
MODEL        8
REMARK 921   NORMALIZED FREE ENERGY PREDICTED BY IDOCK:   -6.56 KCAL/MOL
REMARK 922        TOTAL FREE ENERGY PREDICTED BY IDOCK:  -10.02 KCAL/MOL
REMARK 923 INTER-LIGAND FREE ENERGY PREDICTED BY IDOCK:   -9.21 KCAL/MOL
REMARK 924 INTRA-LIGAND FREE ENERGY PREDICTED BY IDOCK:   -0.81 KCAL/MOL
REMARK 927      BINDING AFFINITY PREDICTED BY RF-SCORE:    0.00 PKD
ROOT
HETATM    1  C   UNL     1     -14.343  15.210  71.843  1.00  0.00    -0.693 C  
HETATM    2  C   UNL     1     -12.952  15.693  72.211  1.00  0.00    -0.529 C  
ENDROOT
BRANCH   2   3
HETATM    3  C   UNL     1     -11.948  15.364  71.103  1.00  0.00    -0.414 C  
BRANCH   3   4
HETATM    4  C   UNL     1     -12.538  14.366  70.119  1.00  0.00    -0.286 C  
BRANCH   4   5
HETATM    5  N   UNL     1     -11.775  13.121  70.083  1.00  0.00    -0.527 NA 
HETATM    6  H   UNL     1     -11.471  12.682  70.952  1.00  0.00     0.000 HD 
BRANCH   5   7
HETATM    7  C   UNL     1     -11.463  12.534  68.860  1.00  0.00    -0.307 A  
HETATM    8  C   UNL     1     -10.777  11.306  68.737  1.00  0.00    -0.203 A  
HETATM    9  C   UNL     1     -12.304  13.374  65.266  1.00  0.00    -0.469 C  
HETATM   10  C   UNL     1     -10.593  10.760  67.445  1.00  0.00    -0.242 A  
HETATM   11  O   UNL     1     -11.649  13.225  64.102  1.00  0.00    -0.373 OA 
HETATM   12  O   UNL     1     -13.283  14.091  65.391  1.00  0.00    -0.761 OA 
HETATM   13  C   UNL     1     -11.069  11.406  66.286  1.00  0.00    -0.281 A  
HETATM   14  C   UNL     1     -11.718  12.627  66.408  1.00  0.00    -0.466 A  
HETATM   15  C   UNL     1     -11.906  13.166  67.679  1.00  0.00    -0.405 A  
BRANCH   8  16
HETATM   16  O   UNL     1     -10.106  10.714  69.788  1.00  0.00    -0.162 OA 
BRANCH  16  17
HETATM   17  C   UNL     1     -10.706   9.841  70.666  1.00  0.00    -0.326 A  
HETATM   18  C   UNL     1     -10.271   8.228  72.443  1.00  0.00    -0.397 A  
HETATM   19  C   UNL     1     -11.645   8.063  72.635  1.00  0.00    -0.448 A  
HETATM   20  C   UNL     1     -12.072   9.632  70.831  1.00  0.00    -0.383 A  
HETATM   21  C   UNL     1      -9.809   9.117  71.468  1.00  0.00    -0.335 A  
HETATM   22  C   UNL     1     -12.538   8.766  71.832  1.00  0.00    -0.428 A  
ENDBRANCH  16  17
ENDBRANCH   8  16
BRANCH  10  23
HETATM   23  S   UNL     1      -9.787   9.203  67.224  1.00  0.00    -0.205 S  
HETATM   24  O   UNL     1     -10.663   8.135  67.645  1.00  0.00    -0.221 OA 
HETATM   25  H2  UNL     1      -9.894   9.775  64.855  1.00  0.00     0.000 HD 
HETATM   26  H1  UNL     1      -9.142   8.203  65.439  1.00  0.00     0.000 HD 
HETATM   27  N   UNL     1      -9.607   9.101  65.567  1.00  0.00    -0.231 N  
HETATM   28  O   UNL     1      -8.436   9.315  67.737  1.00  0.00    -0.116 OA 
ENDBRANCH  10  23
ENDBRANCH   5   7
ENDBRANCH   4   5
ENDBRANCH   3   4
ENDBRANCH   2   3
TORSDOF 7
ENDMDL
MODEL        9
REMARK 921   NORMALIZED FREE ENERGY PREDICTED BY IDOCK:   -6.56 KCAL/MOL
REMARK 922        TOTAL FREE ENERGY PREDICTED BY IDOCK:  -10.02 KCAL/MOL
REMARK 923 INTER-LIGAND FREE ENERGY PREDICTED BY IDOCK:   -9.44 KCAL/MOL
REMARK 924 INTRA-LIGAND FREE ENERGY PREDICTED BY IDOCK:   -0.57 KCAL/MOL
REMARK 927      BINDING AFFINITY PREDICTED BY RF-SCORE:    0.00 PKD
ROOT
HETATM    1  C   UNL     1      -8.535  19.951  66.847  1.00  0.00    -0.379 C  
HETATM    2  C   UNL     1      -9.783  20.062  67.704  1.00  0.00    -0.535 C  
ENDROOT
BRANCH   2   3
HETATM    3  C   UNL     1     -10.774  18.942  67.372  1.00  0.00    -0.519 C  
BRANCH   3   4
HETATM    4  C   UNL     1     -10.652  17.800  68.368  1.00  0.00    -0.291 C  
BRANCH   4   5
HETATM    5  N   UNL     1     -10.731  16.497  67.714  1.00  0.00    -0.337 NA 
HETATM    6  H   UNL     1     -10.450  16.396  66.739  1.00  0.00     0.000 HD 
BRANCH   5   7
HETATM    7  C   UNL     1     -11.189  15.391  68.425  1.00  0.00    -0.315 A  
HETATM    8  C   UNL     1     -10.833  14.061  68.113  1.00  0.00    -0.248 A  
HETATM    9  C   UNL     1     -13.249  14.977  71.574  1.00  0.00    -0.402 C  
HETATM   10  C   UNL     1     -11.287  13.022  68.959  1.00  0.00    -0.289 A  
HETATM   11  O   UNL     1     -14.140  14.058  71.984  1.00  0.00    -0.464 OA 
HETATM   12  O   UNL     1     -13.119  16.065  72.112  1.00  0.00    -0.429 OA 
HETATM   13  C   UNL     1     -12.083  13.277  70.094  1.00  0.00    -0.403 A  
HETATM   14  C   UNL     1     -12.456  14.583  70.382  1.00  0.00    -0.407 A  
HETATM   15  C   UNL     1     -12.006  15.610  69.555  1.00  0.00    -0.363 A  
BRANCH   8  16
HETATM   16  O   UNL     1     -10.234  13.705  66.921  1.00  0.00    -0.254 OA 
BRANCH  16  17
HETATM   17  C   UNL     1     -10.943  13.279  65.822  1.00  0.00    -0.270 A  
HETATM   18  C   UNL     1     -10.751  12.120  63.685  1.00  0.00    -0.518 A  
HETATM   19  C   UNL     1     -12.135  12.201  63.512  1.00  0.00    -0.649 A  
HETATM   20  C   UNL     1     -12.315  13.400  65.616  1.00  0.00    -0.521 A  
HETATM   21  C   UNL     1     -10.164  12.650  64.837  1.00  0.00    -0.295 A  
HETATM   22  C   UNL     1     -12.909  12.837  64.477  1.00  0.00    -0.323 A  
ENDBRANCH  16  17
ENDBRANCH   8  16
BRANCH  10  23
HETATM   23  S   UNL     1     -10.836  11.341  68.654  1.00  0.00    -0.221 S  
HETATM   24  O   UNL     1      -9.404  11.240  68.494  1.00  0.00    -0.176 OA 
HETATM   25  H2  UNL     1     -11.664  10.977  70.920  1.00  0.00     0.000 HD 
HETATM   26  H1  UNL     1     -10.991   9.603  69.903  1.00  0.00     0.000 HD 
HETATM   27  N   UNL     1     -11.251  10.573  70.079  1.00  0.00    -0.295 N  
HETATM   28  O   UNL     1     -11.744  10.799  67.664  1.00  0.00    -0.538 OA 
ENDBRANCH  10  23
ENDBRANCH   5   7
ENDBRANCH   4   5
ENDBRANCH   3   4
ENDBRANCH   2   3
TORSDOF 7
ENDMDL
MODEL       10
REMARK 921   NORMALIZED FREE ENERGY PREDICTED BY IDOCK:   -6.56 KCAL/MOL
REMARK 922        TOTAL FREE ENERGY PREDICTED BY IDOCK:  -10.01 KCAL/MOL
REMARK 923 INTER-LIGAND FREE ENERGY PREDICTED BY IDOCK:   -8.74 KCAL/MOL
REMARK 924 INTRA-LIGAND FREE ENERGY PREDICTED BY IDOCK:   -1.27 KCAL/MOL
REMARK 927      BINDING AFFINITY PREDICTED BY RF-SCORE:    0.00 PKD
ROOT
HETATM    1  C   UNL     1      -8.681   8.409  66.103  1.00  0.00    -0.175 C  
HETATM    2  C   UNL     1      -9.067   9.166  67.361  1.00  0.00    -0.142 C  
ENDROOT
BRANCH   2   3
HETATM    3  C   UNL     1     -10.586   9.157  67.559  1.00  0.00    -0.317 C  
BRANCH   3   4
HETATM    4  C   UNL     1     -10.960   9.797  68.886  1.00  0.00    -0.150 C  
BRANCH   4   5
HETATM    5  N   UNL     1     -12.037  10.773  68.736  1.00  0.00    -0.785 NA 
HETATM    6  H   UNL     1     -12.907  10.507  68.273  1.00  0.00     0.000 HD 
BRANCH   5   7
HETATM    7  C   UNL     1     -11.875  12.066  69.225  1.00  0.00    -0.318 A  
HETATM    8  C   UNL     1     -11.182  13.082  68.530  1.00  0.00    -0.274 A  
HETATM    9  C   UNL     1     -13.199  13.899  72.260  1.00  0.00    -0.473 C  
HETATM   10  C   UNL     1     -11.156  14.383  69.082  1.00  0.00    -0.265 A  
HETATM   11  O   UNL     1     -12.699  14.864  73.052  1.00  0.00    -0.399 OA 
HETATM   12  O   UNL     1     -14.170  13.226  72.565  1.00  0.00    -0.697 OA 
HETATM   13  C   UNL     1     -11.795  14.691  70.300  1.00  0.00    -0.363 A  
HETATM   14  C   UNL     1     -12.451  13.684  70.996  1.00  0.00    -0.456 A  
HETATM   15  C   UNL     1     -12.484  12.401  70.453  1.00  0.00    -0.214 A  
BRANCH   8  16
HETATM   16  O   UNL     1     -10.365  12.825  67.447  1.00  0.00    -0.220 OA 
BRANCH  16  17
HETATM   17  C   UNL     1     -10.849  12.581  66.182  1.00  0.00    -0.272 A  
HETATM   18  C   UNL     1     -10.286  11.625  64.011  1.00  0.00    -0.391 A  
HETATM   19  C   UNL     1     -11.589  11.859  63.565  1.00  0.00    -0.537 A  
HETATM   20  C   UNL     1     -12.130  12.856  65.712  1.00  0.00    -0.513 A  
HETATM   21  C   UNL     1      -9.924  11.979  65.313  1.00  0.00    -0.273 A  
HETATM   22  C   UNL     1     -12.504  12.470  64.416  1.00  0.00    -0.530 A  
ENDBRANCH  16  17
ENDBRANCH   8  16
BRANCH  10  23
HETATM   23  S   UNL     1     -10.349  15.711  68.240  1.00  0.00    -0.249 S  
HETATM   24  O   UNL     1     -11.045  16.002  67.008  1.00  0.00    -0.222 OA 
HETATM   25  H2  UNL     1     -11.050  17.023  70.173  1.00  0.00     0.000 HD 
HETATM   26  H1  UNL     1     -10.103  17.770  68.788  1.00  0.00     0.000 HD 
HETATM   27  N   UNL     1     -10.568  17.004  69.274  1.00  0.00    -0.323 N  
HETATM   28  O   UNL     1      -8.922  15.460  68.258  1.00  0.00    -0.178 OA 
ENDBRANCH  10  23
ENDBRANCH   5   7
ENDBRANCH   4   5
ENDBRANCH   3   4
ENDBRANCH   2   3
TORSDOF 7
ENDMDL
MODEL       11
REMARK 921   NORMALIZED FREE ENERGY PREDICTED BY IDOCK:   -6.56 KCAL/MOL
REMARK 922        TOTAL FREE ENERGY PREDICTED BY IDOCK:  -10.01 KCAL/MOL
REMARK 923 INTER-LIGAND FREE ENERGY PREDICTED BY IDOCK:   -9.57 KCAL/MOL
REMARK 924 INTRA-LIGAND FREE ENERGY PREDICTED BY IDOCK:   -0.44 KCAL/MOL
REMARK 927      BINDING AFFINITY PREDICTED BY RF-SCORE:    0.00 PKD
ROOT
HETATM    1  C   UNL     1     -13.785  13.955  72.213  1.00  0.00    -0.660 C  
HETATM    2  C   UNL     1     -12.819  14.741  73.080  1.00  0.00    -0.614 C  
ENDROOT
BRANCH   2   3
HETATM    3  C   UNL     1     -11.862  15.570  72.218  1.00  0.00    -0.560 C  
BRANCH   3   4
HETATM    4  C   UNL     1     -12.117  15.324  70.740  1.00  0.00    -0.351 C  
BRANCH   4   5
HETATM    5  N   UNL     1     -10.901  14.921  70.037  1.00  0.00    -0.414 NA 
HETATM    6  H   UNL     1     -10.205  14.345  70.511  1.00  0.00     0.000 HD 
BRANCH   5   7
HETATM    7  C   UNL     1     -10.695  15.324  68.721  1.00  0.00    -0.241 A  
HETATM    8  C   UNL     1     -11.378  14.764  67.618  1.00  0.00    -0.339 A  
HETATM    9  C   UNL     1      -8.665  18.088  67.119  1.00  0.00    -0.243 C  
HETATM   10  C   UNL     1     -11.154  15.313  66.334  1.00  0.00    -0.273 A  
HETATM   11  O   UNL     1      -8.007  18.197  65.952  1.00  0.00    -0.513 OA 
HETATM   12  O   UNL     1      -8.503  18.861  68.049  1.00  0.00    -0.279 OA 
HETATM   13  C   UNL     1     -10.272  16.393  66.127  1.00  0.00    -0.363 A  
HETATM   14  C   UNL     1      -9.581  16.922  67.208  1.00  0.00    -0.246 A  
HETATM   15  C   UNL     1      -9.802  16.388  68.476  1.00  0.00    -0.231 A  
BRANCH   8  16
HETATM   16  O   UNL     1     -12.095  13.588  67.700  1.00  0.00    -0.347 OA 
BRANCH  16  17
HETATM   17  C   UNL     1     -11.518  12.373  67.988  1.00  0.00    -0.322 A  
HETATM   18  C   UNL     1     -11.542  10.503  69.553  1.00  0.00    -0.332 A  
HETATM   19  C   UNL     1     -10.604   9.828  68.768  1.00  0.00    -0.244 A  
HETATM   20  C   UNL     1     -10.546  11.714  67.240  1.00  0.00    -0.265 A  
HETATM   21  C   UNL     1     -11.998  11.764  69.158  1.00  0.00    -0.356 A  
HETATM   22  C   UNL     1     -10.113  10.434  67.616  1.00  0.00    -0.223 A  
ENDBRANCH  16  17
ENDBRANCH   8  16
BRANCH  10  23
HETATM   23  S   UNL     1     -12.013  14.693  64.920  1.00  0.00    -0.377 S  
HETATM   24  O   UNL     1     -12.206  15.755  63.961  1.00  0.00    -0.664 OA 
HETATM   25  H2  UNL     1     -10.001  13.351  64.606  1.00  0.00     0.000 HD 
HETATM   26  H1  UNL     1     -11.427  13.242  63.453  1.00  0.00     0.000 HD 
HETATM   27  N   UNL     1     -10.931  13.600  64.269  1.00  0.00    -0.358 N  
HETATM   28  O   UNL     1     -13.124  13.885  65.381  1.00  0.00    -0.752 OA 
ENDBRANCH  10  23
ENDBRANCH   5   7
ENDBRANCH   4   5
ENDBRANCH   3   4
ENDBRANCH   2   3
TORSDOF 7
ENDMDL
MODEL       12
REMARK 921   NORMALIZED FREE ENERGY PREDICTED BY IDOCK:   -6.50 KCAL/MOL
REMARK 922        TOTAL FREE ENERGY PREDICTED BY IDOCK:   -9.93 KCAL/MOL
REMARK 923 INTER-LIGAND FREE ENERGY PREDICTED BY IDOCK:   -8.87 KCAL/MOL
REMARK 924 INTRA-LIGAND FREE ENERGY PREDICTED BY IDOCK:   -1.06 KCAL/MOL
REMARK 927      BINDING AFFINITY PREDICTED BY RF-SCORE:    0.00 PKD
ROOT
HETATM    1  C   UNL     1     -13.500  13.062  72.204  1.00  0.00    -0.638 C  
HETATM    2  C   UNL     1     -13.016  14.238  73.033  1.00  0.00    -0.512 C  
ENDROOT
BRANCH   2   3
HETATM    3  C   UNL     1     -13.232  15.558  72.287  1.00  0.00    -0.539 C  
BRANCH   3   4
HETATM    4  C   UNL     1     -13.481  15.307  70.808  1.00  0.00    -0.307 C  
BRANCH   4   5
HETATM    5  N   UNL     1     -12.443  15.904  69.972  1.00  0.00    -0.488 NA 
HETATM    6  H   UNL     1     -12.421  16.913  69.827  1.00  0.00     0.000 HD 
BRANCH   5   7
HETATM    7  C   UNL     1     -11.482  15.093  69.375  1.00  0.00    -0.306 A  
HETATM    8  C   UNL     1     -10.142  15.490  69.174  1.00  0.00    -0.239 A  
HETATM    9  C   UNL     1     -11.463  11.497  68.193  1.00  0.00    -0.315 C  
HETATM   10  C   UNL     1      -9.230  14.551  68.638  1.00  0.00    -0.192 A  
HETATM   11  O   UNL     1     -10.844  10.855  67.187  1.00  0.00    -0.258 OA 
HETATM   12  O   UNL     1     -12.398  11.017  68.813  1.00  0.00    -0.533 OA 
HETATM   13  C   UNL     1      -9.622  13.240  68.298  1.00  0.00    -0.221 A  
HETATM   14  C   UNL     1     -10.946  12.861  68.469  1.00  0.00    -0.288 A  
HETATM   15  C   UNL     1     -11.847  13.782  69.002  1.00  0.00    -0.397 A  
BRANCH   8  16
HETATM   16  O   UNL     1      -9.724  16.801  69.287  1.00  0.00    -0.230 OA 
BRANCH  16  17
HETATM   17  C   UNL     1      -9.966  17.753  68.323  1.00  0.00    -0.355 A  
HETATM   18  C   UNL     1     -10.067  20.154  67.911  1.00  0.00    -0.533 A  
HETATM   19  C   UNL     1     -10.302  19.915  66.554  1.00  0.00    -0.608 A  
HETATM   20  C   UNL     1     -10.250  17.526  66.979  1.00  0.00    -0.327 A  
HETATM   21  C   UNL     1      -9.894  19.077  68.785  1.00  0.00    -0.485 A  
HETATM   22  C   UNL     1     -10.389  18.605  66.095  1.00  0.00    -0.481 A  
ENDBRANCH  16  17
ENDBRANCH   8  16
BRANCH  10  23
HETATM   23  S   UNL     1      -7.528  14.967  68.408  1.00  0.00    -0.124 S  
HETATM   24  O   UNL     1      -6.991  15.519  69.629  1.00  0.00    -0.179 OA 
HETATM   25  H2  UNL     1      -7.243  12.560  68.131  1.00  0.00     0.000 HD 
HETATM   26  H1  UNL     1      -5.825  13.722  68.018  1.00  0.00     0.000 HD 
HETATM   27  N   UNL     1      -6.807  13.482  68.151  1.00  0.00    -0.102 N  
HETATM   28  O   UNL     1      -7.398  15.665  67.145  1.00  0.00    -0.208 OA 
ENDBRANCH  10  23
ENDBRANCH   5   7
ENDBRANCH   4   5
ENDBRANCH   3   4
ENDBRANCH   2   3
TORSDOF 7
ENDMDL
MODEL       13
REMARK 921   NORMALIZED FREE ENERGY PREDICTED BY IDOCK:   -6.48 KCAL/MOL
REMARK 922        TOTAL FREE ENERGY PREDICTED BY IDOCK:   -9.90 KCAL/MOL
REMARK 923 INTER-LIGAND FREE ENERGY PREDICTED BY IDOCK:   -9.01 KCAL/MOL
REMARK 924 INTRA-LIGAND FREE ENERGY PREDICTED BY IDOCK:   -0.89 KCAL/MOL
REMARK 927      BINDING AFFINITY PREDICTED BY RF-SCORE:    0.00 PKD
ROOT
HETATM    1  C   UNL     1      -8.521  19.839  66.418  1.00  0.00    -0.391 C  
HETATM    2  C   UNL     1      -9.998  19.982  66.100  1.00  0.00    -0.580 C  
ENDROOT
BRANCH   2   3
HETATM    3  C   UNL     1     -10.857  19.570  67.300  1.00  0.00    -0.557 C  
BRANCH   3   4
HETATM    4  C   UNL     1      -9.984  19.232  68.497  1.00  0.00    -0.433 C  
BRANCH   4   5
HETATM    5  N   UNL     1     -10.439  18.023  69.179  1.00  0.00    -0.396 NA 
HETATM    6  H   UNL     1     -11.043  18.095  69.998  1.00  0.00     0.000 HD 
BRANCH   5   7
HETATM    7  C   UNL     1     -10.047  16.773  68.710  1.00  0.00    -0.286 A  
HETATM    8  C   UNL     1     -10.932  15.682  68.564  1.00  0.00    -0.303 A  
HETATM    9  C   UNL     1      -6.813  15.407  67.293  1.00  0.00    -0.108 C  
HETATM   10  C   UNL     1     -10.442  14.484  67.993  1.00  0.00    -0.236 A  
HETATM   11  O   UNL     1      -6.215  14.204  67.341  1.00  0.00    -0.336 OA 
HETATM   12  O   UNL     1      -6.236  16.423  66.942  1.00  0.00    -0.266 OA 
HETATM   13  C   UNL     1      -9.103  14.351  67.571  1.00  0.00    -0.195 A  
HETATM   14  C   UNL     1      -8.229  15.415  67.742  1.00  0.00    -0.159 A  
HETATM   15  C   UNL     1      -8.708  16.598  68.300  1.00  0.00    -0.216 A  
BRANCH   8  16
HETATM   16  O   UNL     1     -12.190  15.657  69.130  1.00  0.00    -0.298 OA 
BRANCH  16  17
HETATM   17  C   UNL     1     -12.403  15.553  70.486  1.00  0.00    -0.418 A  
HETATM   18  C   UNL     1     -14.100  15.127  72.184  1.00  0.00    -0.654 A  
HETATM   19  C   UNL     1     -13.122  15.178  73.180  1.00  0.00    -0.625 A  
HETATM   20  C   UNL     1     -11.445  15.653  71.490  1.00  0.00    -0.494 A  
HETATM   21  C   UNL     1     -13.738  15.307  70.846  1.00  0.00    -0.363 A  
HETATM   22  C   UNL     1     -11.802  15.438  72.830  1.00  0.00    -0.563 A  
ENDBRANCH  16  17
ENDBRANCH   8  16
BRANCH  10  23
HETATM   23  S   UNL     1     -11.508  13.098  67.737  1.00  0.00    -0.334 S  
HETATM   24  O   UNL     1     -12.524  13.436  66.767  1.00  0.00    -0.279 OA 
HETATM   25  H2  UNL     1      -9.501  12.049  66.829  1.00  0.00     0.000 HD 
HETATM   26  H1  UNL     1     -11.109  11.163  66.901  1.00  0.00     0.000 HD 
HETATM   27  N   UNL     1     -10.494  11.963  67.049  1.00  0.00    -0.219 N  
HETATM   28  O   UNL     1     -11.856  12.548  69.031  1.00  0.00    -0.299 OA 
ENDBRANCH  10  23
ENDBRANCH   5   7
ENDBRANCH   4   5
ENDBRANCH   3   4
ENDBRANCH   2   3
TORSDOF 7
ENDMDL
MODEL       14
REMARK 921   NORMALIZED FREE ENERGY PREDICTED BY IDOCK:   -6.35 KCAL/MOL
REMARK 922        TOTAL FREE ENERGY PREDICTED BY IDOCK:   -9.72 KCAL/MOL
REMARK 923 INTER-LIGAND FREE ENERGY PREDICTED BY IDOCK:   -9.07 KCAL/MOL
REMARK 924 INTRA-LIGAND FREE ENERGY PREDICTED BY IDOCK:   -0.65 KCAL/MOL
REMARK 927      BINDING AFFINITY PREDICTED BY RF-SCORE:    0.00 PKD
ROOT
HETATM    1  C   UNL     1     -10.911   8.131  72.507  1.00  0.00    -0.439 C  
HETATM    2  C   UNL     1     -12.031   8.982  71.935  1.00  0.00    -0.445 C  
ENDROOT
BRANCH   2   3
HETATM    3  C   UNL     1     -11.492   9.965  70.892  1.00  0.00    -0.456 C  
BRANCH   3   4
HETATM    4  C   UNL     1     -12.609  10.842  70.349  1.00  0.00    -0.314 C  
BRANCH   4   5
HETATM    5  N   UNL     1     -12.131  11.754  69.314  1.00  0.00    -0.269 NA 
HETATM    6  H   UNL     1     -12.033  11.430  68.351  1.00  0.00     0.000 HD 
BRANCH   5   7
HETATM    7  C   UNL     1     -11.809  13.068  69.642  1.00  0.00    -0.319 A  
HETATM    8  C   UNL     1     -11.041  13.914  68.811  1.00  0.00    -0.265 A  
HETATM    9  C   UNL     1     -12.794  15.371  72.480  1.00  0.00    -0.397 C  
HETATM   10  C   UNL     1     -10.851  15.259  69.205  1.00  0.00    -0.257 A  
HETATM   11  O   UNL     1     -12.159  16.358  73.136  1.00  0.00    -0.518 OA 
HETATM   12  O   UNL     1     -13.818  14.850  72.891  1.00  0.00    -0.480 OA 
HETATM   13  C   UNL     1     -11.400  15.772  70.398  1.00  0.00    -0.389 A  
HETATM   14  C   UNL     1     -12.129  14.932  71.227  1.00  0.00    -0.385 A  
HETATM   15  C   UNL     1     -12.324  13.607  70.840  1.00  0.00    -0.450 A  
BRANCH   8  16
HETATM   16  O   UNL     1     -10.305  13.446  67.742  1.00  0.00    -0.233 OA 
BRANCH  16  17
HETATM   17  C   UNL     1     -10.878  12.986  66.578  1.00  0.00    -0.279 A  
HETATM   18  C   UNL     1     -12.757  13.291  65.055  1.00  0.00    -0.438 A  
HETATM   19  C   UNL     1     -12.219  12.332  64.192  1.00  0.00    -0.539 A  
HETATM   20  C   UNL     1     -10.377  11.996  65.737  1.00  0.00    -0.289 A  
HETATM   21  C   UNL     1     -12.085  13.617  66.235  1.00  0.00    -0.477 A  
HETATM   22  C   UNL     1     -11.033  11.692  64.535  1.00  0.00    -0.376 A  
ENDBRANCH  16  17
ENDBRANCH   8  16
BRANCH  10  23
HETATM   23  S   UNL     1      -9.943  16.383  68.188  1.00  0.00    -0.249 S  
HETATM   24  O   UNL     1     -10.586  16.505  66.901  1.00  0.00    -0.302 OA 
HETATM   25  H2  UNL     1     -10.615  18.032  69.855  1.00  0.00     0.000 HD 
HETATM   26  H1  UNL     1      -9.588  18.488  68.402  1.00  0.00     0.000 HD 
HETATM   27  N   UNL     1     -10.111  17.839  68.989  1.00  0.00    -0.335 N  
HETATM   28  O   UNL     1      -8.535  16.060  68.299  1.00  0.00    -0.169 OA 
ENDBRANCH  10  23
ENDBRANCH   5   7
ENDBRANCH   4   5
ENDBRANCH   3   4
ENDBRANCH   2   3
TORSDOF 7
ENDMDL
MODEL       15
REMARK 921   NORMALIZED FREE ENERGY PREDICTED BY IDOCK:   -6.35 KCAL/MOL
REMARK 922        TOTAL FREE ENERGY PREDICTED BY IDOCK:   -9.72 KCAL/MOL
REMARK 923 INTER-LIGAND FREE ENERGY PREDICTED BY IDOCK:   -9.06 KCAL/MOL
REMARK 924 INTRA-LIGAND FREE ENERGY PREDICTED BY IDOCK:   -0.66 KCAL/MOL
REMARK 927      BINDING AFFINITY PREDICTED BY RF-SCORE:    0.00 PKD
ROOT
HETATM    1  C   UNL     1     -12.521  15.644  73.983  1.00  0.00    -0.785 C  
HETATM    2  C   UNL     1     -12.226  15.866  72.511  1.00  0.00    -0.597 C  
ENDROOT
BRANCH   2   3
HETATM    3  C   UNL     1     -13.326  15.258  71.636  1.00  0.00    -0.553 C  
BRANCH   3   4
HETATM    4  C   UNL     1     -12.724  14.472  70.482  1.00  0.00    -0.345 C  
BRANCH   4   5
HETATM    5  N   UNL     1     -11.329  14.834  70.245  1.00  0.00    -0.349 NA 
HETATM    6  H   UNL     1     -10.612  14.579  70.924  1.00  0.00     0.000 HD 
BRANCH   5   7
HETATM    7  C   UNL     1     -10.980  15.529  69.090  1.00  0.00    -0.259 A  
HETATM    8  C   UNL     1     -11.139  15.006  67.788  1.00  0.00    -0.310 A  
HETATM    9  C   UNL     1      -9.760  19.049  68.424  1.00  0.00    -0.383 C  
HETATM   10  C   UNL     1     -10.833  15.835  66.684  1.00  0.00    -0.241 A  
HETATM   11  O   UNL     1      -8.931  19.586  67.511  1.00  0.00    -0.293 OA 
HETATM   12  O   UNL     1     -10.108  19.638  69.434  1.00  0.00    -0.390 OA 
HETATM   13  C   UNL     1     -10.374  17.158  66.847  1.00  0.00    -0.308 A  
HETATM   14  C   UNL     1     -10.191  17.659  68.129  1.00  0.00    -0.371 A  
HETATM   15  C   UNL     1     -10.496  16.848  69.220  1.00  0.00    -0.319 A  
BRANCH   8  16
HETATM   16  O   UNL     1     -11.386  13.671  67.541  1.00  0.00    -0.283 OA 
BRANCH  16  17
HETATM   17  C   UNL     1     -10.547  12.662  67.957  1.00  0.00    -0.221 A  
HETATM   18  C   UNL     1     -10.483  10.472  69.028  1.00  0.00    -0.238 A  
HETATM   19  C   UNL     1      -9.104  10.403  68.812  1.00  0.00    -0.165 A  
HETATM   20  C   UNL     1      -9.166  12.605  67.792  1.00  0.00    -0.195 A  
HETATM   21  C   UNL     1     -11.197  11.593  68.595  1.00  0.00    -0.308 A  
HETATM   22  C   UNL     1      -8.454  11.466  68.195  1.00  0.00    -0.152 A  
ENDBRANCH  16  17
ENDBRANCH   8  16
BRANCH  10  23
HETATM   23  S   UNL     1     -11.058  15.261  65.027  1.00  0.00    -0.413 S  
HETATM   24  O   UNL     1     -10.097  14.223  64.736  1.00  0.00    -0.365 OA 
HETATM   25  H2  UNL     1     -13.216  14.487  65.861  1.00  0.00     0.000 HD 
HETATM   26  H1  UNL     1     -12.704  14.232  64.115  1.00  0.00     0.000 HD 
HETATM   27  N   UNL     1     -12.575  14.563  65.071  1.00  0.00    -0.334 N  
HETATM   28  O   UNL     1     -11.205  16.415  64.163  1.00  0.00    -0.882 OA 
ENDBRANCH  10  23
ENDBRANCH   5   7
ENDBRANCH   4   5
ENDBRANCH   3   4
ENDBRANCH   2   3
TORSDOF 7
ENDMDL
MODEL       16
REMARK 921   NORMALIZED FREE ENERGY PREDICTED BY IDOCK:   -6.30 KCAL/MOL
REMARK 922        TOTAL FREE ENERGY PREDICTED BY IDOCK:   -9.65 KCAL/MOL
REMARK 923 INTER-LIGAND FREE ENERGY PREDICTED BY IDOCK:   -9.11 KCAL/MOL
REMARK 924 INTRA-LIGAND FREE ENERGY PREDICTED BY IDOCK:   -0.53 KCAL/MOL
REMARK 927      BINDING AFFINITY PREDICTED BY RF-SCORE:    0.00 PKD
ROOT
HETATM    1  C   UNL     1      -8.476  20.131  67.064  1.00  0.00    -0.397 C  
HETATM    2  C   UNL     1      -9.912  19.791  67.417  1.00  0.00    -0.531 C  
ENDROOT
BRANCH   2   3
HETATM    3  C   UNL     1      -9.968  18.754  68.542  1.00  0.00    -0.450 C  
BRANCH   3   4
HETATM    4  C   UNL     1     -10.629  17.472  68.063  1.00  0.00    -0.384 C  
BRANCH   4   5
HETATM    5  N   UNL     1      -9.976  16.285  68.610  1.00  0.00    -0.224 NA 
HETATM    6  H   UNL     1      -8.961  16.196  68.570  1.00  0.00     0.000 HD 
BRANCH   5   7
HETATM    7  C   UNL     1     -10.743  15.276  69.186  1.00  0.00    -0.251 A  
HETATM    8  C   UNL     1     -10.652  13.918  68.811  1.00  0.00    -0.246 A  
HETATM    9  C   UNL     1     -13.186  15.173  72.075  1.00  0.00    -0.379 C  
HETATM   10  C   UNL     1     -11.414  12.965  69.526  1.00  0.00    -0.225 A  
HETATM   11  O   UNL     1     -14.297  14.459  72.324  1.00  0.00    -0.505 OA 
HETATM   12  O   UNL     1     -12.883  16.174  72.704  1.00  0.00    -0.436 OA 
HETATM   13  C   UNL     1     -12.259  13.334  70.593  1.00  0.00    -0.417 A  
HETATM   14  C   UNL     1     -12.368  14.673  70.941  1.00  0.00    -0.406 A  
HETATM   15  C   UNL     1     -11.614  15.614  70.242  1.00  0.00    -0.370 A  
BRANCH   8  16
HETATM   16  O   UNL     1     -10.014  13.499  67.661  1.00  0.00    -0.222 OA 
BRANCH  16  17
HETATM   17  C   UNL     1     -10.645  13.409  66.441  1.00  0.00    -0.285 A  
HETATM   18  C   UNL     1     -12.458  14.323  65.091  1.00  0.00    -0.423 A  
HETATM   19  C   UNL     1     -12.062  13.529  64.013  1.00  0.00    -0.494 A  
HETATM   20  C   UNL     1     -10.289  12.585  65.377  1.00  0.00    -0.305 A  
HETATM   21  C   UNL     1     -11.748  14.266  66.293  1.00  0.00    -0.404 A  
HETATM   22  C   UNL     1     -10.980  12.667  64.159  1.00  0.00    -0.427 A  
ENDBRANCH  16  17
ENDBRANCH   8  16
BRANCH  10  23
HETATM   23  S   UNL     1     -11.309  11.244  69.141  1.00  0.00    -0.312 S  
HETATM   24  O   UNL     1      -9.924  10.854  69.018  1.00  0.00    -0.205 OA 
HETATM   25  H2  UNL     1     -12.287  10.951  71.357  1.00  0.00     0.000 HD 
HETATM   26  H1  UNL     1     -11.872   9.518  70.285  1.00  0.00     0.000 HD 
HETATM   27  N   UNL     1     -11.932  10.512  70.507  1.00  0.00    -0.313 N  
HETATM   28  O   UNL     1     -12.269  10.953  68.095  1.00  0.00    -0.503 OA 
ENDBRANCH  10  23
ENDBRANCH   5   7
ENDBRANCH   4   5
ENDBRANCH   3   4
ENDBRANCH   2   3
TORSDOF 7
ENDMDL
MODEL       17
REMARK 921   NORMALIZED FREE ENERGY PREDICTED BY IDOCK:   -6.30 KCAL/MOL
REMARK 922        TOTAL FREE ENERGY PREDICTED BY IDOCK:   -9.64 KCAL/MOL
REMARK 923 INTER-LIGAND FREE ENERGY PREDICTED BY IDOCK:   -8.32 KCAL/MOL
REMARK 924 INTRA-LIGAND FREE ENERGY PREDICTED BY IDOCK:   -1.32 KCAL/MOL
REMARK 927      BINDING AFFINITY PREDICTED BY RF-SCORE:    0.00 PKD
ROOT
HETATM    1  C   UNL     1     -10.901  11.552  63.611  1.00  0.00    -0.488 C  
HETATM    2  C   UNL     1     -12.232  12.271  63.494  1.00  0.00    -0.669 C  
ENDROOT
BRANCH   2   3
HETATM    3  C   UNL     1     -12.651  12.866  64.842  1.00  0.00    -0.525 C  
BRANCH   3   4
HETATM    4  C   UNL     1     -12.519  14.380  64.829  1.00  0.00    -0.357 C  
BRANCH   4   5
HETATM    5  N   UNL     1     -11.153  14.804  64.530  1.00  0.00    -0.622 NA 
HETATM    6  H   UNL     1     -10.697  14.493  63.672  1.00  0.00     0.000 HD 
BRANCH   5   7
HETATM    7  C   UNL     1     -10.474  15.634  65.419  1.00  0.00    -0.411 A  
HETATM    8  C   UNL     1      -9.446  15.183  66.275  1.00  0.00    -0.309 A  
HETATM    9  C   UNL     1     -10.510  19.364  66.060  1.00  0.00    -0.505 C  
HETATM   10  C   UNL     1      -8.764  16.132  67.072  1.00  0.00    -0.202 A  
HETATM   11  O   UNL     1     -10.342  20.116  67.162  1.00  0.00    -0.419 OA 
HETATM   12  O   UNL     1     -10.979  19.800  65.022  1.00  0.00    -0.281 OA 
HETATM   13  C   UNL     1      -9.085  17.505  67.037  1.00  0.00    -0.255 A  
HETATM   14  C   UNL     1     -10.116  17.940  66.216  1.00  0.00    -0.351 A  
HETATM   15  C   UNL     1     -10.786  17.010  65.425  1.00  0.00    -0.079 A  
BRANCH   8  16
HETATM   16  O   UNL     1      -9.206  13.846  66.520  1.00  0.00    -0.260 OA 
BRANCH  16  17
HETATM   17  C   UNL     1     -10.071  13.046  67.231  1.00  0.00    -0.235 A  
HETATM   18  C   UNL     1     -10.688  10.730  67.682  1.00  0.00    -0.305 A  
HETATM   19  C   UNL     1     -11.622  11.159  68.628  1.00  0.00    -0.383 A  
HETATM   20  C   UNL     1     -11.040  13.464  68.138  1.00  0.00    -0.284 A  
HETATM   21  C   UNL     1      -9.915  11.670  66.995  1.00  0.00    -0.226 A  
HETATM   22  C   UNL     1     -11.792  12.521  68.853  1.00  0.00    -0.346 A  
ENDBRANCH  16  17
ENDBRANCH   8  16
BRANCH  10  23
HETATM   23  S   UNL     1      -7.434  15.644  68.128  1.00  0.00    -0.130 S  
HETATM   24  O   UNL     1      -6.380  15.047  67.342  1.00  0.00    -0.308 OA 
HETATM   25  H2  UNL     1      -7.214  18.039  68.531  1.00  0.00     0.000 HD 
HETATM   26  H1  UNL     1      -6.105  16.816  69.336  1.00  0.00     0.000 HD 
HETATM   27  N   UNL     1      -6.872  17.098  68.727  1.00  0.00    -0.198 N  
HETATM   28  O   UNL     1      -7.994  14.962  69.277  1.00  0.00    -0.176 OA 
ENDBRANCH  10  23
ENDBRANCH   5   7
ENDBRANCH   4   5
ENDBRANCH   3   4
ENDBRANCH   2   3
TORSDOF 7
ENDMDL
MODEL       18
REMARK 921   NORMALIZED FREE ENERGY PREDICTED BY IDOCK:   -6.30 KCAL/MOL
REMARK 922        TOTAL FREE ENERGY PREDICTED BY IDOCK:   -9.64 KCAL/MOL
REMARK 923 INTER-LIGAND FREE ENERGY PREDICTED BY IDOCK:   -9.14 KCAL/MOL
REMARK 924 INTRA-LIGAND FREE ENERGY PREDICTED BY IDOCK:   -0.50 KCAL/MOL
REMARK 927      BINDING AFFINITY PREDICTED BY RF-SCORE:    0.00 PKD
ROOT
HETATM    1  C   UNL     1     -11.865   8.611  71.979  1.00  0.00    -0.443 C  
HETATM    2  C   UNL     1     -11.430   9.749  71.075  1.00  0.00    -0.458 C  
ENDROOT
BRANCH   2   3
HETATM    3  C   UNL     1     -12.617  10.649  70.718  1.00  0.00    -0.479 C  
BRANCH   3   4
HETATM    4  C   UNL     1     -12.162  12.084  70.506  1.00  0.00    -0.325 C  
BRANCH   4   5
HETATM    5  N   UNL     1     -11.059  12.170  69.552  1.00  0.00    -0.458 NA 
HETATM    6  H   UNL     1     -10.259  11.542  69.637  1.00  0.00     0.000 HD 
BRANCH   5   7
HETATM    7  C   UNL     1     -11.100  13.111  68.527  1.00  0.00    -0.266 A  
HETATM    8  C   UNL     1     -11.562  12.823  67.224  1.00  0.00    -0.360 A  
HETATM    9  C   UNL     1     -10.425  16.831  68.362  1.00  0.00    -0.339 C  
HETATM   10  C   UNL     1     -11.644  13.879  66.286  1.00  0.00    -0.365 A  
HETATM   11  O   UNL     1      -9.928  17.642  67.412  1.00  0.00    -0.299 OA 
HETATM   12  O   UNL     1     -10.535  17.165  69.531  1.00  0.00    -0.286 OA 
HETATM   13  C   UNL     1     -11.276  15.200  66.615  1.00  0.00    -0.274 A  
HETATM   14  C   UNL     1     -10.796  15.474  67.888  1.00  0.00    -0.307 A  
HETATM   15  C   UNL     1     -10.718  14.438  68.816  1.00  0.00    -0.258 A  
BRANCH   8  16
HETATM   16  O   UNL     1     -11.748  11.536  66.762  1.00  0.00    -0.510 OA 
BRANCH  16  17
HETATM   17  C   UNL     1     -10.719  10.634  66.615  1.00  0.00    -0.181 A  
HETATM   18  C   UNL     1      -9.857   8.489  67.390  1.00  0.00    -0.244 A  
HETATM   19  C   UNL     1      -8.818   8.565  66.460  1.00  0.00    -0.165 A  
HETATM   20  C   UNL     1      -9.651  10.724  65.726  1.00  0.00    -0.254 A  
HETATM   21  C   UNL     1     -10.803   9.515  67.460  1.00  0.00    -0.239 A  
HETATM   22  C   UNL     1      -8.721   9.679  65.632  1.00  0.00    -0.163 A  
ENDBRANCH  16  17
ENDBRANCH   8  16
BRANCH  10  23
HETATM   23  S   UNL     1     -12.260  13.598  64.654  1.00  0.00    -0.400 S  
HETATM   24  O   UNL     1     -12.656  14.853  64.058  1.00  0.00    -0.832 OA 
HETATM   25  H2  UNL     1      -9.972  12.893  64.189  1.00  0.00     0.000 HD 
HETATM   26  H1  UNL     1     -11.273  12.876  62.892  1.00  0.00     0.000 HD 
HETATM   27  N   UNL     1     -10.917  13.038  63.834  1.00  0.00    -0.383 N  
HETATM   28  O   UNL     1     -13.165  12.467  64.699  1.00  0.00    -0.848 OA 
ENDBRANCH  10  23
ENDBRANCH   5   7
ENDBRANCH   4   5
ENDBRANCH   3   4
ENDBRANCH   2   3
TORSDOF 7
ENDMDL
MODEL       19
REMARK 921   NORMALIZED FREE ENERGY PREDICTED BY IDOCK:   -6.20 KCAL/MOL
REMARK 922        TOTAL FREE ENERGY PREDICTED BY IDOCK:   -9.50 KCAL/MOL
REMARK 923 INTER-LIGAND FREE ENERGY PREDICTED BY IDOCK:   -8.59 KCAL/MOL
REMARK 924 INTRA-LIGAND FREE ENERGY PREDICTED BY IDOCK:   -0.90 KCAL/MOL
REMARK 927      BINDING AFFINITY PREDICTED BY RF-SCORE:    0.00 PKD
ROOT
HETATM    1  C   UNL     1     -10.505  11.588  63.355  1.00  0.00    -0.466 C  
HETATM    2  C   UNL     1     -10.730  12.721  64.340  1.00  0.00    -0.398 C  
ENDROOT
BRANCH   2   3
HETATM    3  C   UNL     1     -12.223  12.900  64.634  1.00  0.00    -0.494 C  
BRANCH   3   4
HETATM    4  C   UNL     1     -12.445  14.028  65.629  1.00  0.00    -0.504 C  
BRANCH   4   5
HETATM    5  N   UNL     1     -11.339  14.143  66.577  1.00  0.00    -0.330 NA 
HETATM    6  H   UNL     1     -10.425  14.465  66.260  1.00  0.00     0.000 HD 
BRANCH   5   7
HETATM    7  C   UNL     1     -11.536  13.812  67.915  1.00  0.00    -0.341 A  
HETATM    8  C   UNL     1     -11.910  14.750  68.903  1.00  0.00    -0.296 A  
HETATM    9  C   UNL     1     -11.565  10.544  69.824  1.00  0.00    -0.294 C  
HETATM   10  C   UNL     1     -12.170  14.285  70.213  1.00  0.00    -0.342 A  
HETATM   11  O   UNL     1     -11.210  10.197  71.074  1.00  0.00    -0.339 OA 
HETATM   12  O   UNL     1     -11.759   9.729  68.937  1.00  0.00     0.158 OA 
HETATM   13  C   UNL     1     -12.062  12.922  70.557  1.00  0.00    -0.364 A  
HETATM   14  C   UNL     1     -11.666  12.007  69.592  1.00  0.00    -0.405 A  
HETATM   15  C   UNL     1     -11.415  12.460  68.298  1.00  0.00    -0.360 A  
BRANCH   8  16
HETATM   16  O   UNL     1     -11.842  16.114  68.705  1.00  0.00    -0.339 OA 
BRANCH  16  17
HETATM   17  C   UNL     1     -10.669  16.776  68.425  1.00  0.00    -0.362 A  
HETATM   18  C   UNL     1      -9.715  18.660  67.206  1.00  0.00    -0.326 A  
HETATM   19  C   UNL     1      -8.461  18.388  67.758  1.00  0.00    -0.270 A  
HETATM   20  C   UNL     1      -9.405  16.483  68.929  1.00  0.00    -0.256 A  
HETATM   21  C   UNL     1     -10.811  17.861  67.545  1.00  0.00    -0.239 A  
HETATM   22  C   UNL     1      -8.312  17.304  68.617  1.00  0.00    -0.255 A  
ENDBRANCH  16  17
ENDBRANCH   8  16
BRANCH  10  23
HETATM   23  S   UNL     1     -12.690  15.397  71.484  1.00  0.00    -0.448 S  
HETATM   24  O   UNL     1     -14.053  15.809  71.245  1.00  0.00    -0.501 OA 
HETATM   25  H2  UNL     1     -12.422  13.455  72.936  1.00  0.00     0.000 HD 
HETATM   26  H1  UNL     1     -12.972  15.083  73.587  1.00  0.00     0.000 HD 
HETATM   27  N   UNL     1     -12.672  14.441  72.854  1.00  0.00    -0.382 N  
HETATM   28  O   UNL     1     -11.635  16.368  71.697  1.00  0.00    -0.443 OA 
ENDBRANCH  10  23
ENDBRANCH   5   7
ENDBRANCH   4   5
ENDBRANCH   3   4
ENDBRANCH   2   3
TORSDOF 7
ENDMDL
MODEL       20
REMARK 921   NORMALIZED FREE ENERGY PREDICTED BY IDOCK:   -6.09 KCAL/MOL
REMARK 922        TOTAL FREE ENERGY PREDICTED BY IDOCK:   -9.35 KCAL/MOL
REMARK 923 INTER-LIGAND FREE ENERGY PREDICTED BY IDOCK:   -8.00 KCAL/MOL
REMARK 924 INTRA-LIGAND FREE ENERGY PREDICTED BY IDOCK:   -1.36 KCAL/MOL
REMARK 927      BINDING AFFINITY PREDICTED BY RF-SCORE:    0.00 PKD
ROOT
HETATM    1  C   UNL     1     -10.533  11.038  64.042  1.00  0.00    -0.433 C  
HETATM    2  C   UNL     1      -9.810  10.806  65.356  1.00  0.00    -0.317 C  
ENDROOT
BRANCH   2   3
HETATM    3  C   UNL     1     -10.023   9.373  65.852  1.00  0.00    -0.327 C  
BRANCH   3   4
HETATM    4  C   UNL     1     -10.518   9.367  67.289  1.00  0.00    -0.264 C  
BRANCH   4   5
HETATM    5  N   UNL     1     -10.413  10.687  67.907  1.00  0.00    -0.194 NA 
HETATM    6  H   UNL     1      -9.827  11.405  67.480  1.00  0.00     0.000 HD 
BRANCH   5   7
HETATM    7  C   UNL     1     -11.113  10.962  69.078  1.00  0.00    -0.246 A  
HETATM    8  C   UNL     1     -11.453  12.268  69.494  1.00  0.00    -0.249 A  
HETATM    9  C   UNL     1     -12.792   8.800  71.691  1.00  0.00    -0.348 C  
HETATM   10  C   UNL     1     -12.244  12.425  70.655  1.00  0.00    -0.278 A  
HETATM   11  O   UNL     1     -12.977   8.924  73.017  1.00  0.00    -0.297 OA 
HETATM   12  O   UNL     1     -12.951   7.749  71.093  1.00  0.00    -0.247 OA 
HETATM   13  C   UNL     1     -12.696  11.320  71.405  1.00  0.00    -0.501 A  
HETATM   14  C   UNL     1     -12.336  10.039  71.010  1.00  0.00    -0.458 A  
HETATM   15  C   UNL     1     -11.562   9.880  69.863  1.00  0.00    -0.184 A  
BRANCH   8  16
HETATM   16  O   UNL     1     -10.890  13.401  68.941  1.00  0.00    -0.246 OA 
BRANCH  16  17
HETATM   17  C   UNL     1     -11.087  13.777  67.632  1.00  0.00    -0.273 A  
HETATM   18  C   UNL     1      -9.969  14.627  65.639  1.00  0.00    -0.381 A  
HETATM   19  C   UNL     1     -11.159  14.512  64.917  1.00  0.00    -0.401 A  
HETATM   20  C   UNL     1     -12.280  13.714  66.917  1.00  0.00    -0.398 A  
HETATM   21  C   UNL     1      -9.936  14.255  66.985  1.00  0.00    -0.258 A  
HETATM   22  C   UNL     1     -12.306  14.055  65.557  1.00  0.00    -0.503 A  
ENDBRANCH  16  17
ENDBRANCH   8  16
BRANCH  10  23
HETATM   23  S   UNL     1     -12.747  14.028  71.203  1.00  0.00    -0.373 S  
HETATM   24  O   UNL     1     -13.363  14.746  70.112  1.00  0.00     0.023 OA 
HETATM   25  H2  UNL     1     -14.279  12.778  72.631  1.00  0.00     0.000 HD 
HETATM   26  H1  UNL     1     -14.221  14.614  72.647  1.00  0.00     0.000 HD 
HETATM   27  N   UNL     1     -13.931  13.689  72.331  1.00  0.00    -0.574 N  
HETATM   28  O   UNL     1     -11.661  14.607  71.968  1.00  0.00    -0.271 OA 
ENDBRANCH  10  23
ENDBRANCH   5   7
ENDBRANCH   4   5
ENDBRANCH   3   4
ENDBRANCH   2   3
TORSDOF 7
ENDMDL
MODEL       21
REMARK 921   NORMALIZED FREE ENERGY PREDICTED BY IDOCK:   -6.03 KCAL/MOL
REMARK 922        TOTAL FREE ENERGY PREDICTED BY IDOCK:   -9.27 KCAL/MOL
REMARK 923 INTER-LIGAND FREE ENERGY PREDICTED BY IDOCK:   -8.74 KCAL/MOL
REMARK 924 INTRA-LIGAND FREE ENERGY PREDICTED BY IDOCK:   -0.53 KCAL/MOL
REMARK 927      BINDING AFFINITY PREDICTED BY RF-SCORE:    0.00 PKD
ROOT
HETATM    1  C   UNL     1     -13.041   9.537  72.187  1.00  0.00    -0.522 C  
HETATM    2  C   UNL     1     -12.738  10.164  70.838  1.00  0.00    -0.448 C  
ENDROOT
BRANCH   2   3
HETATM    3  C   UNL     1     -11.227  10.266  70.610  1.00  0.00    -0.406 C  
BRANCH   3   4
HETATM    4  C   UNL     1     -10.878   9.961  69.162  1.00  0.00    -0.221 C  
BRANCH   4   5
HETATM    5  N   UNL     1     -10.217  11.090  68.512  1.00  0.00    -0.184 NA 
HETATM    6  H   UNL     1      -9.602  11.701  69.050  1.00  0.00     0.000 HD 
BRANCH   5   7
HETATM    7  C   UNL     1     -10.426  11.330  67.157  1.00  0.00    -0.222 A  
HETATM    8  C   UNL     1     -11.241  12.375  66.667  1.00  0.00    -0.315 A  
HETATM    9  C   UNL     1      -8.987   9.847  63.986  1.00  0.00    -0.243 C  
HETATM   10  C   UNL     1     -11.310  12.580  65.269  1.00  0.00    -0.324 A  
HETATM   11  O   UNL     1      -9.486   9.625  62.757  1.00  0.00    -0.163 OA 
HETATM   12  O   UNL     1      -7.952   9.340  64.385  1.00  0.00    -0.120 OA 
HETATM   13  C   UNL     1     -10.596  11.774  64.360  1.00  0.00    -0.368 A  
HETATM   14  C   UNL     1      -9.819  10.730  64.843  1.00  0.00    -0.350 A  
HETATM   15  C   UNL     1      -9.744  10.527  66.219  1.00  0.00    -0.254 A  
BRANCH   8  16
HETATM   16  O   UNL     1     -12.123  13.074  67.465  1.00  0.00    -0.333 OA 
BRANCH  16  17
HETATM   17  C   UNL     1     -11.721  14.018  68.382  1.00  0.00    -0.354 A  
HETATM   18  C   UNL     1     -11.763  14.605  70.749  1.00  0.00    -0.336 A  
HETATM   19  C   UNL     1     -10.952  15.714  70.492  1.00  0.00    -0.371 A  
HETATM   20  C   UNL     1     -10.955  15.153  68.130  1.00  0.00    -0.287 A  
HETATM   21  C   UNL     1     -12.137  13.762  69.699  1.00  0.00    -0.392 A  
HETATM   22  C   UNL     1     -10.550  15.981  69.188  1.00  0.00    -0.260 A  
ENDBRANCH  16  17
ENDBRANCH   8  16
BRANCH  10  23
HETATM   23  S   UNL     1     -12.270  13.900  64.592  1.00  0.00    -0.406 S  
HETATM   24  O   UNL     1     -13.403  14.168  65.446  1.00  0.00    -0.705 OA 
HETATM   25  H2  UNL     1     -10.280  15.237  65.044  1.00  0.00     0.000 HD 
HETATM   26  H1  UNL     1     -11.788  15.969  64.293  1.00  0.00     0.000 HD 
HETATM   27  N   UNL     1     -11.234  15.207  64.684  1.00  0.00    -0.371 N  
HETATM   28  O   UNL     1     -12.436  13.659  63.173  1.00  0.00    -0.786 OA 
ENDBRANCH  10  23
ENDBRANCH   5   7
ENDBRANCH   4   5
ENDBRANCH   3   4
ENDBRANCH   2   3
TORSDOF 7
ENDMDL
MODEL       22
REMARK 921   NORMALIZED FREE ENERGY PREDICTED BY IDOCK:   -6.03 KCAL/MOL
REMARK 922        TOTAL FREE ENERGY PREDICTED BY IDOCK:   -9.26 KCAL/MOL
REMARK 923 INTER-LIGAND FREE ENERGY PREDICTED BY IDOCK:   -7.92 KCAL/MOL
REMARK 924 INTRA-LIGAND FREE ENERGY PREDICTED BY IDOCK:   -1.34 KCAL/MOL
REMARK 927      BINDING AFFINITY PREDICTED BY RF-SCORE:    0.00 PKD
ROOT
HETATM    1  C   UNL     1     -10.370  19.855  68.442  1.00  0.00    -0.507 C  
HETATM    2  C   UNL     1      -9.773  20.532  67.222  1.00  0.00    -0.600 C  
ENDROOT
BRANCH   2   3
HETATM    3  C   UNL     1     -10.076  19.732  65.951  1.00  0.00    -0.513 C  
BRANCH   3   4
HETATM    4  C   UNL     1     -10.434  18.294  66.291  1.00  0.00    -0.376 C  
BRANCH   4   5
HETATM    5  N   UNL     1      -9.557  17.341  65.617  1.00  0.00    -0.494 NA 
HETATM    6  H   UNL     1      -8.909  17.662  64.898  1.00  0.00     0.000 HD 
BRANCH   5   7
HETATM    7  C   UNL     1      -9.605  15.992  65.959  1.00  0.00    -0.350 A  
HETATM    8  C   UNL     1      -8.559  15.319  66.628  1.00  0.00    -0.270 A  
HETATM    9  C   UNL     1     -12.293  13.336  65.745  1.00  0.00    -0.447 C  
HETATM   10  C   UNL     1      -8.755  13.970  67.005  1.00  0.00    -0.203 A  
HETATM   11  O   UNL     1     -12.270  12.008  65.533  1.00  0.00    -0.483 OA 
HETATM   12  O   UNL     1     -13.311  14.004  65.665  1.00  0.00    -0.636 OA 
HETATM   13  C   UNL     1      -9.955  13.284  66.729  1.00  0.00    -0.263 A  
HETATM   14  C   UNL     1     -10.970  13.939  66.047  1.00  0.00    -0.285 A  
HETATM   15  C   UNL     1     -10.784  15.270  65.678  1.00  0.00    -0.376 A  
BRANCH   8  16
HETATM   16  O   UNL     1      -7.290  15.845  66.754  1.00  0.00    -0.203 OA 
BRANCH  16  17
HETATM   17  C   UNL     1      -7.030  17.038  67.390  1.00  0.00    -0.155 A  
HETATM   18  C   UNL     1      -6.149  19.288  67.069  1.00  0.00    -0.174 A  
HETATM   19  C   UNL     1      -6.486  19.613  68.385  1.00  0.00    -0.291 A  
HETATM   20  C   UNL     1      -7.317  17.356  68.715  1.00  0.00    -0.257 A  
HETATM   21  C   UNL     1      -6.427  18.011  66.577  1.00  0.00    -0.243 A  
HETATM   22  C   UNL     1      -7.070  18.649  69.200  1.00  0.00    -0.251 A  
ENDBRANCH  16  17
ENDBRANCH   8  16
BRANCH  10  23
HETATM   23  S   UNL     1      -7.506  13.084  67.887  1.00  0.00    -0.155 S  
HETATM   24  O   UNL     1      -7.150  13.806  69.086  1.00  0.00    -0.108 OA 
HETATM   25  H2  UNL     1      -9.252  11.402  68.157  1.00  0.00     0.000 HD 
HETATM   26  H1  UNL     1      -7.568  11.169  68.852  1.00  0.00     0.000 HD 
HETATM   27  N   UNL     1      -8.288  11.680  68.343  1.00  0.00    -0.154 N  
HETATM   28  O   UNL     1      -6.498  12.655  66.939  1.00  0.00    -0.131 OA 
ENDBRANCH  10  23
ENDBRANCH   5   7
ENDBRANCH   4   5
ENDBRANCH   3   4
ENDBRANCH   2   3
TORSDOF 7
ENDMDL
MODEL       23
REMARK 921   NORMALIZED FREE ENERGY PREDICTED BY IDOCK:   -5.94 KCAL/MOL
REMARK 922        TOTAL FREE ENERGY PREDICTED BY IDOCK:   -9.14 KCAL/MOL
REMARK 923 INTER-LIGAND FREE ENERGY PREDICTED BY IDOCK:   -8.33 KCAL/MOL
REMARK 924 INTRA-LIGAND FREE ENERGY PREDICTED BY IDOCK:   -0.81 KCAL/MOL
REMARK 927      BINDING AFFINITY PREDICTED BY RF-SCORE:    0.00 PKD
ROOT
HETATM    1  C   UNL     1     -12.632  14.996  73.633  1.00  0.00    -0.666 C  
HETATM    2  C   UNL     1     -13.480  15.792  72.658  1.00  0.00    -0.624 C  
ENDROOT
BRANCH   2   3
HETATM    3  C   UNL     1     -13.339  15.242  71.236  1.00  0.00    -0.586 C  
BRANCH   3   4
HETATM    4  C   UNL     1     -12.696  13.865  71.252  1.00  0.00    -0.367 C  
BRANCH   4   5
HETATM    5  N   UNL     1     -11.992  13.578  70.004  1.00  0.00    -0.344 NA 
HETATM    6  H   UNL     1     -11.816  14.326  69.333  1.00  0.00     0.000 HD 
BRANCH   5   7
HETATM    7  C   UNL     1     -11.561  12.283  69.733  1.00  0.00    -0.243 A  
HETATM    8  C   UNL     1     -10.590  11.973  68.756  1.00  0.00    -0.209 A  
HETATM    9  C   UNL     1     -12.236   8.915  71.323  1.00  0.00    -0.299 C  
HETATM   10  C   UNL     1     -10.163  10.631  68.627  1.00  0.00    -0.182 A  
HETATM   11  O   UNL     1     -12.322   7.663  70.841  1.00  0.00    -0.244 OA 
HETATM   12  O   UNL     1     -12.634   9.229  72.433  1.00  0.00    -0.351 OA 
HETATM   13  C   UNL     1     -10.680   9.601  69.440  1.00  0.00    -0.248 A  
HETATM   14  C   UNL     1     -11.655   9.904  70.380  1.00  0.00    -0.356 A  
HETATM   15  C   UNL     1     -12.075  11.226  70.514  1.00  0.00    -0.481 A  
BRANCH   8  16
HETATM   16  O   UNL     1     -10.184  12.872  67.791  1.00  0.00    -0.215 OA 
BRANCH  16  17
HETATM   17  C   UNL     1     -10.912  13.134  66.653  1.00  0.00    -0.283 A  
HETATM   18  C   UNL     1     -11.034  14.560  64.679  1.00  0.00    -0.351 A  
HETATM   19  C   UNL     1     -12.128  13.828  64.212  1.00  0.00    -0.481 A  
HETATM   20  C   UNL     1     -12.033  12.442  66.203  1.00  0.00    -0.397 A  
HETATM   21  C   UNL     1     -10.429  14.208  65.888  1.00  0.00    -0.313 A  
HETATM   22  C   UNL     1     -12.621  12.773  64.973  1.00  0.00    -0.538 A  
ENDBRANCH  16  17
ENDBRANCH   8  16
BRANCH  10  23
HETATM   23  S   UNL     1      -8.915  10.183  67.459  1.00  0.00    -0.130 S  
HETATM   24  O   UNL     1      -7.763  11.039  67.621  1.00  0.00    -0.107 OA 
HETATM   25  H2  UNL     1      -8.851   8.093  68.716  1.00  0.00     0.000 HD 
HETATM   26  H1  UNL     1      -7.764   8.383  67.264  1.00  0.00     0.000 HD 
HETATM   27  N   UNL     1      -8.484   8.641  67.938  1.00  0.00    -0.129 N  
HETATM   28  O   UNL     1      -9.546  10.005  66.167  1.00  0.00    -0.183 OA 
ENDBRANCH  10  23
ENDBRANCH   5   7
ENDBRANCH   4   5
ENDBRANCH   3   4
ENDBRANCH   2   3
TORSDOF 7
ENDMDL
MODEL       24
REMARK 921   NORMALIZED FREE ENERGY PREDICTED BY IDOCK:   -5.93 KCAL/MOL
REMARK 922        TOTAL FREE ENERGY PREDICTED BY IDOCK:   -9.13 KCAL/MOL
REMARK 923 INTER-LIGAND FREE ENERGY PREDICTED BY IDOCK:   -8.49 KCAL/MOL
REMARK 924 INTRA-LIGAND FREE ENERGY PREDICTED BY IDOCK:   -0.64 KCAL/MOL
REMARK 927      BINDING AFFINITY PREDICTED BY RF-SCORE:    0.00 PKD
ROOT
HETATM    1  C   UNL     1     -12.627  16.002  74.358  1.00  0.00    -0.642 C  
HETATM    2  C   UNL     1     -12.571  15.641  72.885  1.00  0.00    -0.551 C  
ENDROOT
BRANCH   2   3
HETATM    3  C   UNL     1     -13.809  14.839  72.471  1.00  0.00    -0.561 C  
BRANCH   3   4
HETATM    4  C   UNL     1     -13.408  13.513  71.844  1.00  0.00    -0.443 C  
BRANCH   4   5
HETATM    5  N   UNL     1     -12.491  13.697  70.721  1.00  0.00    -0.359 NA 
HETATM    6  H   UNL     1     -12.163  14.632  70.477  1.00  0.00     0.000 HD 
BRANCH   5   7
HETATM    7  C   UNL     1     -12.065  12.595  69.986  1.00  0.00    -0.269 A  
HETATM    8  C   UNL     1     -11.698  12.660  68.624  1.00  0.00    -0.325 A  
HETATM    9  C   UNL     1     -11.297   8.997  70.876  1.00  0.00    -0.293 C  
HETATM   10  C   UNL     1     -11.194  11.495  68.002  1.00  0.00    -0.269 A  
HETATM   11  O   UNL     1     -11.421   7.832  70.216  1.00  0.00    -0.223 OA 
HETATM   12  O   UNL     1     -11.112   9.063  72.080  1.00  0.00    -0.364 OA 
HETATM   13  C   UNL     1     -11.054  10.277  68.698  1.00  0.00    -0.290 A  
HETATM   14  C   UNL     1     -11.443  10.208  70.029  1.00  0.00    -0.344 A  
HETATM   15  C   UNL     1     -11.934  11.356  70.648  1.00  0.00    -0.413 A  
BRANCH   8  16
HETATM   16  O   UNL     1     -11.990  13.744  67.821  1.00  0.00    -0.361 OA 
BRANCH  16  17
HETATM   17  C   UNL     1     -11.088  14.750  67.558  1.00  0.00    -0.319 A  
HETATM   18  C   UNL     1     -10.242  16.228  65.813  1.00  0.00    -0.390 A  
HETATM   19  C   UNL     1      -9.428  16.873  66.748  1.00  0.00    -0.269 A  
HETATM   20  C   UNL     1     -10.236  15.366  68.471  1.00  0.00    -0.219 A  
HETATM   21  C   UNL     1     -11.070  15.179  66.221  1.00  0.00    -0.309 A  
HETATM   22  C   UNL     1      -9.430  16.441  68.070  1.00  0.00    -0.217 A  
ENDBRANCH  16  17
ENDBRANCH   8  16
BRANCH  10  23
HETATM   23  S   UNL     1     -10.670  11.521  66.314  1.00  0.00    -0.271 S  
HETATM   24  O   UNL     1      -9.430  12.251  66.199  1.00  0.00    -0.239 OA 
HETATM   25  H2  UNL     1     -10.443   9.111  66.616  1.00  0.00     0.000 HD 
HETATM   26  H1  UNL     1     -10.052   9.928  65.017  1.00  0.00     0.000 HD 
HETATM   27  N   UNL     1     -10.355   9.912  65.991  1.00  0.00    -0.187 N  
HETATM   28  O   UNL     1     -11.815  11.847  65.488  1.00  0.00    -0.364 OA 
ENDBRANCH  10  23
ENDBRANCH   5   7
ENDBRANCH   4   5
ENDBRANCH   3   4
ENDBRANCH   2   3
TORSDOF 7
ENDMDL
MODEL       25
REMARK 921   NORMALIZED FREE ENERGY PREDICTED BY IDOCK:   -5.89 KCAL/MOL
REMARK 922        TOTAL FREE ENERGY PREDICTED BY IDOCK:   -9.07 KCAL/MOL
REMARK 923 INTER-LIGAND FREE ENERGY PREDICTED BY IDOCK:   -8.61 KCAL/MOL
REMARK 924 INTRA-LIGAND FREE ENERGY PREDICTED BY IDOCK:   -0.46 KCAL/MOL
REMARK 927      BINDING AFFINITY PREDICTED BY RF-SCORE:    0.00 PKD
ROOT
HETATM    1  C   UNL     1     -10.435  11.925  63.410  1.00  0.00    -0.487 C  
HETATM    2  C   UNL     1     -11.853  12.467  63.421  1.00  0.00    -0.571 C  
ENDROOT
BRANCH   2   3
HETATM    3  C   UNL     1     -12.164  13.153  64.755  1.00  0.00    -0.477 C  
BRANCH   3   4
HETATM    4  C   UNL     1     -11.538  12.391  65.912  1.00  0.00    -0.396 C  
BRANCH   4   5
HETATM    5  N   UNL     1     -11.131  13.283  66.995  1.00  0.00    -0.276 NA 
HETATM    6  H   UNL     1     -10.622  14.142  66.785  1.00  0.00     0.000 HD 
BRANCH   5   7
HETATM    7  C   UNL     1     -11.439  12.960  68.313  1.00  0.00    -0.311 A  
HETATM    8  C   UNL     1     -11.980  13.882  69.236  1.00  0.00    -0.357 A  
HETATM    9  C   UNL     1     -11.425   9.729  70.285  1.00  0.00    -0.255 C  
HETATM   10  C   UNL     1     -12.338  13.420  70.524  1.00  0.00    -0.329 A  
HETATM   11  O   UNL     1     -11.176   9.430  71.572  1.00  0.00    -0.355 OA 
HETATM   12  O   UNL     1     -11.466   8.888  69.402  1.00  0.00     0.174 OA 
HETATM   13  C   UNL     1     -12.167  12.075  70.909  1.00  0.00    -0.325 A  
HETATM   14  C   UNL     1     -11.608  11.177  70.010  1.00  0.00    -0.421 A  
HETATM   15  C   UNL     1     -11.259  11.627  68.738  1.00  0.00    -0.304 A  
BRANCH   8  16
HETATM   16  O   UNL     1     -11.992  15.244  69.014  1.00  0.00    -0.323 OA 
BRANCH  16  17
HETATM   17  C   UNL     1     -10.854  15.975  68.758  1.00  0.00    -0.302 A  
HETATM   18  C   UNL     1      -9.976  17.875  67.508  1.00  0.00    -0.322 A  
HETATM   19  C   UNL     1      -8.732  17.710  68.122  1.00  0.00    -0.265 A  
HETATM   20  C   UNL     1      -9.598  15.787  69.326  1.00  0.00    -0.270 A  
HETATM   21  C   UNL     1     -11.029  17.016  67.832  1.00  0.00    -0.226 A  
HETATM   22  C   UNL     1      -8.549  16.670  69.028  1.00  0.00    -0.190 A  
ENDBRANCH  16  17
ENDBRANCH   8  16
BRANCH  10  23
HETATM   23  S   UNL     1     -13.066  14.510  71.710  1.00  0.00    -0.372 S  
HETATM   24  O   UNL     1     -13.600  13.745  72.812  1.00  0.00    -0.666 OA 
HETATM   25  H2  UNL     1     -10.778  15.306  71.999  1.00  0.00     0.000 HD 
HETATM   26  H1  UNL     1     -12.178  16.012  72.957  1.00  0.00     0.000 HD 
HETATM   27  N   UNL     1     -11.758  15.383  72.273  1.00  0.00    -0.439 N  
HETATM   28  O   UNL     1     -13.878  15.476  70.999  1.00  0.00    -0.545 OA 
ENDBRANCH  10  23
ENDBRANCH   5   7
ENDBRANCH   4   5
ENDBRANCH   3   4
ENDBRANCH   2   3
TORSDOF 7
ENDMDL
MODEL       26
REMARK 921   NORMALIZED FREE ENERGY PREDICTED BY IDOCK:   -5.85 KCAL/MOL
REMARK 922        TOTAL FREE ENERGY PREDICTED BY IDOCK:   -9.01 KCAL/MOL
REMARK 923 INTER-LIGAND FREE ENERGY PREDICTED BY IDOCK:   -8.28 KCAL/MOL
REMARK 924 INTRA-LIGAND FREE ENERGY PREDICTED BY IDOCK:   -0.73 KCAL/MOL
REMARK 927      BINDING AFFINITY PREDICTED BY RF-SCORE:    0.00 PKD
ROOT
HETATM    1  C   UNL     1     -10.374   8.204  72.571  1.00  0.00    -0.401 C  
HETATM    2  C   UNL     1     -11.339   8.361  71.410  1.00  0.00    -0.317 C  
ENDROOT
BRANCH   2   3
HETATM    3  C   UNL     1     -11.529   9.838  71.054  1.00  0.00    -0.458 C  
BRANCH   3   4
HETATM    4  C   UNL     1     -10.848  10.167  69.735  1.00  0.00    -0.279 C  
BRANCH   4   5
HETATM    5  N   UNL     1     -11.793  10.684  68.748  1.00  0.00    -0.662 NA 
HETATM    6  H   UNL     1     -12.536  10.085  68.388  1.00  0.00     0.000 HD 
BRANCH   5   7
HETATM    7  C   UNL     1     -11.678  11.998  68.300  1.00  0.00    -0.334 A  
HETATM    8  C   UNL     1     -11.506  12.346  66.942  1.00  0.00    -0.360 A  
HETATM    9  C   UNL     1     -11.989  15.372  69.986  1.00  0.00    -0.356 C  
HETATM   10  C   UNL     1     -11.491  13.716  66.592  1.00  0.00    -0.343 A  
HETATM   11  O   UNL     1     -11.393  16.562  69.795  1.00  0.00    -0.239 OA 
HETATM   12  O   UNL     1     -12.626  15.101  70.990  1.00  0.00    -0.318 OA 
HETATM   13  C   UNL     1     -11.638  14.735  67.555  1.00  0.00    -0.379 A  
HETATM   14  C   UNL     1     -11.778  14.390  68.892  1.00  0.00    -0.357 A  
HETATM   15  C   UNL     1     -11.799  13.042  69.241  1.00  0.00    -0.370 A  
BRANCH   8  16
HETATM   16  O   UNL     1     -11.154  11.429  65.973  1.00  0.00    -0.262 OA 
BRANCH  16  17
HETATM   17  C   UNL     1      -9.913  10.839  65.910  1.00  0.00    -0.250 A  
HETATM   18  C   UNL     1      -8.664   8.978  64.948  1.00  0.00    -0.200 A  
HETATM   19  C   UNL     1      -7.484   9.475  65.509  1.00  0.00    -0.102 A  
HETATM   20  C   UNL     1      -8.741  11.297  66.506  1.00  0.00    -0.178 A  
HETATM   21  C   UNL     1      -9.867   9.662  65.145  1.00  0.00    -0.209 A  
HETATM   22  C   UNL     1      -7.527  10.631  66.281  1.00  0.00    -0.137 A  
ENDBRANCH  16  17
ENDBRANCH   8  16
BRANCH  10  23
HETATM   23  S   UNL     1     -11.329  14.220  64.906  1.00  0.00    -0.391 S  
HETATM   24  O   UNL     1     -12.562  13.965  64.199  1.00  0.00    -0.675 OA 
HETATM   25  H2  UNL     1     -11.111  16.453  65.862  1.00  0.00     0.000 HD 
HETATM   26  H1  UNL     1     -11.039  16.165  64.049  1.00  0.00     0.000 HD 
HETATM   27  N   UNL     1     -11.132  15.874  65.022  1.00  0.00    -0.386 N  
HETATM   28  O   UNL     1     -10.060  13.731  64.406  1.00  0.00    -0.319 OA 
ENDBRANCH  10  23
ENDBRANCH   5   7
ENDBRANCH   4   5
ENDBRANCH   3   4
ENDBRANCH   2   3
TORSDOF 7
ENDMDL
MODEL       27
REMARK 921   NORMALIZED FREE ENERGY PREDICTED BY IDOCK:   -5.84 KCAL/MOL
REMARK 922        TOTAL FREE ENERGY PREDICTED BY IDOCK:   -8.99 KCAL/MOL
REMARK 923 INTER-LIGAND FREE ENERGY PREDICTED BY IDOCK:   -8.15 KCAL/MOL
REMARK 924 INTRA-LIGAND FREE ENERGY PREDICTED BY IDOCK:   -0.84 KCAL/MOL
REMARK 927      BINDING AFFINITY PREDICTED BY RF-SCORE:    0.00 PKD
ROOT
HETATM    1  C   UNL     1     -13.155  15.838  72.917  1.00  0.00    -0.618 C  
HETATM    2  C   UNL     1     -12.310  15.754  71.659  1.00  0.00    -0.521 C  
ENDROOT
BRANCH   2   3
HETATM    3  C   UNL     1     -12.972  14.850  70.615  1.00  0.00    -0.389 C  
BRANCH   3   4
HETATM    4  C   UNL     1     -12.327  13.473  70.607  1.00  0.00    -0.358 C  
BRANCH   4   5
HETATM    5  N   UNL     1     -11.122  13.441  69.781  1.00  0.00    -0.465 NA 
HETATM    6  H   UNL     1     -10.299  13.978  70.056  1.00  0.00     0.000 HD 
BRANCH   5   7
HETATM    7  C   UNL     1     -11.099  12.676  68.618  1.00  0.00    -0.266 A  
HETATM    8  C   UNL     1     -11.231  13.223  67.323  1.00  0.00    -0.292 A  
HETATM    9  C   UNL     1     -10.440   9.018  67.908  1.00  0.00    -0.234 C  
HETATM   10  C   UNL     1     -11.103  12.362  66.208  1.00  0.00    -0.303 A  
HETATM   11  O   UNL     1     -10.908   8.152  66.991  1.00  0.00    -0.265 OA 
HETATM   12  O   UNL     1      -9.836   8.665  68.908  1.00  0.00    -0.170 OA 
HETATM   13  C   UNL     1     -10.852  10.982  66.355  1.00  0.00    -0.253 A  
HETATM   14  C   UNL     1     -10.751  10.443  67.630  1.00  0.00    -0.335 A  
HETATM   15  C   UNL     1     -10.871  11.289  68.731  1.00  0.00    -0.252 A  
BRANCH   8  16
HETATM   16  O   UNL     1     -11.675  14.510  67.095  1.00  0.00    -0.377 OA 
BRANCH  16  17
HETATM   17  C   UNL     1     -10.915  15.626  67.359  1.00  0.00    -0.293 A  
HETATM   18  C   UNL     1      -8.749  16.672  66.958  1.00  0.00    -0.223 A  
HETATM   19  C   UNL     1      -9.171  17.816  67.639  1.00  0.00    -0.249 A  
HETATM   20  C   UNL     1     -11.308  16.751  68.078  1.00  0.00     0.009 A  
HETATM   21  C   UNL     1      -9.620  15.589  66.816  1.00  0.00    -0.251 A  
HETATM   22  C   UNL     1     -10.446  17.852  68.193  1.00  0.00    -0.380 A  
ENDBRANCH  16  17
ENDBRANCH   8  16
BRANCH  10  23
HETATM   23  S   UNL     1     -11.208  12.989  64.560  1.00  0.00    -0.360 S  
HETATM   24  O   UNL     1     -10.074  13.840  64.287  1.00  0.00    -0.271 OA 
HETATM   25  H2  UNL     1     -10.937  10.649  63.927  1.00  0.00     0.000 HD 
HETATM   26  H1  UNL     1     -11.120  11.977  62.670  1.00  0.00     0.000 HD 
HETATM   27  N   UNL     1     -11.060  11.615  63.622  1.00  0.00    -0.420 N  
HETATM   28  O   UNL     1     -12.565  13.446  64.334  1.00  0.00    -0.612 OA 
ENDBRANCH  10  23
ENDBRANCH   5   7
ENDBRANCH   4   5
ENDBRANCH   3   4
ENDBRANCH   2   3
TORSDOF 7
ENDMDL
MODEL       28
REMARK 921   NORMALIZED FREE ENERGY PREDICTED BY IDOCK:   -5.83 KCAL/MOL
REMARK 922        TOTAL FREE ENERGY PREDICTED BY IDOCK:   -8.99 KCAL/MOL
REMARK 923 INTER-LIGAND FREE ENERGY PREDICTED BY IDOCK:   -7.92 KCAL/MOL
REMARK 924 INTRA-LIGAND FREE ENERGY PREDICTED BY IDOCK:   -1.07 KCAL/MOL
REMARK 927      BINDING AFFINITY PREDICTED BY RF-SCORE:    0.00 PKD
ROOT
HETATM    1  C   UNL     1     -13.550  13.249  72.177  1.00  0.00    -0.655 C  
HETATM    2  C   UNL     1     -13.226  11.781  71.974  1.00  0.00    -0.460 C  
ENDROOT
BRANCH   2   3
HETATM    3  C   UNL     1     -12.403  11.575  70.698  1.00  0.00    -0.457 C  
BRANCH   3   4
HETATM    4  C   UNL     1     -12.103  12.906  70.029  1.00  0.00    -0.286 C  
BRANCH   4   5
HETATM    5  N   UNL     1     -10.817  12.890  69.336  1.00  0.00    -0.445 NA 
HETATM    6  H   UNL     1      -9.966  13.156  69.831  1.00  0.00     0.000 HD 
BRANCH   5   7
HETATM    7  C   UNL     1     -10.755  12.509  67.998  1.00  0.00    -0.221 A  
HETATM    8  C   UNL     1      -9.949  11.449  67.526  1.00  0.00    -0.182 A  
HETATM    9  C   UNL     1     -12.631  13.569  64.887  1.00  0.00    -0.342 C  
HETATM   10  C   UNL     1     -10.032  11.092  66.161  1.00  0.00    -0.229 A  
HETATM   11  O   UNL     1     -12.292  13.672  63.590  1.00  0.00    -0.691 OA 
HETATM   12  O   UNL     1     -13.638  14.075  65.353  1.00  0.00    -0.593 OA 
HETATM   13  C   UNL     1     -10.889  11.763  65.264  1.00  0.00    -0.343 A  
HETATM   14  C   UNL     1     -11.659  12.822  65.725  1.00  0.00    -0.419 A  
HETATM   15  C   UNL     1     -11.584  13.174  67.071  1.00  0.00    -0.408 A  
BRANCH   8  16
HETATM   16  O   UNL     1      -8.943  10.879  68.281  1.00  0.00    -0.138 OA 
BRANCH  16  17
HETATM   17  C   UNL     1      -9.176   9.929  69.249  1.00  0.00    -0.200 A  
HETATM   18  C   UNL     1      -8.242   8.880  71.242  1.00  0.00    -0.207 A  
HETATM   19  C   UNL     1      -9.415   8.141  71.408  1.00  0.00    -0.211 A  
HETATM   20  C   UNL     1     -10.321   9.151  69.394  1.00  0.00    -0.220 A  
HETATM   21  C   UNL     1      -8.130   9.773  70.172  1.00  0.00    -0.202 A  
HETATM   22  C   UNL     1     -10.448   8.280  70.487  1.00  0.00    -0.225 A  
ENDBRANCH  16  17
ENDBRANCH   8  16
BRANCH  10  23
HETATM   23  S   UNL     1      -9.089   9.744  65.515  1.00  0.00    -0.214 S  
HETATM   24  O   UNL     1      -9.617   8.496  66.011  1.00  0.00    -0.227 OA 
HETATM   25  H2  UNL     1      -9.983  10.482  63.369  1.00  0.00     0.000 HD 
HETATM   26  H1  UNL     1      -8.850   9.042  63.503  1.00  0.00     0.000 HD 
HETATM   27  N   UNL     1      -9.395   9.819  63.875  1.00  0.00    -0.218 N  
HETATM   28  O   UNL     1      -7.683  10.071  65.645  1.00  0.00    -0.123 OA 
ENDBRANCH  10  23
ENDBRANCH   5   7
ENDBRANCH   4   5
ENDBRANCH   3   4
ENDBRANCH   2   3
TORSDOF 7
ENDMDL
MODEL       29
REMARK 921   NORMALIZED FREE ENERGY PREDICTED BY IDOCK:   -5.81 KCAL/MOL
REMARK 922        TOTAL FREE ENERGY PREDICTED BY IDOCK:   -8.95 KCAL/MOL
REMARK 923 INTER-LIGAND FREE ENERGY PREDICTED BY IDOCK:   -7.73 KCAL/MOL
REMARK 924 INTRA-LIGAND FREE ENERGY PREDICTED BY IDOCK:   -1.23 KCAL/MOL
REMARK 927      BINDING AFFINITY PREDICTED BY RF-SCORE:    0.00 PKD
ROOT
HETATM    1  C   UNL     1     -14.145   8.427  71.777  1.00  0.00    -0.509 C  
HETATM    2  C   UNL     1     -12.876   9.203  72.077  1.00  0.00    -0.483 C  
ENDROOT
BRANCH   2   3
HETATM    3  C   UNL     1     -13.070  10.697  71.796  1.00  0.00    -0.571 C  
BRANCH   3   4
HETATM    4  C   UNL     1     -12.093  11.178  70.736  1.00  0.00    -0.357 C  
BRANCH   4   5
HETATM    5  N   UNL     1     -12.358  10.569  69.435  1.00  0.00    -0.668 NA 
HETATM    6  H   UNL     1     -13.187   9.989  69.301  1.00  0.00     0.000 HD 
BRANCH   5   7
HETATM    7  C   UNL     1     -11.477  10.781  68.378  1.00  0.00    -0.288 A  
HETATM    8  C   UNL     1     -10.219  10.148  68.272  1.00  0.00    -0.166 A  
HETATM    9  C   UNL     1     -11.710  12.705  65.127  1.00  0.00    -0.367 C  
HETATM   10  C   UNL     1      -9.445  10.370  67.109  1.00  0.00    -0.159 A  
HETATM   11  O   UNL     1     -10.815  13.380  64.383  1.00  0.00    -0.384 OA 
HETATM   12  O   UNL     1     -12.915  12.811  64.975  1.00  0.00    -0.811 OA 
HETATM   13  C   UNL     1      -9.892  11.203  66.063  1.00  0.00    -0.270 A  
HETATM   14  C   UNL     1     -11.115  11.846  66.182  1.00  0.00    -0.374 A  
HETATM   15  C   UNL     1     -11.884  11.626  67.324  1.00  0.00    -0.133 A  
BRANCH   8  16
HETATM   16  O   UNL     1      -9.622   9.487  69.326  1.00  0.00    -0.162 OA 
BRANCH  16  17
HETATM   17  C   UNL     1     -10.010   8.235  69.746  1.00  0.00    -0.191 A  
HETATM   18  C   UNL     1     -10.192   6.781  71.695  1.00  0.00    -0.208 A  
HETATM   19  C   UNL     1     -10.812   5.804  70.913  1.00  0.00    -0.326 A  
HETATM   20  C   UNL     1     -10.583   7.235  68.965  1.00  0.00    -0.214 A  
HETATM   21  C   UNL     1      -9.802   7.990  71.113  1.00  0.00    -0.198 A  
HETATM   22  C   UNL     1     -11.006   6.035  69.555  1.00  0.00    -0.467 A  
ENDBRANCH  16  17
ENDBRANCH   8  16
BRANCH  10  23
HETATM   23  S   UNL     1      -7.885   9.570  66.891  1.00  0.00    -0.101 S  
HETATM   24  O   UNL     1      -8.080   8.146  66.754  1.00  0.00    -0.101 OA 
HETATM   25  H2  UNL     1      -7.825  10.824  64.799  1.00  0.00     0.000 HD 
HETATM   26  H1  UNL     1      -6.458   9.701  65.294  1.00  0.00     0.000 HD 
HETATM   27  N   UNL     1      -7.358  10.162  65.420  1.00  0.00    -0.139 N  
HETATM   28  O   UNL     1      -6.956  10.113  67.862  1.00  0.00    -0.081 OA 
ENDBRANCH  10  23
ENDBRANCH   5   7
ENDBRANCH   4   5
ENDBRANCH   3   4
ENDBRANCH   2   3
TORSDOF 7
ENDMDL
MODEL       30
REMARK 921   NORMALIZED FREE ENERGY PREDICTED BY IDOCK:   -5.80 KCAL/MOL
REMARK 922        TOTAL FREE ENERGY PREDICTED BY IDOCK:   -8.94 KCAL/MOL
REMARK 923 INTER-LIGAND FREE ENERGY PREDICTED BY IDOCK:   -7.90 KCAL/MOL
REMARK 924 INTRA-LIGAND FREE ENERGY PREDICTED BY IDOCK:   -1.04 KCAL/MOL
REMARK 927      BINDING AFFINITY PREDICTED BY RF-SCORE:    0.00 PKD
ROOT
HETATM    1  C   UNL     1     -11.251   6.158  69.540  1.00  0.00    -0.482 C  
HETATM    2  C   UNL     1     -10.210   6.933  68.752  1.00  0.00    -0.179 C  
ENDROOT
BRANCH   2   3
HETATM    3  C   UNL     1     -10.692   7.197  67.323  1.00  0.00    -0.399 C  
BRANCH   3   4
HETATM    4  C   UNL     1     -10.355   8.616  66.893  1.00  0.00    -0.285 C  
BRANCH   4   5
HETATM    5  N   UNL     1     -10.412   9.552  68.013  1.00  0.00    -0.219 NA 
HETATM    6  H   UNL     1     -10.071   9.271  68.932  1.00  0.00     0.000 HD 
BRANCH   5   7
HETATM    7  C   UNL     1     -10.933  10.829  67.823  1.00  0.00    -0.297 A  
HETATM    8  C   UNL     1     -11.083  11.772  68.864  1.00  0.00    -0.243 A  
HETATM    9  C   UNL     1     -11.978  12.800  64.766  1.00  0.00    -0.402 C  
HETATM   10  C   UNL     1     -11.540  13.071  68.540  1.00  0.00    -0.328 A  
HETATM   11  O   UNL     1     -12.929  13.722  64.538  1.00  0.00    -0.602 OA 
HETATM   12  O   UNL     1     -11.386  12.220  63.870  1.00  0.00    -0.357 OA 
HETATM   13  C   UNL     1     -11.849  13.445  67.216  1.00  0.00    -0.422 A  
HETATM   14  C   UNL     1     -11.728  12.508  66.200  1.00  0.00    -0.466 A  
HETATM   15  C   UNL     1     -11.273  11.228  66.514  1.00  0.00    -0.222 A  
BRANCH   8  16
HETATM   16  O   UNL     1     -10.999  11.434  70.199  1.00  0.00    -0.013 OA 
BRANCH  16  17
HETATM   17  C   UNL     1     -11.756  10.437  70.772  1.00  0.00    -0.368 A  
HETATM   18  C   UNL     1     -11.639   8.373  72.065  1.00  0.00    -0.418 A  
HETATM   19  C   UNL     1     -13.034   8.328  72.128  1.00  0.00    -0.327 A  
HETATM   20  C   UNL     1     -13.146  10.356  70.798  1.00  0.00    -0.362 A  
HETATM   21  C   UNL     1     -11.008   9.426  71.396  1.00  0.00    -0.443 A  
HETATM   22  C   UNL     1     -13.779   9.319  71.498  1.00  0.00    -0.382 A  
ENDBRANCH  16  17
ENDBRANCH   8  16
BRANCH  10  23
HETATM   23  S   UNL     1     -11.703  14.313  69.786  1.00  0.00    -0.325 S  
HETATM   24  O   UNL     1     -10.396  14.717  70.247  1.00  0.00     0.049 OA 
HETATM   25  H2  UNL     1     -12.633  15.649  67.969  1.00  0.00     0.000 HD 
HETATM   26  H1  UNL     1     -12.472  16.312  69.675  1.00  0.00     0.000 HD 
HETATM   27  N   UNL     1     -12.378  15.596  68.956  1.00  0.00    -0.086 N  
HETATM   28  O   UNL     1     -12.733  13.891  70.715  1.00  0.00    -0.329 OA 
ENDBRANCH  10  23
ENDBRANCH   5   7
ENDBRANCH   4   5
ENDBRANCH   3   4
ENDBRANCH   2   3
TORSDOF 7
ENDMDL
MODEL       31
REMARK 921   NORMALIZED FREE ENERGY PREDICTED BY IDOCK:   -5.76 KCAL/MOL
REMARK 922        TOTAL FREE ENERGY PREDICTED BY IDOCK:   -8.89 KCAL/MOL
REMARK 923 INTER-LIGAND FREE ENERGY PREDICTED BY IDOCK:   -8.37 KCAL/MOL
REMARK 924 INTRA-LIGAND FREE ENERGY PREDICTED BY IDOCK:   -0.52 KCAL/MOL
REMARK 927      BINDING AFFINITY PREDICTED BY RF-SCORE:    0.00 PKD
ROOT
HETATM    1  C   UNL     1     -12.224   6.872  71.037  1.00  0.00    -0.427 C  
HETATM    2  C   UNL     1     -11.233   7.978  71.346  1.00  0.00    -0.287 C  
ENDROOT
BRANCH   2   3
HETATM    3  C   UNL     1     -11.892   9.088  72.170  1.00  0.00    -0.384 C  
BRANCH   3   4
HETATM    4  C   UNL     1     -13.125   9.626  71.462  1.00  0.00    -0.400 C  
BRANCH   4   5
HETATM    5  N   UNL     1     -12.806  10.149  70.136  1.00  0.00    -0.565 NA 
HETATM    6  H   UNL     1     -12.842   9.536  69.322  1.00  0.00     0.000 HD 
BRANCH   5   7
HETATM    7  C   UNL     1     -12.455  11.488  69.985  1.00  0.00    -0.122 A  
HETATM    8  C   UNL     1     -12.007  12.044  68.766  1.00  0.00    -0.244 A  
HETATM    9  C   UNL     1     -12.636  14.512  72.254  1.00  0.00    -0.303 C  
HETATM   10  C   UNL     1     -11.763  13.435  68.706  1.00  0.00    -0.340 A  
HETATM   11  O   UNL     1     -11.874  15.610  72.397  1.00  0.00    -0.401 OA 
HETATM   12  O   UNL     1     -13.467  14.166  73.078  1.00  0.00    -0.661 OA 
HETATM   13  C   UNL     1     -11.949  14.275  69.823  1.00  0.00    -0.394 A  
HETATM   14  C   UNL     1     -12.361  13.722  71.027  1.00  0.00    -0.452 A  
HETATM   15  C   UNL     1     -12.608  12.352  71.089  1.00  0.00    -0.349 A  
BRANCH   8  16
HETATM   16  O   UNL     1     -11.608  11.273  67.693  1.00  0.00    -0.490 OA 
BRANCH  16  17
HETATM   17  C   UNL     1     -10.655  10.285  67.790  1.00  0.00    -0.250 A  
HETATM   18  C   UNL     1      -8.707   9.546  69.056  1.00  0.00    -0.142 A  
HETATM   19  C   UNL     1      -8.654   8.373  68.300  1.00  0.00    -0.139 A  
HETATM   20  C   UNL     1     -10.564   9.136  67.009  1.00  0.00    -0.266 A  
HETATM   21  C   UNL     1      -9.706  10.490  68.805  1.00  0.00    -0.187 A  
HETATM   22  C   UNL     1      -9.582   8.172  67.284  1.00  0.00    -0.211 A  
ENDBRANCH  16  17
ENDBRANCH   8  16
BRANCH  10  23
HETATM   23  S   UNL     1     -11.250  14.203  67.199  1.00  0.00    -0.331 S  
HETATM   24  O   UNL     1     -10.077  13.535  66.686  1.00  0.00    -0.264 OA 
HETATM   25  H2  UNL     1     -13.381  13.374  66.351  1.00  0.00     0.000 HD 
HETATM   26  H1  UNL     1     -12.223  14.329  65.292  1.00  0.00     0.000 HD 
HETATM   27  N   UNL     1     -12.520  13.886  66.161  1.00  0.00    -0.458 N  
HETATM   28  O   UNL     1     -11.276  15.639  67.389  1.00  0.00    -0.306 OA 
ENDBRANCH  10  23
ENDBRANCH   5   7
ENDBRANCH   4   5
ENDBRANCH   3   4
ENDBRANCH   2   3
TORSDOF 7
ENDMDL
MODEL       32
REMARK 921   NORMALIZED FREE ENERGY PREDICTED BY IDOCK:   -5.71 KCAL/MOL
REMARK 922        TOTAL FREE ENERGY PREDICTED BY IDOCK:   -8.82 KCAL/MOL
REMARK 923 INTER-LIGAND FREE ENERGY PREDICTED BY IDOCK:   -7.80 KCAL/MOL
REMARK 924 INTRA-LIGAND FREE ENERGY PREDICTED BY IDOCK:   -1.01 KCAL/MOL
REMARK 927      BINDING AFFINITY PREDICTED BY RF-SCORE:    0.00 PKD
ROOT
HETATM    1  C   UNL     1     -13.037   8.388  71.465  1.00  0.00    -0.316 C  
HETATM    2  C   UNL     1     -12.087   9.537  71.750  1.00  0.00    -0.459 C  
ENDROOT
BRANCH   2   3
HETATM    3  C   UNL     1     -12.598  10.837  71.121  1.00  0.00    -0.532 C  
BRANCH   3   4
HETATM    4  C   UNL     1     -11.675  11.293  70.002  1.00  0.00    -0.346 C  
BRANCH   4   5
HETATM    5  N   UNL     1     -11.912  10.554  68.765  1.00  0.00    -0.734 NA 
HETATM    6  H   UNL     1     -12.547   9.755  68.761  1.00  0.00     0.000 HD 
BRANCH   5   7
HETATM    7  C   UNL     1     -11.271  10.941  67.592  1.00  0.00    -0.309 A  
HETATM    8  C   UNL     1     -10.109  10.312  67.094  1.00  0.00    -0.210 A  
HETATM    9  C   UNL     1     -12.081  13.448  64.874  1.00  0.00    -0.392 C  
HETATM   10  C   UNL     1      -9.594  10.731  65.845  1.00  0.00    -0.208 A  
HETATM   11  O   UNL     1     -11.329  14.231  64.081  1.00  0.00    -0.240 OA 
HETATM   12  O   UNL     1     -13.282  13.608  65.020  1.00  0.00    -0.729 OA 
HETATM   13  C   UNL     1     -10.203  11.756  65.092  1.00  0.00    -0.309 A  
HETATM   14  C   UNL     1     -11.328  12.392  65.598  1.00  0.00    -0.387 A  
HETATM   15  C   UNL     1     -11.842  11.979  66.825  1.00  0.00    -0.244 A  
BRANCH   8  16
HETATM   16  O   UNL     1      -9.341   9.451  67.851  1.00  0.00    -0.129 OA 
BRANCH  16  17
HETATM   17  C   UNL     1      -9.833   8.290  68.401  1.00  0.00    -0.172 A  
HETATM   18  C   UNL     1     -11.024   6.223  67.895  1.00  0.00    -0.421 A  
HETATM   19  C   UNL     1     -10.848   5.794  69.213  1.00  0.00    -0.374 A  
HETATM   20  C   UNL     1      -9.707   7.875  69.724  1.00  0.00    -0.176 A  
HETATM   21  C   UNL     1     -10.512   7.460  67.494  1.00  0.00    -0.338 A  
HETATM   22  C   UNL     1     -10.190   6.619  70.119  1.00  0.00    -0.215 A  
ENDBRANCH  16  17
ENDBRANCH   8  16
BRANCH  10  23
HETATM   23  S   UNL     1      -8.173   9.952  65.141  1.00  0.00    -0.153 S  
HETATM   24  O   UNL     1      -8.372   8.522  65.095  1.00  0.00    -0.153 OA 
HETATM   25  H2  UNL     1      -8.824  11.165  63.127  1.00  0.00     0.000 HD 
HETATM   26  H1  UNL     1      -7.347  10.073  63.165  1.00  0.00     0.000 HD 
HETATM   27  N   UNL     1      -8.167  10.523  63.571  1.00  0.00    -0.129 N  
HETATM   28  O   UNL     1      -6.991  10.529  65.749  1.00  0.00    -0.131 OA 
ENDBRANCH  10  23
ENDBRANCH   5   7
ENDBRANCH   4   5
ENDBRANCH   3   4
ENDBRANCH   2   3
TORSDOF 7
ENDMDL
MODEL       33
REMARK 921   NORMALIZED FREE ENERGY PREDICTED BY IDOCK:   -5.71 KCAL/MOL
REMARK 922        TOTAL FREE ENERGY PREDICTED BY IDOCK:   -8.81 KCAL/MOL
REMARK 923 INTER-LIGAND FREE ENERGY PREDICTED BY IDOCK:   -8.12 KCAL/MOL
REMARK 924 INTRA-LIGAND FREE ENERGY PREDICTED BY IDOCK:   -0.69 KCAL/MOL
REMARK 927      BINDING AFFINITY PREDICTED BY RF-SCORE:    0.00 PKD
ROOT
HETATM    1  C   UNL     1     -10.173  18.797  68.062  1.00  0.00    -0.438 C  
HETATM    2  C   UNL     1     -10.462  17.307  68.061  1.00  0.00    -0.375 C  
ENDROOT
BRANCH   2   3
HETATM    3  C   UNL     1     -10.746  16.805  69.480  1.00  0.00    -0.273 C  
BRANCH   3   4
HETATM    4  C   UNL     1     -11.788  15.698  69.462  1.00  0.00    -0.372 C  
BRANCH   4   5
HETATM    5  N   UNL     1     -11.453  14.651  68.501  1.00  0.00    -0.287 NA 
HETATM    6  H   UNL     1     -11.226  14.895  67.537  1.00  0.00     0.000 HD 
BRANCH   5   7
HETATM    7  C   UNL     1     -11.444  13.318  68.903  1.00  0.00    -0.298 A  
HETATM    8  C   UNL     1     -10.638  12.327  68.300  1.00  0.00    -0.227 A  
HETATM    9  C   UNL     1     -13.073  11.434  71.753  1.00  0.00    -0.418 C  
HETATM   10  C   UNL     1     -10.643  11.024  68.848  1.00  0.00    -0.207 A  
HETATM   11  O   UNL     1     -13.547  10.183  71.886  1.00  0.00    -0.337 OA 
HETATM   12  O   UNL     1     -13.328  12.330  72.541  1.00  0.00    -0.358 OA 
HETATM   13  C   UNL     1     -11.428  10.689  69.970  1.00  0.00    -0.404 A  
HETATM   14  C   UNL     1     -12.241  11.657  70.543  1.00  0.00    -0.451 A  
HETATM   15  C   UNL     1     -12.235  12.944  70.009  1.00  0.00    -0.292 A  
BRANCH   8  16
HETATM   16  O   UNL     1     -10.002  12.514  67.089  1.00  0.00    -0.212 OA 
BRANCH  16  17
HETATM   17  C   UNL     1     -10.648  12.424  65.878  1.00  0.00    -0.258 A  
HETATM   18  C   UNL     1     -10.473  11.535  63.614  1.00  0.00    -0.483 A  
HETATM   19  C   UNL     1     -11.765  11.985  63.332  1.00  0.00    -0.519 A  
HETATM   20  C   UNL     1     -11.916  12.912  65.571  1.00  0.00    -0.482 A  
HETATM   21  C   UNL     1      -9.924  11.749  64.881  1.00  0.00    -0.280 A  
HETATM   22  C   UNL     1     -12.480  12.668  64.310  1.00  0.00    -0.494 A  
ENDBRANCH  16  17
ENDBRANCH   8  16
BRANCH  10  23
HETATM   23  S   UNL     1      -9.620   9.751  68.173  1.00  0.00    -0.144 S  
HETATM   24  O   UNL     1      -8.283  10.256  67.966  1.00  0.00    -0.111 OA 
HETATM   25  H2  UNL     1     -10.006   8.658  70.320  1.00  0.00     0.000 HD 
HETATM   26  H1  UNL     1      -8.970   7.887  69.013  1.00  0.00     0.000 HD 
HETATM   27  N   UNL     1      -9.561   8.621  69.402  1.00  0.00    -0.165 N  
HETATM   28  O   UNL     1     -10.352   9.098  67.106  1.00  0.00    -0.241 OA 
ENDBRANCH  10  23
ENDBRANCH   5   7
ENDBRANCH   4   5
ENDBRANCH   3   4
ENDBRANCH   2   3
TORSDOF 7
ENDMDL
MODEL       34
REMARK 921   NORMALIZED FREE ENERGY PREDICTED BY IDOCK:   -5.68 KCAL/MOL
REMARK 922        TOTAL FREE ENERGY PREDICTED BY IDOCK:   -8.77 KCAL/MOL
REMARK 923 INTER-LIGAND FREE ENERGY PREDICTED BY IDOCK:   -7.43 KCAL/MOL
REMARK 924 INTRA-LIGAND FREE ENERGY PREDICTED BY IDOCK:   -1.35 KCAL/MOL
REMARK 927      BINDING AFFINITY PREDICTED BY RF-SCORE:    0.00 PKD
ROOT
HETATM    1  C   UNL     1      -6.077  18.002  68.893  1.00  0.00    -0.212 C  
HETATM    2  C   UNL     1      -6.024  16.568  69.388  1.00  0.00    -0.173 C  
ENDROOT
BRANCH   2   3
HETATM    3  C   UNL     1      -7.427  15.958  69.445  1.00  0.00    -0.213 C  
BRANCH   3   4
HETATM    4  C   UNL     1      -7.496  14.685  68.615  1.00  0.00    -0.125 C  
BRANCH   4   5
HETATM    5  N   UNL     1      -8.804  14.042  68.711  1.00  0.00    -0.356 NA 
HETATM    6  H   UNL     1      -9.299  14.021  69.603  1.00  0.00     0.000 HD 
BRANCH   5   7
HETATM    7  C   UNL     1      -9.374  13.459  67.583  1.00  0.00    -0.217 A  
HETATM    8  C   UNL     1     -10.407  14.062  66.832  1.00  0.00    -0.269 A  
HETATM    9  C   UNL     1      -8.606  10.342  65.579  1.00  0.00    -0.169 C  
HETATM   10  C   UNL     1     -10.850  13.420  65.652  1.00  0.00    -0.283 A  
HETATM   11  O   UNL     1      -9.366   9.471  64.891  1.00  0.00    -0.246 OA 
HETATM   12  O   UNL     1      -7.449  10.113  65.891  1.00  0.00    -0.112 OA 
HETATM   13  C   UNL     1     -10.294  12.201  65.212  1.00  0.00    -0.310 A  
HETATM   14  C   UNL     1      -9.299  11.597  65.967  1.00  0.00    -0.241 A  
HETATM   15  C   UNL     1      -8.856  12.229  67.128  1.00  0.00    -0.194 A  
BRANCH   8  16
HETATM   16  O   UNL     1     -11.140  15.136  67.294  1.00  0.00    -0.321 OA 
BRANCH  16  17
HETATM   17  C   UNL     1     -10.592  16.377  67.524  1.00  0.00    -0.309 A  
HETATM   18  C   UNL     1      -9.192  18.122  66.553  1.00  0.00    -0.290 A  
HETATM   19  C   UNL     1      -9.427  18.935  67.664  1.00  0.00    -0.340 A  
HETATM   20  C   UNL     1     -10.779  17.176  68.649  1.00  0.00    -0.306 A  
HETATM   21  C   UNL     1      -9.778  16.855  66.484  1.00  0.00    -0.295 A  
HETATM   22  C   UNL     1     -10.220  18.461  68.704  1.00  0.00    -0.370 A  
ENDBRANCH  16  17
ENDBRANCH   8  16
BRANCH  10  23
HETATM   23  S   UNL     1     -12.104  14.144  64.640  1.00  0.00    -0.456 S  
HETATM   24  O   UNL     1     -11.694  15.466  64.226  1.00  0.00    -0.362 OA 
HETATM   25  H2  UNL     1     -11.539  12.341  63.097  1.00  0.00     0.000 HD 
HETATM   26  H1  UNL     1     -12.839  13.579  62.705  1.00  0.00     0.000 HD 
HETATM   27  N   UNL     1     -12.115  13.161  63.290  1.00  0.00    -0.522 N  
HETATM   28  O   UNL     1     -13.387  13.917  65.274  1.00  0.00    -0.732 OA 
ENDBRANCH  10  23
ENDBRANCH   5   7
ENDBRANCH   4   5
ENDBRANCH   3   4
ENDBRANCH   2   3
TORSDOF 7
ENDMDL
MODEL       35
REMARK 921   NORMALIZED FREE ENERGY PREDICTED BY IDOCK:   -5.68 KCAL/MOL
REMARK 922        TOTAL FREE ENERGY PREDICTED BY IDOCK:   -8.77 KCAL/MOL
REMARK 923 INTER-LIGAND FREE ENERGY PREDICTED BY IDOCK:   -8.67 KCAL/MOL
REMARK 924 INTRA-LIGAND FREE ENERGY PREDICTED BY IDOCK:   -0.09 KCAL/MOL
REMARK 927      BINDING AFFINITY PREDICTED BY RF-SCORE:    0.00 PKD
ROOT
HETATM    1  C   UNL     1     -10.926  12.246  63.566  1.00  0.00    -0.521 C  
HETATM    2  C   UNL     1     -12.302  12.690  64.027  1.00  0.00    -0.528 C  
ENDROOT
BRANCH   2   3
HETATM    3  C   UNL     1     -12.219  14.008  64.802  1.00  0.00    -0.454 C  
BRANCH   3   4
HETATM    4  C   UNL     1     -10.770  14.412  65.026  1.00  0.00    -0.423 C  
BRANCH   4   5
HETATM    5  N   UNL     1     -10.319  14.092  66.378  1.00  0.00    -0.283 NA 
HETATM    6  H   UNL     1      -9.785  13.240  66.550  1.00  0.00     0.000 HD 
BRANCH   5   7
HETATM    7  C   UNL     1     -10.618  14.952  67.431  1.00  0.00    -0.263 A  
HETATM    8  C   UNL     1     -11.441  14.593  68.521  1.00  0.00    -0.302 A  
HETATM    9  C   UNL     1      -9.440  18.418  68.392  1.00  0.00    -0.332 C  
HETATM   10  C   UNL     1     -11.604  15.516  69.579  1.00  0.00    -0.350 A  
HETATM   11  O   UNL     1     -10.028  19.461  69.003  1.00  0.00    -0.437 OA 
HETATM   12  O   UNL     1      -8.390  18.513  67.778  1.00  0.00    -0.253 OA 
HETATM   13  C   UNL     1     -10.974  16.778  69.573  1.00  0.00    -0.158 A  
HETATM   14  C   UNL     1     -10.189  17.139  68.487  1.00  0.00    -0.346 A  
HETATM   15  C   UNL     1     -10.021  16.230  67.445  1.00  0.00    -0.249 A  
BRANCH   8  16
HETATM   16  O   UNL     1     -12.249  13.474  68.513  1.00  0.00    -0.320 OA 
BRANCH  16  17
HETATM   17  C   UNL     1     -11.763  12.194  68.655  1.00  0.00    -0.330 A  
HETATM   18  C   UNL     1     -10.895  10.271  67.433  1.00  0.00    -0.336 A  
HETATM   19  C   UNL     1     -10.641   9.613  68.639  1.00  0.00    -0.246 A  
HETATM   20  C   UNL     1     -11.552  11.510  69.850  1.00  0.00    -0.387 A  
HETATM   21  C   UNL     1     -11.446  11.555  67.446  1.00  0.00    -0.349 A  
HETATM   22  C   UNL     1     -10.968  10.235  69.839  1.00  0.00    -0.358 A  
ENDBRANCH  16  17
ENDBRANCH   8  16
BRANCH  10  23
HETATM   23  S   UNL     1     -12.580  15.111  70.996  1.00  0.00    -0.416 S  
HETATM   24  O   UNL     1     -12.182  13.822  71.511  1.00  0.00    -0.267 OA 
HETATM   25  H2  UNL     1     -11.456  17.031  71.999  1.00  0.00     0.000 HD 
HETATM   26  H1  UNL     1     -12.693  16.039  72.927  1.00  0.00     0.000 HD 
HETATM   27  N   UNL     1     -12.130  16.272  72.110  1.00  0.00    -0.496 N  
HETATM   28  O   UNL     1     -13.965  15.407  70.692  1.00  0.00    -0.269 OA 
ENDBRANCH  10  23
ENDBRANCH   5   7
ENDBRANCH   4   5
ENDBRANCH   3   4
ENDBRANCH   2   3
TORSDOF 7
ENDMDL
MODEL       36
REMARK 921   NORMALIZED FREE ENERGY PREDICTED BY IDOCK:   -5.68 KCAL/MOL
REMARK 922        TOTAL FREE ENERGY PREDICTED BY IDOCK:   -8.76 KCAL/MOL
REMARK 923 INTER-LIGAND FREE ENERGY PREDICTED BY IDOCK:   -7.46 KCAL/MOL
REMARK 924 INTRA-LIGAND FREE ENERGY PREDICTED BY IDOCK:   -1.31 KCAL/MOL
REMARK 927      BINDING AFFINITY PREDICTED BY RF-SCORE:    0.00 PKD
ROOT
HETATM    1  C   UNL     1      -6.297  12.519  67.385  1.00  0.00    -0.157 C  
HETATM    2  C   UNL     1      -6.488  13.103  68.773  1.00  0.00    -0.095 C  
ENDROOT
BRANCH   2   3
HETATM    3  C   UNL     1      -6.550  14.632  68.718  1.00  0.00    -0.090 C  
BRANCH   3   4
HETATM    4  C   UNL     1      -7.508  15.172  69.767  1.00  0.00    -0.118 C  
BRANCH   4   5
HETATM    5  N   UNL     1      -8.885  14.755  69.513  1.00  0.00    -0.424 NA 
HETATM    6  H   UNL     1      -9.390  14.207  70.210  1.00  0.00     0.000 HD 
BRANCH   5   7
HETATM    7  C   UNL     1      -9.506  15.106  68.318  1.00  0.00    -0.201 A  
HETATM    8  C   UNL     1     -10.044  14.165  67.413  1.00  0.00    -0.240 A  
HETATM    9  C   UNL     1     -10.484  18.411  66.753  1.00  0.00    -0.385 C  
HETATM   10  C   UNL     1     -10.733  14.640  66.273  1.00  0.00    -0.316 A  
HETATM   11  O   UNL     1     -10.558  18.849  65.484  1.00  0.00    -0.572 OA 
HETATM   12  O   UNL     1     -10.499  19.158  67.717  1.00  0.00    -0.392 OA 
HETATM   13  C   UNL     1     -10.893  16.017  66.016  1.00  0.00    -0.190 A  
HETATM   14  C   UNL     1     -10.338  16.940  66.893  1.00  0.00    -0.304 A  
HETATM   15  C   UNL     1      -9.664  16.476  68.020  1.00  0.00    -0.236 A  
BRANCH   8  16
HETATM   16  O   UNL     1      -9.761  12.816  67.479  1.00  0.00    -0.194 OA 
BRANCH  16  17
HETATM   17  C   UNL     1     -10.313  11.977  68.419  1.00  0.00    -0.214 A  
HETATM   18  C   UNL     1      -9.916   9.962  69.734  1.00  0.00    -0.275 A  
HETATM   19  C   UNL     1     -11.129  10.151  70.399  1.00  0.00    -0.393 A  
HETATM   20  C   UNL     1     -11.543  12.129  69.052  1.00  0.00    -0.374 A  
HETATM   21  C   UNL     1      -9.510  10.875  68.756  1.00  0.00    -0.196 A  
HETATM   22  C   UNL     1     -11.935  11.233  70.058  1.00  0.00    -0.447 A  
ENDBRANCH  16  17
ENDBRANCH   8  16
BRANCH  10  23
HETATM   23  S   UNL     1     -11.472  13.517  65.126  1.00  0.00    -0.312 S  
HETATM   24  O   UNL     1     -12.466  12.715  65.799  1.00  0.00    -0.607 OA 
HETATM   25  H2  UNL     1     -12.309  15.551  64.069  1.00  0.00     0.000 HD 
HETATM   26  H1  UNL     1     -12.690  13.883  63.398  1.00  0.00     0.000 HD 
HETATM   27  N   UNL     1     -12.263  14.531  64.060  1.00  0.00    -0.364 N  
HETATM   28  O   UNL     1     -10.416  12.908  64.342  1.00  0.00    -0.362 OA 
ENDBRANCH  10  23
ENDBRANCH   5   7
ENDBRANCH   4   5
ENDBRANCH   3   4
ENDBRANCH   2   3
TORSDOF 7
ENDMDL
MODEL       37
REMARK 921   NORMALIZED FREE ENERGY PREDICTED BY IDOCK:   -5.65 KCAL/MOL
REMARK 922        TOTAL FREE ENERGY PREDICTED BY IDOCK:   -8.72 KCAL/MOL
REMARK 923 INTER-LIGAND FREE ENERGY PREDICTED BY IDOCK:   -8.04 KCAL/MOL
REMARK 924 INTRA-LIGAND FREE ENERGY PREDICTED BY IDOCK:   -0.69 KCAL/MOL
REMARK 927      BINDING AFFINITY PREDICTED BY RF-SCORE:    0.00 PKD
ROOT
HETATM    1  C   UNL     1     -12.935  14.853  73.421  1.00  0.00    -0.597 C  
HETATM    2  C   UNL     1     -12.098  16.059  73.035  1.00  0.00    -0.628 C  
ENDROOT
BRANCH   2   3
HETATM    3  C   UNL     1     -11.781  16.046  71.537  1.00  0.00    -0.554 C  
BRANCH   3   4
HETATM    4  C   UNL     1     -12.935  15.451  70.746  1.00  0.00    -0.453 C  
BRANCH   4   5
HETATM    5  N   UNL     1     -12.507  14.979  69.431  1.00  0.00    -0.589 NA 
HETATM    6  H   UNL     1     -12.628  15.574  68.610  1.00  0.00     0.000 HD 
BRANCH   5   7
HETATM    7  C   UNL     1     -11.934  13.718  69.299  1.00  0.00    -0.352 A  
HETATM    8  C   UNL     1     -10.879  13.430  68.406  1.00  0.00    -0.264 A  
HETATM    9  C   UNL     1     -12.368  10.443  71.147  1.00  0.00    -0.400 C  
HETATM   10  C   UNL     1     -10.314  12.134  68.421  1.00  0.00    -0.229 A  
HETATM   11  O   UNL     1     -12.299   9.153  70.775  1.00  0.00    -0.199 OA 
HETATM   12  O   UNL     1     -12.862  10.805  72.202  1.00  0.00    -0.356 OA 
HETATM   13  C   UNL     1     -10.775  11.128  69.295  1.00  0.00    -0.241 A  
HETATM   14  C   UNL     1     -11.831  11.405  70.151  1.00  0.00    -0.440 A  
HETATM   15  C   UNL     1     -12.387  12.682  70.144  1.00  0.00    -0.222 A  
BRANCH   8  16
HETATM   16  O   UNL     1     -10.506  14.283  67.387  1.00  0.00    -0.261 OA 
BRANCH  16  17
HETATM   17  C   UNL     1      -9.982  15.536  67.609  1.00  0.00    -0.233 A  
HETATM   18  C   UNL     1     -10.093  17.868  66.906  1.00  0.00    -0.348 A  
HETATM   19  C   UNL     1      -9.182  18.217  67.906  1.00  0.00    -0.284 A  
HETATM   20  C   UNL     1      -9.038  15.886  68.570  1.00  0.00    -0.200 A  
HETATM   21  C   UNL     1     -10.493  16.537  66.766  1.00  0.00    -0.269 A  
HETATM   22  C   UNL     1      -8.662  17.228  68.734  1.00  0.00    -0.232 A  
ENDBRANCH  16  17
ENDBRANCH   8  16
BRANCH  10  23
HETATM   23  S   UNL     1      -8.958  11.722  67.364  1.00  0.00    -0.179 S  
HETATM   24  O   UNL     1      -8.607  10.332  67.539  1.00  0.00    -0.119 OA 
HETATM   25  H2  UNL     1     -10.549  12.183  65.573  1.00  0.00     0.000 HD 
HETATM   26  H1  UNL     1      -8.821  11.665  65.224  1.00  0.00     0.000 HD 
HETATM   27  N   UNL     1      -9.603  11.903  65.834  1.00  0.00    -0.234 N  
HETATM   28  O   UNL     1      -7.963  12.770  67.473  1.00  0.00    -0.154 OA 
ENDBRANCH  10  23
ENDBRANCH   5   7
ENDBRANCH   4   5
ENDBRANCH   3   4
ENDBRANCH   2   3
TORSDOF 7
ENDMDL
MODEL       38
REMARK 921   NORMALIZED FREE ENERGY PREDICTED BY IDOCK:   -5.64 KCAL/MOL
REMARK 922        TOTAL FREE ENERGY PREDICTED BY IDOCK:   -8.71 KCAL/MOL
REMARK 923 INTER-LIGAND FREE ENERGY PREDICTED BY IDOCK:   -7.78 KCAL/MOL
REMARK 924 INTRA-LIGAND FREE ENERGY PREDICTED BY IDOCK:   -0.94 KCAL/MOL
REMARK 927      BINDING AFFINITY PREDICTED BY RF-SCORE:    0.00 PKD
ROOT
HETATM    1  C   UNL     1      -7.952  10.367  63.855  1.00  0.00    -0.075 C  
HETATM    2  C   UNL     1      -9.465  10.289  63.774  1.00  0.00    -0.352 C  
ENDROOT
BRANCH   2   3
HETATM    3  C   UNL     1     -10.054  11.613  63.275  1.00  0.00    -0.454 C  
BRANCH   3   4
HETATM    4  C   UNL     1     -11.471  11.801  63.791  1.00  0.00    -0.420 C  
BRANCH   4   5
HETATM    5  N   UNL     1     -11.494  12.122  65.216  1.00  0.00    -0.344 NA 
HETATM    6  H   UNL     1     -12.069  11.572  65.855  1.00  0.00     0.000 HD 
BRANCH   5   7
HETATM    7  C   UNL     1     -10.728  13.178  65.701  1.00  0.00    -0.280 A  
HETATM    8  C   UNL     1      -9.580  13.004  66.506  1.00  0.00    -0.260 A  
HETATM    9  C   UNL     1     -10.790  16.922  65.150  1.00  0.00    -0.094 C  
HETATM   10  C   UNL     1      -8.828  14.145  66.868  1.00  0.00    -0.203 A  
HETATM   11  O   UNL     1     -10.500  17.979  65.930  1.00  0.00    -0.506 OA 
HETATM   12  O   UNL     1     -11.407  17.018  64.102  1.00  0.00    -1.164 OA 
HETATM   13  C   UNL     1      -9.192  15.443  66.452  1.00  0.00    -0.339 A  
HETATM   14  C   UNL     1     -10.336  15.613  65.686  1.00  0.00    -0.408 A  
HETATM   15  C   UNL     1     -11.078  14.491  65.322  1.00  0.00    -0.355 A  
BRANCH   8  16
HETATM   16  O   UNL     1      -9.270  11.807  67.120  1.00  0.00    -0.172 OA 
BRANCH  16  17
HETATM   17  C   UNL     1      -9.965  11.314  68.200  1.00  0.00    -0.181 A  
HETATM   18  C   UNL     1      -9.887   9.686  70.014  1.00  0.00    -0.286 A  
HETATM   19  C   UNL     1     -11.094  10.179  70.514  1.00  0.00    -0.400 A  
HETATM   20  C   UNL     1     -11.193  11.763  68.678  1.00  0.00    -0.312 A  
HETATM   21  C   UNL     1      -9.326  10.257  68.869  1.00  0.00    -0.180 A  
HETATM   22  C   UNL     1     -11.740  11.214  69.847  1.00  0.00    -0.433 A  
ENDBRANCH  16  17
ENDBRANCH   8  16
BRANCH  10  23
HETATM   23  S   UNL     1      -7.354  13.993  67.831  1.00  0.00    -0.176 S  
HETATM   24  O   UNL     1      -6.397  13.167  67.134  1.00  0.00    -0.257 OA 
HETATM   25  H2  UNL     1      -7.154  16.392  67.434  1.00  0.00     0.000 HD 
HETATM   26  H1  UNL     1      -5.910  15.467  68.421  1.00  0.00     0.000 HD 
HETATM   27  N   UNL     1      -6.761  15.555  67.865  1.00  0.00    -0.140 N  
HETATM   28  O   UNL     1      -7.734  13.713  69.201  1.00  0.00     0.016 OA 
ENDBRANCH  10  23
ENDBRANCH   5   7
ENDBRANCH   4   5
ENDBRANCH   3   4
ENDBRANCH   2   3
TORSDOF 7
ENDMDL
MODEL       39
REMARK 921   NORMALIZED FREE ENERGY PREDICTED BY IDOCK:   -5.58 KCAL/MOL
REMARK 922        TOTAL FREE ENERGY PREDICTED BY IDOCK:   -8.63 KCAL/MOL
REMARK 923 INTER-LIGAND FREE ENERGY PREDICTED BY IDOCK:   -8.64 KCAL/MOL
REMARK 924 INTRA-LIGAND FREE ENERGY PREDICTED BY IDOCK:    0.02 KCAL/MOL
REMARK 927      BINDING AFFINITY PREDICTED BY RF-SCORE:    0.00 PKD
ROOT
HETATM    1  C   UNL     1     -14.324  13.874  72.084  1.00  0.00    -0.530 C  
HETATM    2  C   UNL     1     -13.655  15.236  72.104  1.00  0.00    -0.576 C  
ENDROOT
BRANCH   2   3
HETATM    3  C   UNL     1     -12.707  15.397  70.912  1.00  0.00    -0.520 C  
BRANCH   3   4
HETATM    4  C   UNL     1     -11.454  14.557  71.103  1.00  0.00    -0.043 C  
BRANCH   4   5
HETATM    5  N   UNL     1     -10.416  14.900  70.134  1.00  0.00    -0.485 NA 
HETATM    6  H   UNL     1      -9.456  15.054  70.446  1.00  0.00     0.000 HD 
BRANCH   5   7
HETATM    7  C   UNL     1     -10.737  15.015  68.785  1.00  0.00    -0.241 A  
HETATM    8  C   UNL     1     -10.465  16.167  68.014  1.00  0.00    -0.281 A  
HETATM    9  C   UNL     1     -12.137  12.615  66.215  1.00  0.00    -0.289 C  
HETATM   10  C   UNL     1     -10.754  16.140  66.630  1.00  0.00    -0.226 A  
HETATM   11  O   UNL     1     -12.940  12.764  65.147  1.00  0.00    -0.768 OA 
HETATM   12  O   UNL     1     -11.891  11.529  66.715  1.00  0.00    -0.511 OA 
HETATM   13  C   UNL     1     -11.307  15.003  66.005  1.00  0.00    -0.270 A  
HETATM   14  C   UNL     1     -11.600  13.883  66.770  1.00  0.00    -0.398 A  
HETATM   15  C   UNL     1     -11.312  13.904  68.133  1.00  0.00    -0.324 A  
BRANCH   8  16
HETATM   16  O   UNL     1     -10.118  17.379  68.575  1.00  0.00    -0.309 OA 
BRANCH  16  17
HETATM   17  C   UNL     1      -8.814  17.790  68.734  1.00  0.00    -0.202 A  
HETATM   18  C   UNL     1      -7.400  19.728  69.167  1.00  0.00    -0.290 A  
HETATM   19  C   UNL     1      -6.273  18.903  69.203  1.00  0.00    -0.284 A  
HETATM   20  C   UNL     1      -7.679  16.984  68.722  1.00  0.00    -0.249 A  
HETATM   21  C   UNL     1      -8.661  19.170  68.940  1.00  0.00    -0.314 A  
HETATM   22  C   UNL     1      -6.418  17.537  68.984  1.00  0.00    -0.227 A  
ENDBRANCH  16  17
ENDBRANCH   8  16
BRANCH  10  23
HETATM   23  S   UNL     1     -10.392  17.528  65.599  1.00  0.00     0.003 S  
HETATM   24  O   UNL     1     -11.132  17.426  64.363  1.00  0.00    -0.873 OA 
HETATM   25  H2  UNL     1     -11.483  18.802  67.370  1.00  0.00     0.000 HD 
HETATM   26  H1  UNL     1     -10.802  19.616  65.871  1.00  0.00     0.000 HD 
HETATM   27  N   UNL     1     -11.011  18.815  66.466  1.00  0.00    -0.070 N  
HETATM   28  O   UNL     1      -8.958  17.735  65.603  1.00  0.00    -0.365 OA 
ENDBRANCH  10  23
ENDBRANCH   5   7
ENDBRANCH   4   5
ENDBRANCH   3   4
ENDBRANCH   2   3
TORSDOF 7
ENDMDL
MODEL       40
REMARK 921   NORMALIZED FREE ENERGY PREDICTED BY IDOCK:   -5.58 KCAL/MOL
REMARK 922        TOTAL FREE ENERGY PREDICTED BY IDOCK:   -8.62 KCAL/MOL
REMARK 923 INTER-LIGAND FREE ENERGY PREDICTED BY IDOCK:   -7.57 KCAL/MOL
REMARK 924 INTRA-LIGAND FREE ENERGY PREDICTED BY IDOCK:   -1.06 KCAL/MOL
REMARK 927      BINDING AFFINITY PREDICTED BY RF-SCORE:    0.00 PKD
ROOT
HETATM    1  C   UNL     1      -9.245   9.386  70.447  1.00  0.00    -0.305 C  
HETATM    2  C   UNL     1     -10.545   9.365  71.231  1.00  0.00    -0.400 C  
ENDROOT
BRANCH   2   3
HETATM    3  C   UNL     1     -11.684   9.985  70.417  1.00  0.00    -0.365 C  
BRANCH   3   4
HETATM    4  C   UNL     1     -11.184  10.454  69.060  1.00  0.00    -0.234 C  
BRANCH   4   5
HETATM    5  N   UNL     1     -12.062  11.466  68.476  1.00  0.00    -0.567 NA 
HETATM    6  H   UNL     1     -12.902  11.184  67.971  1.00  0.00     0.000 HD 
BRANCH   5   7
HETATM    7  C   UNL     1     -11.749  12.816  68.611  1.00  0.00    -0.324 A  
HETATM    8  C   UNL     1     -11.143  13.581  67.591  1.00  0.00    -0.269 A  
HETATM    9  C   UNL     1     -12.411  15.397  71.298  1.00  0.00    -0.397 C  
HETATM   10  C   UNL     1     -10.953  14.966  67.806  1.00  0.00    -0.293 A  
HETATM   11  O   UNL     1     -11.729  16.466  71.745  1.00  0.00    -0.478 OA 
HETATM   12  O   UNL     1     -13.344  14.901  71.909  1.00  0.00    -0.316 OA 
HETATM   13  C   UNL     1     -11.346  15.597  69.004  1.00  0.00    -0.332 A  
HETATM   14  C   UNL     1     -11.915  14.836  70.016  1.00  0.00    -0.369 A  
HETATM   15  C   UNL     1     -12.109  13.473  69.806  1.00  0.00    -0.381 A  
BRANCH   8  16
HETATM   16  O   UNL     1     -10.549  13.014  66.481  1.00  0.00    -0.277 OA 
BRANCH  16  17
HETATM   17  C   UNL     1      -9.384  12.284  66.542  1.00  0.00    -0.230 A  
HETATM   18  C   UNL     1      -8.213  10.365  65.598  1.00  0.00    -0.158 A  
HETATM   19  C   UNL     1      -7.086  10.670  66.365  1.00  0.00    -0.134 A  
HETATM   20  C   UNL     1      -8.274  12.550  67.339  1.00  0.00    -0.183 A  
HETATM   21  C   UNL     1      -9.350  11.173  65.684  1.00  0.00    -0.243 A  
HETATM   22  C   UNL     1      -7.120  11.760  67.229  1.00  0.00    -0.140 A  
ENDBRANCH  16  17
ENDBRANCH   8  16
BRANCH  10  23
HETATM   23  S   UNL     1     -10.246  15.991  66.552  1.00  0.00    -0.304 S  
HETATM   24  O   UNL     1     -11.041  15.911  65.349  1.00  0.00    -0.285 OA 
HETATM   25  H2  UNL     1     -10.824  17.809  68.072  1.00  0.00     0.000 HD 
HETATM   26  H1  UNL     1     -10.006  18.121  66.457  1.00  0.00     0.000 HD 
HETATM   27  N   UNL     1     -10.413  17.529  67.181  1.00  0.00    -0.332 N  
HETATM   28  O   UNL     1      -8.816  15.756  66.526  1.00  0.00    -0.254 OA 
ENDBRANCH  10  23
ENDBRANCH   5   7
ENDBRANCH   4   5
ENDBRANCH   3   4
ENDBRANCH   2   3
TORSDOF 7
ENDMDL
MODEL       41
REMARK 921   NORMALIZED FREE ENERGY PREDICTED BY IDOCK:   -5.56 KCAL/MOL
REMARK 922        TOTAL FREE ENERGY PREDICTED BY IDOCK:   -8.60 KCAL/MOL
REMARK 923 INTER-LIGAND FREE ENERGY PREDICTED BY IDOCK:   -7.87 KCAL/MOL
REMARK 924 INTRA-LIGAND FREE ENERGY PREDICTED BY IDOCK:   -0.73 KCAL/MOL
REMARK 927      BINDING AFFINITY PREDICTED BY RF-SCORE:    0.00 PKD
ROOT
HETATM    1  C   UNL     1     -12.055   6.919  70.978  1.00  0.00    -0.429 C  
HETATM    2  C   UNL     1     -11.328   6.317  69.789  1.00  0.00    -0.506 C  
ENDROOT
BRANCH   2   3
HETATM    3  C   UNL     1     -10.083   7.137  69.438  1.00  0.00    -0.178 C  
BRANCH   3   4
HETATM    4  C   UNL     1     -10.411   8.200  68.403  1.00  0.00    -0.199 C  
BRANCH   4   5
HETATM    5  N   UNL     1      -9.713   9.455  68.671  1.00  0.00    -0.150 NA 
HETATM    6  H   UNL     1      -8.695   9.495  68.623  1.00  0.00     0.000 HD 
BRANCH   5   7
HETATM    7  C   UNL     1     -10.441  10.598  68.993  1.00  0.00    -0.214 A  
HETATM    8  C   UNL     1     -10.408  11.785  68.229  1.00  0.00    -0.206 A  
HETATM    9  C   UNL     1     -13.040  11.386  71.630  1.00  0.00    -0.393 C  
HETATM   10  C   UNL     1     -11.257  12.853  68.600  1.00  0.00    -0.281 A  
HETATM   11  O   UNL     1     -13.350  12.495  72.323  1.00  0.00    -0.525 OA 
HETATM   12  O   UNL     1     -13.439  10.275  71.939  1.00  0.00    -0.377 OA 
HETATM   13  C   UNL     1     -12.126  12.766  69.707  1.00  0.00    -0.305 A  
HETATM   14  C   UNL     1     -12.135  11.610  70.474  1.00  0.00    -0.458 A  
HETATM   15  C   UNL     1     -11.304  10.552  70.108  1.00  0.00    -0.400 A  
BRANCH   8  16
HETATM   16  O   UNL     1      -9.452  12.028  67.264  1.00  0.00    -0.177 OA 
BRANCH  16  17
HETATM   17  C   UNL     1      -9.529  11.525  65.985  1.00  0.00    -0.229 A  
HETATM   18  C   UNL     1      -8.459  10.019  64.393  1.00  0.00    -0.178 A  
HETATM   19  C   UNL     1      -9.486  10.253  63.475  1.00  0.00    -0.345 A  
HETATM   20  C   UNL     1     -10.521  11.790  65.044  1.00  0.00    -0.332 A  
HETATM   21  C   UNL     1      -8.488  10.648  65.641  1.00  0.00    -0.180 A  
HETATM   22  C   UNL     1     -10.511  11.134  63.804  1.00  0.00    -0.444 A  
ENDBRANCH  16  17
ENDBRANCH   8  16
BRANCH  10  23
HETATM   23  S   UNL     1     -11.302  14.347  67.657  1.00  0.00    -0.346 S  
HETATM   24  O   UNL     1     -12.272  14.225  66.594  1.00  0.00    -0.449 OA 
HETATM   25  H2  UNL     1     -12.135  15.327  69.729  1.00  0.00     0.000 HD 
HETATM   26  H1  UNL     1     -11.901  16.331  68.209  1.00  0.00     0.000 HD 
HETATM   27  N   UNL     1     -11.875  15.469  68.753  1.00  0.00    -0.348 N  
HETATM   28  O   UNL     1      -9.938  14.755  67.388  1.00  0.00    -0.223 OA 
ENDBRANCH  10  23
ENDBRANCH   5   7
ENDBRANCH   4   5
ENDBRANCH   3   4
ENDBRANCH   2   3
TORSDOF 7
ENDMDL
MODEL       42
REMARK 921   NORMALIZED FREE ENERGY PREDICTED BY IDOCK:   -5.56 KCAL/MOL
REMARK 922        TOTAL FREE ENERGY PREDICTED BY IDOCK:   -8.60 KCAL/MOL
REMARK 923 INTER-LIGAND FREE ENERGY PREDICTED BY IDOCK:   -6.92 KCAL/MOL
REMARK 924 INTRA-LIGAND FREE ENERGY PREDICTED BY IDOCK:   -1.68 KCAL/MOL
REMARK 927      BINDING AFFINITY PREDICTED BY RF-SCORE:    0.00 PKD
ROOT
HETATM    1  C   UNL     1      -6.404  20.850  67.697  1.00  0.00    -0.385 C  
HETATM    2  C   UNL     1      -6.545  19.360  67.947  1.00  0.00    -0.258 C  
ENDROOT
BRANCH   2   3
HETATM    3  C   UNL     1      -6.601  18.587  66.626  1.00  0.00    -0.212 C  
BRANCH   3   4
HETATM    4  C   UNL     1      -6.178  17.141  66.829  1.00  0.00    -0.209 C  
BRANCH   4   5
HETATM    5  N   UNL     1      -6.732  16.579  68.058  1.00  0.00    -0.132 NA 
HETATM    6  H   UNL     1      -6.553  17.034  68.954  1.00  0.00     0.000 HD 
BRANCH   5   7
HETATM    7  C   UNL     1      -7.504  15.422  68.005  1.00  0.00    -0.129 A  
HETATM    8  C   UNL     1      -8.903  15.409  68.199  1.00  0.00    -0.170 A  
HETATM    9  C   UNL     1      -6.759  11.819  67.117  1.00  0.00    -0.145 C  
HETATM   10  C   UNL     1      -9.598  14.188  68.034  1.00  0.00    -0.218 A  
HETATM   11  O   UNL     1      -7.244  10.640  67.543  1.00  0.00    -0.087 OA 
HETATM   12  O   UNL     1      -5.728  11.920  66.472  1.00  0.00    -0.265 OA 
HETATM   13  C   UNL     1      -8.935  12.992  67.688  1.00  0.00    -0.192 A  
HETATM   14  C   UNL     1      -7.557  13.003  67.527  1.00  0.00    -0.166 A  
HETATM   15  C   UNL     1      -6.869  14.204  67.683  1.00  0.00    -0.196 A  
BRANCH   8  16
HETATM   16  O   UNL     1      -9.596  16.477  68.732  1.00  0.00    -0.230 OA 
BRANCH  16  17
HETATM   17  C   UNL     1      -9.917  17.602  68.008  1.00  0.00    -0.326 A  
HETATM   18  C   UNL     1     -10.260  20.011  68.163  1.00  0.00    -0.535 A  
HETATM   19  C   UNL     1     -10.442  20.079  66.780  1.00  0.00    -0.520 A  
HETATM   20  C   UNL     1     -10.149  17.673  66.637  1.00  0.00    -0.335 A  
HETATM   21  C   UNL     1      -9.992  18.780  68.768  1.00  0.00    -0.442 A  
HETATM   22  C   UNL     1     -10.383  18.913  66.024  1.00  0.00    -0.485 A  
ENDBRANCH  16  17
ENDBRANCH   8  16
BRANCH  10  23
HETATM   23  S   UNL     1     -11.354  14.112  68.212  1.00  0.00    -0.310 S  
HETATM   24  O   UNL     1     -11.988  14.783  67.102  1.00  0.00    -0.351 OA 
HETATM   25  H2  UNL     1     -11.021  11.711  67.932  1.00  0.00     0.000 HD 
HETATM   26  H1  UNL     1     -12.691  12.434  68.183  1.00  0.00     0.000 HD 
HETATM   27  N   UNL     1     -11.677  12.478  68.080  1.00  0.00    -0.346 N  
HETATM   28  O   UNL     1     -11.686  14.444  69.583  1.00  0.00    -0.272 OA 
ENDBRANCH  10  23
ENDBRANCH   5   7
ENDBRANCH   4   5
ENDBRANCH   3   4
ENDBRANCH   2   3
TORSDOF 7
ENDMDL
MODEL       43
REMARK 921   NORMALIZED FREE ENERGY PREDICTED BY IDOCK:   -5.54 KCAL/MOL
REMARK 922        TOTAL FREE ENERGY PREDICTED BY IDOCK:   -8.58 KCAL/MOL
REMARK 923 INTER-LIGAND FREE ENERGY PREDICTED BY IDOCK:   -7.62 KCAL/MOL
REMARK 924 INTRA-LIGAND FREE ENERGY PREDICTED BY IDOCK:   -0.95 KCAL/MOL
REMARK 927      BINDING AFFINITY PREDICTED BY RF-SCORE:    0.00 PKD
ROOT
HETATM    1  C   UNL     1      -9.571   7.790  71.821  1.00  0.00    -0.204 C  
HETATM    2  C   UNL     1     -10.520   8.963  71.985  1.00  0.00    -0.383 C  
ENDROOT
BRANCH   2   3
HETATM    3  C   UNL     1     -11.510   9.032  70.818  1.00  0.00    -0.331 C  
BRANCH   3   4
HETATM    4  C   UNL     1     -11.789  10.475  70.432  1.00  0.00    -0.340 C  
BRANCH   4   5
HETATM    5  N   UNL     1     -10.639  11.096  69.779  1.00  0.00    -0.455 NA 
HETATM    6  H   UNL     1      -9.888  11.498  70.340  1.00  0.00     0.000 HD 
BRANCH   5   7
HETATM    7  C   UNL     1     -10.571  11.138  68.389  1.00  0.00    -0.193 A  
HETATM    8  C   UNL     1     -11.191  12.137  67.607  1.00  0.00    -0.286 A  
HETATM    9  C   UNL     1      -8.686   9.117  65.802  1.00  0.00    -0.165 C  
HETATM   10  C   UNL     1     -10.980  12.131  66.209  1.00  0.00    -0.295 A  
HETATM   11  O   UNL     1      -8.961   8.737  64.542  1.00  0.00    -0.066 OA 
HETATM   12  O   UNL     1      -7.788   8.624  66.464  1.00  0.00    -0.097 OA 
HETATM   13  C   UNL     1     -10.176  11.159  65.579  1.00  0.00    -0.319 A  
HETATM   14  C   UNL     1      -9.590  10.162  66.346  1.00  0.00    -0.242 A  
HETATM   15  C   UNL     1      -9.791  10.167  67.725  1.00  0.00    -0.190 A  
BRANCH   8  16
HETATM   16  O   UNL     1     -12.148  12.994  68.110  1.00  0.00    -0.307 OA 
BRANCH  16  17
HETATM   17  C   UNL     1     -11.858  14.013  68.989  1.00  0.00    -0.354 A  
HETATM   18  C   UNL     1     -12.511  15.033  71.105  1.00  0.00    -0.400 A  
HETATM   19  C   UNL     1     -11.438  15.923  71.012  1.00  0.00    -0.461 A  
HETATM   20  C   UNL     1     -10.822  14.937  68.881  1.00  0.00    -0.253 A  
HETATM   21  C   UNL     1     -12.712  14.082  70.101  1.00  0.00    -0.207 A  
HETATM   22  C   UNL     1     -10.599  15.870  69.904  1.00  0.00    -0.327 A  
ENDBRANCH  16  17
ENDBRANCH   8  16
BRANCH  10  23
HETATM   23  S   UNL     1     -11.687  13.381  65.179  1.00  0.00    -0.339 S  
HETATM   24  O   UNL     1     -11.127  14.668  65.518  1.00  0.00    -0.320 OA 
HETATM   25  H2  UNL     1     -10.548  12.183  63.384  1.00  0.00     0.000 HD 
HETATM   26  H1  UNL     1     -11.551  13.688  63.060  1.00  0.00     0.000 HD 
HETATM   27  N   UNL     1     -11.143  12.967  63.654  1.00  0.00    -0.388 N  
HETATM   28  O   UNL     1     -13.120  13.172  65.130  1.00  0.00    -0.703 OA 
ENDBRANCH  10  23
ENDBRANCH   5   7
ENDBRANCH   4   5
ENDBRANCH   3   4
ENDBRANCH   2   3
TORSDOF 7
ENDMDL
MODEL       44
REMARK 921   NORMALIZED FREE ENERGY PREDICTED BY IDOCK:   -5.53 KCAL/MOL
REMARK 922        TOTAL FREE ENERGY PREDICTED BY IDOCK:   -8.55 KCAL/MOL
REMARK 923 INTER-LIGAND FREE ENERGY PREDICTED BY IDOCK:   -8.30 KCAL/MOL
REMARK 924 INTRA-LIGAND FREE ENERGY PREDICTED BY IDOCK:   -0.26 KCAL/MOL
REMARK 927      BINDING AFFINITY PREDICTED BY RF-SCORE:    0.00 PKD
ROOT
HETATM    1  C   UNL     1     -10.380  11.681  63.543  1.00  0.00    -0.488 C  
HETATM    2  C   UNL     1     -11.687  12.449  63.617  1.00  0.00    -0.596 C  
ENDROOT
BRANCH   2   3
HETATM    3  C   UNL     1     -12.175  12.559  65.065  1.00  0.00    -0.519 C  
BRANCH   3   4
HETATM    4  C   UNL     1     -11.088  12.124  66.035  1.00  0.00    -0.313 C  
BRANCH   4   5
HETATM    5  N   UNL     1     -11.570  12.090  67.414  1.00  0.00    -0.461 NA 
HETATM    6  H   UNL     1     -11.823  11.201  67.845  1.00  0.00     0.000 HD 
BRANCH   5   7
HETATM    7  C   UNL     1     -11.682  13.273  68.138  1.00  0.00    -0.362 A  
HETATM    8  C   UNL     1     -12.264  13.349  69.423  1.00  0.00    -0.195 A  
HETATM    9  C   UNL     1     -10.443  16.806  67.584  1.00  0.00    -0.328 C  
HETATM   10  C   UNL     1     -12.243  14.588  70.104  1.00  0.00    -0.342 A  
HETATM   11  O   UNL     1     -10.932  18.020  67.896  1.00  0.00    -0.297 OA 
HETATM   12  O   UNL     1      -9.538  16.640  66.783  1.00  0.00    -0.238 OA 
HETATM   13  C   UNL     1     -11.666  15.742  69.537  1.00  0.00    -0.369 A  
HETATM   14  C   UNL     1     -11.121  15.672  68.262  1.00  0.00    -0.336 A  
HETATM   15  C   UNL     1     -11.134  14.452  67.590  1.00  0.00    -0.311 A  
BRANCH   8  16
HETATM   16  O   UNL     1     -13.023  12.330  69.962  1.00  0.00     0.393 OA 
BRANCH  16  17
HETATM   17  C   UNL     1     -12.475  11.201  70.526  1.00  0.00    -0.327 A  
HETATM   18  C   UNL     1     -12.901   9.374  72.084  1.00  0.00    -0.480 A  
HETATM   19  C   UNL     1     -11.668   8.803  71.759  1.00  0.00    -0.416 A  
HETATM   20  C   UNL     1     -11.228  10.651  70.246  1.00  0.00    -0.365 A  
HETATM   21  C   UNL     1     -13.301  10.561  71.465  1.00  0.00    -0.387 A  
HETATM   22  C   UNL     1     -10.840   9.441  70.841  1.00  0.00    -0.392 A  
ENDBRANCH  16  17
ENDBRANCH   8  16
BRANCH  10  23
HETATM   23  S   UNL     1     -12.909  14.740  71.734  1.00  0.00    -0.349 S  
HETATM   24  O   UNL     1     -12.294  13.767  72.605  1.00  0.00     0.084 OA 
HETATM   25  H2  UNL     1     -11.839  16.931  71.689  1.00  0.00     0.000 HD 
HETATM   26  H1  UNL     1     -12.783  16.344  73.152  1.00  0.00     0.000 HD 
HETATM   27  N   UNL     1     -12.399  16.257  72.211  1.00  0.00    -0.435 N  
HETATM   28  O   UNL     1     -14.350  14.850  71.627  1.00  0.00    -0.469 OA 
ENDBRANCH  10  23
ENDBRANCH   5   7
ENDBRANCH   4   5
ENDBRANCH   3   4
ENDBRANCH   2   3
TORSDOF 7
ENDMDL
MODEL       45
REMARK 921   NORMALIZED FREE ENERGY PREDICTED BY IDOCK:   -5.52 KCAL/MOL
REMARK 922        TOTAL FREE ENERGY PREDICTED BY IDOCK:   -8.55 KCAL/MOL
REMARK 923 INTER-LIGAND FREE ENERGY PREDICTED BY IDOCK:   -7.12 KCAL/MOL
REMARK 924 INTRA-LIGAND FREE ENERGY PREDICTED BY IDOCK:   -1.43 KCAL/MOL
REMARK 927      BINDING AFFINITY PREDICTED BY RF-SCORE:    0.00 PKD
ROOT
HETATM    1  C   UNL     1     -10.504  16.558  65.550  1.00  0.00    -0.320 C  
HETATM    2  C   UNL     1     -10.634  15.116  65.096  1.00  0.00    -0.447 C  
ENDROOT
BRANCH   2   3
HETATM    3  C   UNL     1     -12.041  14.836  64.561  1.00  0.00    -0.460 C  
BRANCH   3   4
HETATM    4  C   UNL     1     -12.212  13.360  64.238  1.00  0.00    -0.392 C  
BRANCH   4   5
HETATM    5  N   UNL     1     -12.291  12.544  65.447  1.00  0.00    -0.635 NA 
HETATM    6  H   UNL     1     -13.093  12.631  66.071  1.00  0.00     0.000 HD 
BRANCH   5   7
HETATM    7  C   UNL     1     -11.269  11.647  65.746  1.00  0.00    -0.230 A  
HETATM    8  C   UNL     1     -10.994  11.186  67.053  1.00  0.00    -0.289 A  
HETATM    9  C   UNL     1      -8.840   9.652  63.638  1.00  0.00    -0.232 C  
HETATM   10  C   UNL     1      -9.989  10.207  67.227  1.00  0.00    -0.195 A  
HETATM   11  O   UNL     1      -7.572   9.244  63.821  1.00  0.00    -0.106 OA 
HETATM   12  O   UNL     1      -9.392   9.641  62.550  1.00  0.00    -0.265 OA 
HETATM   13  C   UNL     1      -9.258   9.685  66.141  1.00  0.00    -0.222 A  
HETATM   14  C   UNL     1      -9.511  10.161  64.862  1.00  0.00    -0.349 A  
HETATM   15  C   UNL     1     -10.504  11.122  64.684  1.00  0.00    -0.400 A  
BRANCH   8  16
HETATM   16  O   UNL     1     -11.514  11.784  68.183  1.00  0.00    -0.267 OA 
BRANCH  16  17
HETATM   17  C   UNL     1     -11.235  13.082  68.543  1.00  0.00    -0.274 A  
HETATM   18  C   UNL     1      -9.457  14.745  68.692  1.00  0.00    -0.213 A  
HETATM   19  C   UNL     1     -10.385  15.708  69.097  1.00  0.00    -0.241 A  
HETATM   20  C   UNL     1     -12.143  14.036  68.996  1.00  0.00    -0.358 A  
HETATM   21  C   UNL     1      -9.884  13.444  68.411  1.00  0.00    -0.216 A  
HETATM   22  C   UNL     1     -11.721  15.350  69.244  1.00  0.00    -0.367 A  
ENDBRANCH  16  17
ENDBRANCH   8  16
BRANCH  10  23
HETATM   23  S   UNL     1      -9.628   9.551  68.828  1.00  0.00    -0.161 S  
HETATM   24  O   UNL     1     -10.843   9.071  69.445  1.00  0.00    -0.217 OA 
HETATM   25  H2  UNL     1      -8.359   7.885  67.578  1.00  0.00     0.000 HD 
HETATM   26  H1  UNL     1      -8.457   7.851  69.412  1.00  0.00     0.000 HD 
HETATM   27  N   UNL     1      -8.665   8.230  68.488  1.00  0.00    -0.133 N  
HETATM   28  O   UNL     1      -8.753  10.481  69.513  1.00  0.00    -0.129 OA 
ENDBRANCH  10  23
ENDBRANCH   5   7
ENDBRANCH   4   5
ENDBRANCH   3   4
ENDBRANCH   2   3
TORSDOF 7
ENDMDL
MODEL       46
REMARK 921   NORMALIZED FREE ENERGY PREDICTED BY IDOCK:   -5.49 KCAL/MOL
REMARK 922        TOTAL FREE ENERGY PREDICTED BY IDOCK:   -8.51 KCAL/MOL
REMARK 923 INTER-LIGAND FREE ENERGY PREDICTED BY IDOCK:   -7.25 KCAL/MOL
REMARK 924 INTRA-LIGAND FREE ENERGY PREDICTED BY IDOCK:   -1.25 KCAL/MOL
REMARK 927      BINDING AFFINITY PREDICTED BY RF-SCORE:    0.00 PKD
ROOT
HETATM    1  C   UNL     1     -10.705  16.807  68.324  1.00  0.00    -0.364 C  
HETATM    2  C   UNL     1     -10.572  15.633  69.277  1.00  0.00    -0.238 C  
ENDROOT
BRANCH   2   3
HETATM    3  C   UNL     1     -11.946  15.060  69.634  1.00  0.00    -0.356 C  
BRANCH   3   4
HETATM    4  C   UNL     1     -11.901  13.542  69.689  1.00  0.00    -0.336 C  
BRANCH   4   5
HETATM    5  N   UNL     1     -10.591  13.022  69.304  1.00  0.00    -0.439 NA 
HETATM    6  H   UNL     1      -9.777  13.638  69.303  1.00  0.00     0.000 HD 
BRANCH   5   7
HETATM    7  C   UNL     1     -10.455  11.686  68.938  1.00  0.00    -0.175 A  
HETATM    8  C   UNL     1      -9.825  11.264  67.746  1.00  0.00    -0.173 A  
HETATM    9  C   UNL     1     -11.233   8.409  70.665  1.00  0.00    -0.255 C  
HETATM   10  C   UNL     1      -9.665   9.878  67.519  1.00  0.00    -0.160 A  
HETATM   11  O   UNL     1     -11.636   7.204  70.227  1.00  0.00    -0.277 OA 
HETATM   12  O   UNL     1     -11.281   8.741  71.838  1.00  0.00    -0.322 OA 
HETATM   13  C   UNL     1     -10.116   8.913  68.443  1.00  0.00    -0.215 A  
HETATM   14  C   UNL     1     -10.760   9.329  69.599  1.00  0.00    -0.244 A  
HETATM   15  C   UNL     1     -10.916  10.695  69.829  1.00  0.00    -0.340 A  
BRANCH   8  16
HETATM   16  O   UNL     1      -9.540  12.124  66.705  1.00  0.00    -0.208 OA 
BRANCH  16  17
HETATM   17  C   UNL     1     -10.501  12.865  66.056  1.00  0.00    -0.276 A  
HETATM   18  C   UNL     1     -10.917  14.976  64.908  1.00  0.00    -0.427 A  
HETATM   19  C   UNL     1     -12.213  14.557  64.599  1.00  0.00    -0.474 A  
HETATM   20  C   UNL     1     -11.811  12.478  65.786  1.00  0.00    -0.494 A  
HETATM   21  C   UNL     1     -10.067  14.130  65.626  1.00  0.00    -0.350 A  
HETATM   22  C   UNL     1     -12.653  13.312  65.036  1.00  0.00    -0.483 A  
ENDBRANCH  16  17
ENDBRANCH   8  16
BRANCH  10  23
HETATM   23  S   UNL     1      -8.842   9.284  66.073  1.00  0.00    -0.172 S  
HETATM   24  O   UNL     1      -7.451   9.671  66.108  1.00  0.00    -0.096 OA 
HETATM   25  H2  UNL     1      -9.341   7.085  67.004  1.00  0.00     0.000 HD 
HETATM   26  H1  UNL     1      -8.445   7.281  65.412  1.00  0.00     0.000 HD 
HETATM   27  N   UNL     1      -8.920   7.624  66.247  1.00  0.00    -0.165 N  
HETATM   28  O   UNL     1      -9.676   9.575  64.924  1.00  0.00    -0.214 OA 
ENDBRANCH  10  23
ENDBRANCH   5   7
ENDBRANCH   4   5
ENDBRANCH   3   4
ENDBRANCH   2   3
TORSDOF 7
ENDMDL
MODEL       47
REMARK 921   NORMALIZED FREE ENERGY PREDICTED BY IDOCK:   -5.46 KCAL/MOL
REMARK 922        TOTAL FREE ENERGY PREDICTED BY IDOCK:   -8.46 KCAL/MOL
REMARK 923 INTER-LIGAND FREE ENERGY PREDICTED BY IDOCK:   -7.58 KCAL/MOL
REMARK 924 INTRA-LIGAND FREE ENERGY PREDICTED BY IDOCK:   -0.88 KCAL/MOL
REMARK 927      BINDING AFFINITY PREDICTED BY RF-SCORE:    0.00 PKD
ROOT
HETATM    1  C   UNL     1      -7.767  10.052  70.055  1.00  0.00    -0.181 C  
HETATM    2  C   UNL     1      -7.470   9.978  68.568  1.00  0.00    -0.086 C  
ENDROOT
BRANCH   2   3
HETATM    3  C   UNL     1      -7.121  11.362  68.011  1.00  0.00    -0.074 C  
BRANCH   3   4
HETATM    4  C   UNL     1      -7.738  12.458  68.864  1.00  0.00     0.072 C  
BRANCH   4   5
HETATM    5  N   UNL     1      -9.129  12.715  68.498  1.00  0.00    -0.370 NA 
HETATM    6  H   UNL     1      -9.881  12.187  68.942  1.00  0.00     0.000 HD 
BRANCH   5   7
HETATM    7  C   UNL     1      -9.427  13.681  67.541  1.00  0.00    -0.222 A  
HETATM    8  C   UNL     1     -10.527  13.593  66.660  1.00  0.00    -0.272 A  
HETATM    9  C   UNL     1      -7.987  17.085  66.726  1.00  0.00    -0.239 C  
HETATM   10  C   UNL     1     -10.786  14.677  65.789  1.00  0.00    -0.315 A  
HETATM   11  O   UNL     1      -7.834  17.778  65.584  1.00  0.00    -0.538 OA 
HETATM   12  O   UNL     1      -7.416  17.379  67.763  1.00  0.00    -0.182 OA 
HETATM   13  C   UNL     1      -9.977  15.832  65.774  1.00  0.00    -0.389 A  
HETATM   14  C   UNL     1      -8.879  15.903  66.620  1.00  0.00    -0.316 A  
HETATM   15  C   UNL     1      -8.624  14.840  67.484  1.00  0.00    -0.198 A  
BRANCH   8  16
HETATM   16  O   UNL     1     -11.242  12.428  66.468  1.00  0.00    -0.285 OA 
BRANCH  16  17
HETATM   17  C   UNL     1     -10.645  11.200  66.295  1.00  0.00    -0.253 A  
HETATM   18  C   UNL     1     -10.520   8.931  67.178  1.00  0.00    -0.344 A  
HETATM   19  C   UNL     1      -9.672   8.565  66.130  1.00  0.00    -0.259 A  
HETATM   20  C   UNL     1      -9.760  10.838  65.283  1.00  0.00    -0.308 A  
HETATM   21  C   UNL     1     -11.007  10.239  67.253  1.00  0.00    -0.277 A  
HETATM   22  C   UNL     1      -9.298   9.517  65.188  1.00  0.00    -0.316 A  
ENDBRANCH  16  17
ENDBRANCH   8  16
BRANCH  10  23
HETATM   23  S   UNL     1     -12.175  14.653  64.698  1.00  0.00    -0.369 S  
HETATM   24  O   UNL     1     -12.237  15.892  63.958  1.00  0.00    -0.719 OA 
HETATM   25  H2  UNL     1     -10.961  12.841  63.606  1.00  0.00     0.000 HD 
HETATM   26  H1  UNL     1     -12.595  13.416  62.996  1.00  0.00     0.000 HD 
HETATM   27  N   UNL     1     -11.793  13.430  63.626  1.00  0.00    -0.436 N  
HETATM   28  O   UNL     1     -13.321  14.156  65.432  1.00  0.00    -0.705 OA 
ENDBRANCH  10  23
ENDBRANCH   5   7
ENDBRANCH   4   5
ENDBRANCH   3   4
ENDBRANCH   2   3
TORSDOF 7
ENDMDL
MODEL       48
REMARK 921   NORMALIZED FREE ENERGY PREDICTED BY IDOCK:   -5.43 KCAL/MOL
REMARK 922        TOTAL FREE ENERGY PREDICTED BY IDOCK:   -8.41 KCAL/MOL
REMARK 923 INTER-LIGAND FREE ENERGY PREDICTED BY IDOCK:   -7.63 KCAL/MOL
REMARK 924 INTRA-LIGAND FREE ENERGY PREDICTED BY IDOCK:   -0.79 KCAL/MOL
REMARK 927      BINDING AFFINITY PREDICTED BY RF-SCORE:    0.00 PKD
ROOT
HETATM    1  C   UNL     1     -10.380  11.604  63.733  1.00  0.00    -0.445 C  
HETATM    2  C   UNL     1     -11.761  12.210  63.561  1.00  0.00    -0.579 C  
ENDROOT
BRANCH   2   3
HETATM    3  C   UNL     1     -11.827  13.606  64.188  1.00  0.00    -0.463 C  
BRANCH   3   4
HETATM    4  C   UNL     1     -12.946  13.684  65.215  1.00  0.00    -0.259 C  
BRANCH   4   5
HETATM    5  N   UNL     1     -12.478  14.224  66.489  1.00  0.00    -0.528 NA 
HETATM    6  H   UNL     1     -13.151  14.550  67.184  1.00  0.00     0.000 HD 
BRANCH   5   7
HETATM    7  C   UNL     1     -11.113  14.293  66.754  1.00  0.00    -0.314 A  
HETATM    8  C   UNL     1     -10.313  13.161  67.023  1.00  0.00    -0.249 A  
HETATM    9  C   UNL     1      -8.578  17.103  66.702  1.00  0.00    -0.253 C  
HETATM   10  C   UNL     1      -8.920  13.341  67.190  1.00  0.00    -0.229 A  
HETATM   11  O   UNL     1      -7.474  17.369  67.421  1.00  0.00    -0.176 OA 
HETATM   12  O   UNL     1      -9.127  17.933  65.995  1.00  0.00    -0.504 OA 
HETATM   13  C   UNL     1      -8.315  14.611  67.100  1.00  0.00    -0.236 A  
HETATM   14  C   UNL     1      -9.108  15.725  66.865  1.00  0.00    -0.259 A  
HETATM   15  C   UNL     1     -10.480  15.553  66.694  1.00  0.00    -0.299 A  
BRANCH   8  16
HETATM   16  O   UNL     1     -10.844  11.924  67.326  1.00  0.00    -0.226 OA 
BRANCH  16  17
HETATM   17  C   UNL     1     -11.323  11.596  68.574  1.00  0.00    -0.274 A  
HETATM   18  C   UNL     1     -11.470   9.800  70.217  1.00  0.00    -0.317 A  
HETATM   19  C   UNL     1     -12.087  10.670  71.119  1.00  0.00    -0.445 A  
HETATM   20  C   UNL     1     -11.983  12.441  69.462  1.00  0.00    -0.324 A  
HETATM   21  C   UNL     1     -11.086  10.266  68.956  1.00  0.00    -0.277 A  
HETATM   22  C   UNL     1     -12.338  11.984  70.740  1.00  0.00    -0.403 A  
ENDBRANCH  16  17
ENDBRANCH   8  16
BRANCH  10  23
HETATM   23  S   UNL     1      -7.855  11.961  67.479  1.00  0.00    -0.162 S  
HETATM   24  O   UNL     1      -8.074  10.954  66.467  1.00  0.00    -0.143 OA 
HETATM   25  H2  UNL     1      -6.077  13.561  66.999  1.00  0.00     0.000 HD 
HETATM   26  H1  UNL     1      -5.716  11.808  67.414  1.00  0.00     0.000 HD 
HETATM   27  N   UNL     1      -6.331  12.604  67.247  1.00  0.00    -0.147 N  
HETATM   28  O   UNL     1      -7.908  11.634  68.890  1.00  0.00    -0.118 OA 
ENDBRANCH  10  23
ENDBRANCH   5   7
ENDBRANCH   4   5
ENDBRANCH   3   4
ENDBRANCH   2   3
TORSDOF 7
ENDMDL
MODEL       49
REMARK 921   NORMALIZED FREE ENERGY PREDICTED BY IDOCK:   -5.42 KCAL/MOL
REMARK 922        TOTAL FREE ENERGY PREDICTED BY IDOCK:   -8.41 KCAL/MOL
REMARK 923 INTER-LIGAND FREE ENERGY PREDICTED BY IDOCK:   -7.29 KCAL/MOL
REMARK 924 INTRA-LIGAND FREE ENERGY PREDICTED BY IDOCK:   -1.12 KCAL/MOL
REMARK 927      BINDING AFFINITY PREDICTED BY RF-SCORE:    0.00 PKD
ROOT
HETATM    1  C   UNL     1     -10.595  15.608  64.933  1.00  0.00    -0.344 C  
HETATM    2  C   UNL     1      -9.607  14.818  65.772  1.00  0.00    -0.289 C  
ENDROOT
BRANCH   2   3
HETATM    3  C   UNL     1      -9.470  15.425  67.171  1.00  0.00    -0.221 C  
BRANCH   3   4
HETATM    4  C   UNL     1     -10.810  15.944  67.668  1.00  0.00    -0.312 C  
BRANCH   4   5
HETATM    5  N   UNL     1     -11.810  14.882  67.745  1.00  0.00    -0.471 NA 
HETATM    6  H   UNL     1     -12.320  14.598  66.908  1.00  0.00     0.000 HD 
BRANCH   5   7
HETATM    7  C   UNL     1     -12.066  14.258  68.963  1.00  0.00    -0.285 A  
HETATM    8  C   UNL     1     -12.151  12.857  69.118  1.00  0.00    -0.168 A  
HETATM    9  C   UNL     1     -12.406  15.505  72.520  1.00  0.00    -0.411 C  
HETATM   10  C   UNL     1     -12.326  12.329  70.418  1.00  0.00    -0.228 A  
HETATM   11  O   UNL     1     -13.144  15.112  73.574  1.00  0.00    -0.495 OA 
HETATM   12  O   UNL     1     -11.839  16.584  72.471  1.00  0.00    -0.534 OA 
HETATM   13  C   UNL     1     -12.421  13.158  71.554  1.00  0.00    -0.199 A  
HETATM   14  C   UNL     1     -12.366  14.536  71.396  1.00  0.00    -0.425 A  
HETATM   15  C   UNL     1     -12.188  15.060  70.117  1.00  0.00    -0.392 A  
BRANCH   8  16
HETATM   16  O   UNL     1     -12.271  11.991  68.050  1.00  0.00    -0.454 OA 
BRANCH  16  17
HETATM   17  C   UNL     1     -11.254  11.756  67.154  1.00  0.00    -0.316 A  
HETATM   18  C   UNL     1      -8.871  11.274  66.963  1.00  0.00    -0.153 A  
HETATM   19  C   UNL     1      -9.004  11.145  65.578  1.00  0.00    -0.178 A  
HETATM   20  C   UNL     1     -11.365  11.675  65.768  1.00  0.00    -0.244 A  
HETATM   21  C   UNL     1      -9.992  11.571  67.743  1.00  0.00    -0.195 A  
HETATM   22  C   UNL     1     -10.248  11.343  64.989  1.00  0.00    -0.333 A  
ENDBRANCH  16  17
ENDBRANCH   8  16
BRANCH  10  23
HETATM   23  S   UNL     1     -12.391  10.584  70.689  1.00  0.00    -0.381 S  
HETATM   24  O   UNL     1     -11.056  10.035  70.659  1.00  0.00    -0.298 OA 
HETATM   25  H2  UNL     1     -13.215  11.216  72.896  1.00  0.00     0.000 HD 
HETATM   26  H1  UNL     1     -13.001   9.457  72.409  1.00  0.00     0.000 HD 
HETATM   27  N   UNL     1     -12.964  10.464  72.253  1.00  0.00    -0.292 N  
HETATM   28  O   UNL     1     -13.449  10.036  69.864  1.00  0.00     0.333 OA 
ENDBRANCH  10  23
ENDBRANCH   5   7
ENDBRANCH   4   5
ENDBRANCH   3   4
ENDBRANCH   2   3
TORSDOF 7
ENDMDL
MODEL       50
REMARK 921   NORMALIZED FREE ENERGY PREDICTED BY IDOCK:   -5.37 KCAL/MOL
REMARK 922        TOTAL FREE ENERGY PREDICTED BY IDOCK:   -8.33 KCAL/MOL
REMARK 923 INTER-LIGAND FREE ENERGY PREDICTED BY IDOCK:   -7.41 KCAL/MOL
REMARK 924 INTRA-LIGAND FREE ENERGY PREDICTED BY IDOCK:   -0.92 KCAL/MOL
REMARK 927      BINDING AFFINITY PREDICTED BY RF-SCORE:    0.00 PKD
ROOT
HETATM    1  C   UNL     1     -10.553  16.095  65.606  1.00  0.00    -0.377 C  
HETATM    2  C   UNL     1     -10.178  16.014  67.074  1.00  0.00    -0.282 C  
ENDROOT
BRANCH   2   3
HETATM    3  C   UNL     1     -11.399  16.259  67.965  1.00  0.00    -0.205 C  
BRANCH   3   4
HETATM    4  C   UNL     1     -11.671  15.053  68.850  1.00  0.00    -0.328 C  
BRANCH   4   5
HETATM    5  N   UNL     1     -10.737  13.961  68.586  1.00  0.00    -0.255 NA 
HETATM    6  H   UNL     1      -9.868  14.143  68.083  1.00  0.00     0.000 HD 
BRANCH   5   7
HETATM    7  C   UNL     1     -11.035  12.673  69.021  1.00  0.00    -0.191 A  
HETATM    8  C   UNL     1     -10.433  11.512  68.488  1.00  0.00    -0.208 A  
HETATM    9  C   UNL     1     -13.167  11.287  71.823  1.00  0.00    -0.375 C  
HETATM   10  C   UNL     1     -10.745  10.260  69.069  1.00  0.00    -0.227 A  
HETATM   11  O   UNL     1     -13.906  10.171  71.962  1.00  0.00    -0.191 OA 
HETATM   12  O   UNL     1     -13.262  12.244  72.574  1.00  0.00    -0.322 OA 
HETATM   13  C   UNL     1     -11.638  10.142  70.153  1.00  0.00    -0.350 A  
HETATM   14  C   UNL     1     -12.250  11.282  70.656  1.00  0.00    -0.489 A  
HETATM   15  C   UNL     1     -11.941  12.517  70.091  1.00  0.00    -0.377 A  
BRANCH   8  16
HETATM   16  O   UNL     1      -9.713  11.514  67.311  1.00  0.00    -0.181 OA 
BRANCH  16  17
HETATM   17  C   UNL     1     -10.301  11.615  66.070  1.00  0.00    -0.243 A  
HETATM   18  C   UNL     1     -10.154  10.864  63.755  1.00  0.00    -0.413 A  
HETATM   19  C   UNL     1     -11.338  11.542  63.455  1.00  0.00    -0.375 A  
HETATM   20  C   UNL     1     -11.453  12.328  65.750  1.00  0.00    -0.417 A  
HETATM   21  C   UNL     1      -9.646  10.897  65.057  1.00  0.00    -0.299 A  
HETATM   22  C   UNL     1     -11.982  12.268  64.452  1.00  0.00    -0.473 A  
ENDBRANCH  16  17
ENDBRANCH   8  16
BRANCH  10  23
HETATM   23  S   UNL     1      -9.989   8.774  68.483  1.00  0.00    -0.188 S  
HETATM   24  O   UNL     1      -8.552   8.912  68.513  1.00  0.00    -0.131 OA 
HETATM   25  H2  UNL     1     -10.988   7.785  70.477  1.00  0.00     0.000 HD 
HETATM   26  H1  UNL     1      -9.987   6.791  69.300  1.00  0.00     0.000 HD 
HETATM   27  N   UNL     1     -10.424   7.648  69.638  1.00  0.00    -0.231 N  
HETATM   28  O   UNL     1     -10.681   8.356  67.280  1.00  0.00    -0.285 OA 
ENDBRANCH  10  23
ENDBRANCH   5   7
ENDBRANCH   4   5
ENDBRANCH   3   4
ENDBRANCH   2   3
TORSDOF 7
ENDMDL
MODEL       51
REMARK 921   NORMALIZED FREE ENERGY PREDICTED BY IDOCK:   -5.36 KCAL/MOL
REMARK 922        TOTAL FREE ENERGY PREDICTED BY IDOCK:   -8.32 KCAL/MOL
REMARK 923 INTER-LIGAND FREE ENERGY PREDICTED BY IDOCK:   -7.44 KCAL/MOL
REMARK 924 INTRA-LIGAND FREE ENERGY PREDICTED BY IDOCK:   -0.89 KCAL/MOL
REMARK 927      BINDING AFFINITY PREDICTED BY RF-SCORE:    0.00 PKD
ROOT
HETATM    1  C   UNL     1     -12.507  11.845  63.611  1.00  0.00    -0.583 C  
HETATM    2  C   UNL     1     -11.376  12.857  63.647  1.00  0.00    -0.455 C  
ENDROOT
BRANCH   2   3
HETATM    3  C   UNL     1     -11.853  14.190  64.230  1.00  0.00    -0.420 C  
BRANCH   3   4
HETATM    4  C   UNL     1     -12.875  13.962  65.332  1.00  0.00    -0.427 C  
BRANCH   4   5
HETATM    5  N   UNL     1     -12.399  14.450  66.625  1.00  0.00    -0.518 NA 
HETATM    6  H   UNL     1     -12.819  15.280  67.043  1.00  0.00     0.000 HD 
BRANCH   5   7
HETATM    7  C   UNL     1     -11.374  13.779  67.285  1.00  0.00    -0.321 A  
HETATM    8  C   UNL     1     -10.075  14.308  67.449  1.00  0.00    -0.247 A  
HETATM    9  C   UNL     1     -11.200  10.543  69.241  1.00  0.00    -0.262 C  
HETATM   10  C   UNL     1      -9.137  13.577  68.214  1.00  0.00    -0.189 A  
HETATM   11  O   UNL     1     -10.244   9.613  69.410  1.00  0.00    -0.187 OA 
HETATM   12  O   UNL     1     -12.369  10.358  69.537  1.00  0.00    -0.116 OA 
HETATM   13  C   UNL     1      -9.462  12.341  68.810  1.00  0.00     0.075 A  
HETATM   14  C   UNL     1     -10.730  11.809  68.623  1.00  0.00    -0.252 A  
HETATM   15  C   UNL     1     -11.659  12.529  67.874  1.00  0.00    -0.403 A  
BRANCH   8  16
HETATM   16  O   UNL     1      -9.615  15.399  66.739  1.00  0.00    -0.224 OA 
BRANCH  16  17
HETATM   17  C   UNL     1      -9.811  16.698  67.147  1.00  0.00    -0.257 A  
HETATM   18  C   UNL     1     -10.247  18.964  66.358  1.00  0.00    -0.481 A  
HETATM   19  C   UNL     1     -10.345  19.409  67.679  1.00  0.00    -0.550 A  
HETATM   20  C   UNL     1      -9.861  17.162  68.459  1.00  0.00    -0.297 A  
HETATM   21  C   UNL     1      -9.988  17.616  66.098  1.00  0.00    -0.281 A  
HETATM   22  C   UNL     1     -10.155  18.508  68.721  1.00  0.00    -0.394 A  
ENDBRANCH  16  17
ENDBRANCH   8  16
BRANCH  10  23
HETATM   23  S   UNL     1      -7.511  14.205  68.500  1.00  0.00    -0.129 S  
HETATM   24  O   UNL     1      -7.573  15.330  69.405  1.00  0.00    -0.191 OA 
HETATM   25  H2  UNL     1      -7.135  12.036  69.551  1.00  0.00     0.000 HD 
HETATM   26  H1  UNL     1      -5.814  13.309  69.459  1.00  0.00     0.000 HD 
HETATM   27  N   UNL     1      -6.752  12.946  69.294  1.00  0.00    -0.093 N  
HETATM   28  O   UNL     1      -6.831  14.302  67.224  1.00  0.00    -0.234 OA 
ENDBRANCH  10  23
ENDBRANCH   5   7
ENDBRANCH   4   5
ENDBRANCH   3   4
ENDBRANCH   2   3
TORSDOF 7
ENDMDL
MODEL       52
REMARK 921   NORMALIZED FREE ENERGY PREDICTED BY IDOCK:   -5.34 KCAL/MOL
REMARK 922        TOTAL FREE ENERGY PREDICTED BY IDOCK:   -8.30 KCAL/MOL
REMARK 923 INTER-LIGAND FREE ENERGY PREDICTED BY IDOCK:   -7.25 KCAL/MOL
REMARK 924 INTRA-LIGAND FREE ENERGY PREDICTED BY IDOCK:   -1.05 KCAL/MOL
REMARK 927      BINDING AFFINITY PREDICTED BY RF-SCORE:    0.00 PKD
ROOT
HETATM    1  C   UNL     1     -10.977  11.244  63.969  1.00  0.00    -0.377 C  
HETATM    2  C   UNL     1      -9.571  11.204  64.538  1.00  0.00    -0.288 C  
ENDROOT
BRANCH   2   3
HETATM    3  C   UNL     1      -9.298   9.864  65.228  1.00  0.00    -0.309 C  
BRANCH   3   4
HETATM    4  C   UNL     1     -10.159   9.714  66.472  1.00  0.00    -0.244 C  
BRANCH   4   5
HETATM    5  N   UNL     1      -9.626  10.477  67.598  1.00  0.00    -0.156 NA 
HETATM    6  H   UNL     1      -9.002  11.267  67.431  1.00  0.00     0.000 HD 
BRANCH   5   7
HETATM    7  C   UNL     1      -9.972  10.125  68.900  1.00  0.00    -0.199 A  
HETATM    8  C   UNL     1     -11.252  10.344  69.453  1.00  0.00    -0.259 A  
HETATM    9  C   UNL     1      -8.189   8.250  71.663  1.00  0.00    -0.137 C  
HETATM   10  C   UNL     1     -11.518   9.865  70.757  1.00  0.00    -0.354 A  
HETATM   11  O   UNL     1      -8.200   8.344  73.004  1.00  0.00    -0.286 OA 
HETATM   12  O   UNL     1      -7.337   7.632  71.046  1.00  0.00    -0.068 OA 
HETATM   13  C   UNL     1     -10.544   9.183  71.514  1.00  0.00    -0.428 A  
HETATM   14  C   UNL     1      -9.278   8.994  70.980  1.00  0.00    -0.331 A  
HETATM   15  C   UNL     1      -9.013   9.460  69.693  1.00  0.00    -0.181 A  
BRANCH   8  16
HETATM   16  O   UNL     1     -12.189  11.171  68.868  1.00  0.00    -0.522 OA 
BRANCH  16  17
HETATM   17  C   UNL     1     -12.002  12.525  68.707  1.00  0.00    -0.238 A  
HETATM   18  C   UNL     1     -11.934  14.321  67.059  1.00  0.00    -0.463 A  
HETATM   19  C   UNL     1     -11.767  15.259  68.080  1.00  0.00    -0.297 A  
HETATM   20  C   UNL     1     -11.784  13.462  69.714  1.00  0.00    -0.355 A  
HETATM   21  C   UNL     1     -12.057  12.965  67.374  1.00  0.00    -0.258 A  
HETATM   22  C   UNL     1     -11.696  14.826  69.401  1.00  0.00    -0.358 A  
ENDBRANCH  16  17
ENDBRANCH   8  16
BRANCH  10  23
HETATM   23  S   UNL     1     -13.114  10.061  71.489  1.00  0.00    -0.444 S  
HETATM   24  O   UNL     1     -14.130   9.572  70.586  1.00  0.00     0.099 OA 
HETATM   25  H2  UNL     1     -12.286   8.440  73.112  1.00  0.00     0.000 HD 
HETATM   26  H1  UNL     1     -13.977   9.149  73.228  1.00  0.00     0.000 HD 
HETATM   27  N   UNL     1     -13.056   9.035  72.806  1.00  0.00    -0.296 N  
HETATM   28  O   UNL     1     -13.191  11.391  72.059  1.00  0.00    -0.503 OA 
ENDBRANCH  10  23
ENDBRANCH   5   7
ENDBRANCH   4   5
ENDBRANCH   3   4
ENDBRANCH   2   3
TORSDOF 7
ENDMDL
MODEL       53
REMARK 921   NORMALIZED FREE ENERGY PREDICTED BY IDOCK:   -5.34 KCAL/MOL
REMARK 922        TOTAL FREE ENERGY PREDICTED BY IDOCK:   -8.29 KCAL/MOL
REMARK 923 INTER-LIGAND FREE ENERGY PREDICTED BY IDOCK:   -7.25 KCAL/MOL
REMARK 924 INTRA-LIGAND FREE ENERGY PREDICTED BY IDOCK:   -1.03 KCAL/MOL
REMARK 927      BINDING AFFINITY PREDICTED BY RF-SCORE:    0.00 PKD
ROOT
HETATM    1  C   UNL     1     -10.129   5.206  66.468  1.00  0.00    -0.269 C  
HETATM    2  C   UNL     1     -10.335   5.329  67.967  1.00  0.00    -0.183 C  
ENDROOT
BRANCH   2   3
HETATM    3  C   UNL     1     -10.681   6.770  68.354  1.00  0.00    -0.284 C  
BRANCH   3   4
HETATM    4  C   UNL     1     -10.527   7.701  67.162  1.00  0.00    -0.342 C  
BRANCH   4   5
HETATM    5  N   UNL     1      -9.675   8.846  67.473  1.00  0.00    -0.162 NA 
HETATM    6  H   UNL     1      -8.811   8.713  67.998  1.00  0.00     0.000 HD 
BRANCH   5   7
HETATM    7  C   UNL     1     -10.045  10.120  67.050  1.00  0.00    -0.223 A  
HETATM    8  C   UNL     1     -10.041  11.253  67.894  1.00  0.00    -0.178 A  
HETATM    9  C   UNL     1     -10.964  11.596  63.689  1.00  0.00    -0.431 C  
HETATM   10  C   UNL     1     -10.351  12.514  67.334  1.00  0.00    -0.216 A  
HETATM   11  O   UNL     1     -11.805  12.572  63.303  1.00  0.00    -0.482 OA 
HETATM   12  O   UNL     1     -10.481  10.789  62.912  1.00  0.00    -0.048 OA 
HETATM   13  C   UNL     1     -10.664  12.669  65.969  1.00  0.00    -0.295 A  
HETATM   14  C   UNL     1     -10.695  11.550  65.148  1.00  0.00    -0.348 A  
HETATM   15  C   UNL     1     -10.386  10.306  65.694  1.00  0.00    -0.232 A  
BRANCH   8  16
HETATM   16  O   UNL     1      -9.947  11.164  69.268  1.00  0.00    -0.139 OA 
BRANCH  16  17
HETATM   17  C   UNL     1     -10.915  10.580  70.052  1.00  0.00    -0.286 A  
HETATM   18  C   UNL     1     -11.302   8.905  71.781  1.00  0.00    -0.431 A  
HETATM   19  C   UNL     1     -12.645   9.282  71.852  1.00  0.00    -0.468 A  
HETATM   20  C   UNL     1     -12.266  10.913  70.095  1.00  0.00    -0.423 A  
HETATM   21  C   UNL     1     -10.444   9.557  70.891  1.00  0.00    -0.382 A  
HETATM   22  C   UNL     1     -13.120  10.284  71.012  1.00  0.00    -0.458 A  
ENDBRANCH  16  17
ENDBRANCH   8  16
BRANCH  10  23
HETATM   23  S   UNL     1     -10.315  13.979  68.322  1.00  0.00    -0.252 S  
HETATM   24  O   UNL     1      -8.978  14.201  68.820  1.00  0.00    -0.159 OA 
HETATM   25  H2  UNL     1     -10.851  15.100  66.223  1.00  0.00     0.000 HD 
HETATM   26  H1  UNL     1     -10.643  16.032  67.792  1.00  0.00     0.000 HD 
HETATM   27  N   UNL     1     -10.663  15.187  67.222  1.00  0.00    -0.298 N  
HETATM   28  O   UNL     1     -11.456  13.952  69.215  1.00  0.00    -0.265 OA 
ENDBRANCH  10  23
ENDBRANCH   5   7
ENDBRANCH   4   5
ENDBRANCH   3   4
ENDBRANCH   2   3
TORSDOF 7
ENDMDL
MODEL       54
REMARK 921   NORMALIZED FREE ENERGY PREDICTED BY IDOCK:   -5.32 KCAL/MOL
REMARK 922        TOTAL FREE ENERGY PREDICTED BY IDOCK:   -8.27 KCAL/MOL
REMARK 923 INTER-LIGAND FREE ENERGY PREDICTED BY IDOCK:   -7.71 KCAL/MOL
REMARK 924 INTRA-LIGAND FREE ENERGY PREDICTED BY IDOCK:   -0.55 KCAL/MOL
REMARK 927      BINDING AFFINITY PREDICTED BY RF-SCORE:    0.00 PKD
ROOT
HETATM    1  C   UNL     1     -13.595  13.301  72.054  1.00  0.00    -0.573 C  
HETATM    2  C   UNL     1     -13.296  14.771  72.287  1.00  0.00    -0.488 C  
ENDROOT
BRANCH   2   3
HETATM    3  C   UNL     1     -13.122  15.510  70.957  1.00  0.00    -0.551 C  
BRANCH   3   4
HETATM    4  C   UNL     1     -12.743  14.542  69.847  1.00  0.00    -0.075 C  
BRANCH   4   5
HETATM    5  N   UNL     1     -11.911  15.179  68.829  1.00  0.00    -0.538 NA 
HETATM    6  H   UNL     1     -11.861  16.196  68.774  1.00  0.00     0.000 HD 
BRANCH   5   7
HETATM    7  C   UNL     1     -11.187  14.395  67.935  1.00  0.00    -0.286 A  
HETATM    8  C   UNL     1      -9.864  13.963  68.171  1.00  0.00    -0.240 A  
HETATM    9  C   UNL     1     -12.048  12.675  64.675  1.00  0.00    -0.420 C  
HETATM   10  C   UNL     1      -9.257  13.096  67.233  1.00  0.00    -0.221 A  
HETATM   11  O   UNL     1     -11.350  12.404  63.558  1.00  0.00    -0.438 OA 
HETATM   12  O   UNL     1     -13.265  12.608  64.732  1.00  0.00    -0.846 OA 
HETATM   13  C   UNL     1      -9.932  12.657  66.076  1.00  0.00    -0.267 A  
HETATM   14  C   UNL     1     -11.222  13.106  65.832  1.00  0.00    -0.311 A  
HETATM   15  C   UNL     1     -11.826  13.957  66.756  1.00  0.00    -0.452 A  
BRANCH   8  16
HETATM   16  O   UNL     1      -9.066  14.499  69.162  1.00  0.00    -0.104 OA 
BRANCH  16  17
HETATM   17  C   UNL     1      -8.420  15.708  69.036  1.00  0.00    -0.231 A  
HETATM   18  C   UNL     1      -6.250  16.807  69.207  1.00  0.00    -0.201 A  
HETATM   19  C   UNL     1      -6.815  18.002  68.756  1.00  0.00    -0.260 A  
HETATM   20  C   UNL     1      -8.983  16.916  68.635  1.00  0.00    -0.266 A  
HETATM   21  C   UNL     1      -7.049  15.668  69.338  1.00  0.00    -0.198 A  
HETATM   22  C   UNL     1      -8.175  18.051  68.471  1.00  0.00    -0.311 A  
ENDBRANCH  16  17
ENDBRANCH   8  16
BRANCH  10  23
HETATM   23  S   UNL     1      -7.622  12.478  67.493  1.00  0.00    -0.163 S  
HETATM   24  O   UNL     1      -7.527  11.881  68.804  1.00  0.00    -0.117 OA 
HETATM   25  H2  UNL     1      -8.190  10.945  65.683  1.00  0.00     0.000 HD 
HETATM   26  H1  UNL     1      -6.550  10.902  66.510  1.00  0.00     0.000 HD 
HETATM   27  N   UNL     1      -7.494  11.258  66.360  1.00  0.00    -0.107 N  
HETATM   28  O   UNL     1      -6.680  13.489  67.056  1.00  0.00    -0.048 OA 
ENDBRANCH  10  23
ENDBRANCH   5   7
ENDBRANCH   4   5
ENDBRANCH   3   4
ENDBRANCH   2   3
TORSDOF 7
ENDMDL
MODEL       55
REMARK 921   NORMALIZED FREE ENERGY PREDICTED BY IDOCK:   -5.30 KCAL/MOL
REMARK 922        TOTAL FREE ENERGY PREDICTED BY IDOCK:   -8.24 KCAL/MOL
REMARK 923 INTER-LIGAND FREE ENERGY PREDICTED BY IDOCK:   -7.40 KCAL/MOL
REMARK 924 INTRA-LIGAND FREE ENERGY PREDICTED BY IDOCK:   -0.84 KCAL/MOL
REMARK 927      BINDING AFFINITY PREDICTED BY RF-SCORE:    0.00 PKD
ROOT
HETATM    1  C   UNL     1      -9.996  20.114  67.289  1.00  0.00    -0.583 C  
HETATM    2  C   UNL     1     -10.289  18.703  67.765  1.00  0.00    -0.454 C  
ENDROOT
BRANCH   2   3
HETATM    3  C   UNL     1     -10.014  17.684  66.654  1.00  0.00    -0.328 C  
BRANCH   3   4
HETATM    4  C   UNL     1     -10.596  16.326  67.012  1.00  0.00    -0.284 C  
BRANCH   4   5
HETATM    5  N   UNL     1      -9.953  15.751  68.190  1.00  0.00    -0.213 NA 
HETATM    6  H   UNL     1      -8.964  15.926  68.370  1.00  0.00     0.000 HD 
BRANCH   5   7
HETATM    7  C   UNL     1     -10.692  14.963  69.069  1.00  0.00    -0.247 A  
HETATM    8  C   UNL     1     -10.837  13.565  68.928  1.00  0.00    -0.224 A  
HETATM    9  C   UNL     1     -12.470  15.653  72.338  1.00  0.00    -0.423 C  
HETATM   10  C   UNL     1     -11.536  12.853  69.930  1.00  0.00    -0.176 A  
HETATM   11  O   UNL     1     -13.578  15.155  72.913  1.00  0.00    -0.474 OA 
HETATM   12  O   UNL     1     -11.930  16.681  72.713  1.00  0.00    -0.504 OA 
HETATM   13  C   UNL     1     -12.091  13.497  71.055  1.00  0.00    -0.233 A  
HETATM   14  C   UNL     1     -11.971  14.874  71.176  1.00  0.00    -0.389 A  
HETATM   15  C   UNL     1     -11.278  15.579  70.194  1.00  0.00    -0.331 A  
BRANCH   8  16
HETATM   16  O   UNL     1     -10.507  12.890  67.770  1.00  0.00    -0.214 OA 
BRANCH  16  17
HETATM   17  C   UNL     1      -9.261  12.353  67.542  1.00  0.00    -0.183 A  
HETATM   18  C   UNL     1      -7.971  10.950  66.020  1.00  0.00    -0.132 A  
HETATM   19  C   UNL     1      -6.814  11.205  66.760  1.00  0.00    -0.134 A  
HETATM   20  C   UNL     1      -8.112  12.560  68.300  1.00  0.00    -0.165 A  
HETATM   21  C   UNL     1      -9.183  11.527  66.408  1.00  0.00    -0.218 A  
HETATM   22  C   UNL     1      -6.888  12.009  67.892  1.00  0.00    -0.087 A  
ENDBRANCH  16  17
ENDBRANCH   8  16
BRANCH  10  23
HETATM   23  S   UNL     1     -11.712  11.097  69.840  1.00  0.00    -0.384 S  
HETATM   24  O   UNL     1     -10.484  10.461  70.257  1.00  0.00    -0.227 OA 
HETATM   25  H2  UNL     1     -13.368  11.431  71.600  1.00  0.00     0.000 HD 
HETATM   26  H1  UNL     1     -12.979   9.760  70.941  1.00  0.00     0.000 HD 
HETATM   27  N   UNL     1     -12.878  10.774  70.992  1.00  0.00    -0.380 N  
HETATM   28  O   UNL     1     -12.340  10.767  68.576  1.00  0.00    -0.417 OA 
ENDBRANCH  10  23
ENDBRANCH   5   7
ENDBRANCH   4   5
ENDBRANCH   3   4
ENDBRANCH   2   3
TORSDOF 7
ENDMDL
MODEL       56
REMARK 921   NORMALIZED FREE ENERGY PREDICTED BY IDOCK:   -5.28 KCAL/MOL
REMARK 922        TOTAL FREE ENERGY PREDICTED BY IDOCK:   -8.21 KCAL/MOL
REMARK 923 INTER-LIGAND FREE ENERGY PREDICTED BY IDOCK:   -7.39 KCAL/MOL
REMARK 924 INTRA-LIGAND FREE ENERGY PREDICTED BY IDOCK:   -0.82 KCAL/MOL
REMARK 927      BINDING AFFINITY PREDICTED BY RF-SCORE:    0.00 PKD
ROOT
HETATM    1  C   UNL     1      -7.359  17.128  68.863  1.00  0.00    -0.241 C  
HETATM    2  C   UNL     1      -6.232  16.172  68.520  1.00  0.00    -0.115 C  
ENDROOT
BRANCH   2   3
HETATM    3  C   UNL     1      -6.758  14.965  67.738  1.00  0.00    -0.191 C  
BRANCH   3   4
HETATM    4  C   UNL     1      -7.133  13.833  68.681  1.00  0.00    -0.104 C  
BRANCH   4   5
HETATM    5  N   UNL     1      -8.573  13.588  68.691  1.00  0.00    -0.347 NA 
HETATM    6  H   UNL     1      -9.106  13.707  69.553  1.00  0.00     0.000 HD 
BRANCH   5   7
HETATM    7  C   UNL     1      -9.217  13.191  67.522  1.00  0.00    -0.206 A  
HETATM    8  C   UNL     1     -10.263  13.926  66.921  1.00  0.00    -0.257 A  
HETATM    9  C   UNL     1      -8.657  10.378  65.053  1.00  0.00    -0.181 C  
HETATM   10  C   UNL     1     -10.784  13.475  65.685  1.00  0.00    -0.281 A  
HETATM   11  O   UNL     1      -9.479   9.639  64.288  1.00  0.00    -0.213 OA 
HETATM   12  O   UNL     1      -7.495  10.074  65.268  1.00  0.00    -0.125 OA 
HETATM   13  C   UNL     1     -10.293  12.318  65.046  1.00  0.00    -0.321 A  
HETATM   14  C   UNL     1      -9.285  11.583  65.653  1.00  0.00    -0.184 A  
HETATM   15  C   UNL     1      -8.765  12.026  66.868  1.00  0.00    -0.193 A  
BRANCH   8  16
HETATM   16  O   UNL     1     -10.934  14.942  67.570  1.00  0.00    -0.285 OA 
BRANCH  16  17
HETATM   17  C   UNL     1     -11.426  14.822  68.849  1.00  0.00    -0.297 A  
HETATM   18  C   UNL     1     -11.662  15.977  70.984  1.00  0.00    -0.458 A  
HETATM   19  C   UNL     1     -12.413  14.910  71.483  1.00  0.00    -0.397 A  
HETATM   20  C   UNL     1     -12.132  13.742  69.373  1.00  0.00    -0.377 A  
HETATM   21  C   UNL     1     -11.179  15.932  69.673  1.00  0.00    -0.331 A  
HETATM   22  C   UNL     1     -12.646  13.801  70.676  1.00  0.00    -0.386 A  
ENDBRANCH  16  17
ENDBRANCH   8  16
BRANCH  10  23
HETATM   23  S   UNL     1     -12.058  14.374  64.855  1.00  0.00    -0.434 S  
HETATM   24  O   UNL     1     -11.602  15.713  64.564  1.00  0.00    -0.392 OA 
HETATM   25  H2  UNL     1     -11.700  12.738  63.081  1.00  0.00     0.000 HD 
HETATM   26  H1  UNL     1     -12.950  14.076  62.927  1.00  0.00     0.000 HD 
HETATM   27  N   UNL     1     -12.215  13.557  63.406  1.00  0.00    -0.417 N  
HETATM   28  O   UNL     1     -13.307  14.138  65.550  1.00  0.00    -0.656 OA 
ENDBRANCH  10  23
ENDBRANCH   5   7
ENDBRANCH   4   5
ENDBRANCH   3   4
ENDBRANCH   2   3
TORSDOF 7
ENDMDL
MODEL       57
REMARK 921   NORMALIZED FREE ENERGY PREDICTED BY IDOCK:   -5.27 KCAL/MOL
REMARK 922        TOTAL FREE ENERGY PREDICTED BY IDOCK:   -8.19 KCAL/MOL
REMARK 923 INTER-LIGAND FREE ENERGY PREDICTED BY IDOCK:   -7.24 KCAL/MOL
REMARK 924 INTRA-LIGAND FREE ENERGY PREDICTED BY IDOCK:   -0.95 KCAL/MOL
REMARK 927      BINDING AFFINITY PREDICTED BY RF-SCORE:    0.00 PKD
ROOT
HETATM    1  C   UNL     1     -11.265  14.791  65.610  1.00  0.00    -0.343 C  
HETATM    2  C   UNL     1     -12.339  14.085  66.419  1.00  0.00    -0.468 C  
ENDROOT
BRANCH   2   3
HETATM    3  C   UNL     1     -11.907  13.929  67.880  1.00  0.00    -0.413 C  
BRANCH   3   4
HETATM    4  C   UNL     1     -10.425  13.603  67.973  1.00  0.00    -0.248 C  
BRANCH   4   5
HETATM    5  N   UNL     1     -10.192  12.300  68.590  1.00  0.00    -0.338 NA 
HETATM    6  H   UNL     1     -10.135  12.218  69.606  1.00  0.00     0.000 HD 
BRANCH   5   7
HETATM    7  C   UNL     1     -10.047  11.170  67.790  1.00  0.00    -0.178 A  
HETATM    8  C   UNL     1      -9.994   9.855  68.302  1.00  0.00    -0.151 A  
HETATM    9  C   UNL     1      -9.988  10.605  64.048  1.00  0.00    -0.337 C  
HETATM   10  C   UNL     1      -9.936   8.776  67.389  1.00  0.00    -0.208 A  
HETATM   11  O   UNL     1      -9.346   9.731  63.253  1.00  0.00    -0.259 OA 
HETATM   12  O   UNL     1     -10.534  11.611  63.627  1.00  0.00    -0.344 OA 
HETATM   13  C   UNL     1      -9.924   8.977  65.994  1.00  0.00    -0.246 A  
HETATM   14  C   UNL     1      -9.947  10.272  65.495  1.00  0.00    -0.364 A  
HETATM   15  C   UNL     1     -10.011  11.338  66.390  1.00  0.00    -0.252 A  
BRANCH   8  16
HETATM   16  O   UNL     1      -9.797   9.578  69.639  1.00  0.00    -0.181 OA 
BRANCH  16  17
HETATM   17  C   UNL     1     -10.831   9.402  70.531  1.00  0.00    -0.277 A  
HETATM   18  C   UNL     1     -11.501   8.227  72.560  1.00  0.00    -0.454 A  
HETATM   19  C   UNL     1     -12.714   8.919  72.566  1.00  0.00    -0.382 A  
HETATM   20  C   UNL     1     -12.063  10.049  70.518  1.00  0.00    -0.338 A  
HETATM   21  C   UNL     1     -10.565   8.474  71.552  1.00  0.00    -0.333 A  
HETATM   22  C   UNL     1     -12.988   9.827  71.548  1.00  0.00    -0.504 A  
ENDBRANCH  16  17
ENDBRANCH   8  16
BRANCH  10  23
HETATM   23  S   UNL     1      -9.918   7.103  67.961  1.00  0.00    -0.165 S  
HETATM   24  O   UNL     1     -11.200   6.769  68.535  1.00  0.00    -0.179 OA 
HETATM   25  H2  UNL     1      -9.658   6.568  65.595  1.00  0.00     0.000 HD 
HETATM   26  H1  UNL     1      -9.728   5.259  66.882  1.00  0.00     0.000 HD 
HETATM   27  N   UNL     1      -9.738   6.224  66.552  1.00  0.00    -0.157 N  
HETATM   28  O   UNL     1      -8.686   6.887  68.692  1.00  0.00    -0.123 OA 
ENDBRANCH  10  23
ENDBRANCH   5   7
ENDBRANCH   4   5
ENDBRANCH   3   4
ENDBRANCH   2   3
TORSDOF 7
ENDMDL
MODEL       58
REMARK 921   NORMALIZED FREE ENERGY PREDICTED BY IDOCK:   -5.20 KCAL/MOL
REMARK 922        TOTAL FREE ENERGY PREDICTED BY IDOCK:   -8.09 KCAL/MOL
REMARK 923 INTER-LIGAND FREE ENERGY PREDICTED BY IDOCK:   -7.08 KCAL/MOL
REMARK 924 INTRA-LIGAND FREE ENERGY PREDICTED BY IDOCK:   -1.01 KCAL/MOL
REMARK 927      BINDING AFFINITY PREDICTED BY RF-SCORE:    0.00 PKD
ROOT
HETATM    1  C   UNL     1     -10.886  11.472  63.464  1.00  0.00    -0.473 C  
HETATM    2  C   UNL     1     -12.216  12.174  63.662  1.00  0.00    -0.663 C  
ENDROOT
BRANCH   2   3
HETATM    3  C   UNL     1     -12.007  13.631  64.086  1.00  0.00    -0.488 C  
BRANCH   3   4
HETATM    4  C   UNL     1     -12.763  13.933  65.370  1.00  0.00    -0.490 C  
BRANCH   4   5
HETATM    5  N   UNL     1     -12.335  13.071  66.469  1.00  0.00    -0.401 NA 
HETATM    6  H   UNL     1     -12.635  12.097  66.501  1.00  0.00     0.000 HD 
BRANCH   5   7
HETATM    7  C   UNL     1     -11.517  13.583  67.473  1.00  0.00    -0.329 A  
HETATM    8  C   UNL     1     -10.108  13.624  67.385  1.00  0.00    -0.241 A  
HETATM    9  C   UNL     1     -12.193  15.364  70.743  1.00  0.00    -0.381 C  
HETATM   10  C   UNL     1      -9.383  14.247  68.427  1.00  0.00    -0.208 A  
HETATM   11  O   UNL     1     -11.569  15.385  71.934  1.00  0.00    -0.381 OA 
HETATM   12  O   UNL     1     -13.328  15.780  70.580  1.00  0.00    -0.486 OA 
HETATM   13  C   UNL     1     -10.024  14.821  69.543  1.00  0.00    -0.035 A  
HETATM   14  C   UNL     1     -11.407  14.754  69.641  1.00  0.00    -0.316 A  
HETATM   15  C   UNL     1     -12.126  14.145  68.614  1.00  0.00    -0.320 A  
BRANCH   8  16
HETATM   16  O   UNL     1      -9.396  12.915  66.439  1.00  0.00    -0.243 OA 
BRANCH  16  17
HETATM   17  C   UNL     1      -9.224  11.551  66.493  1.00  0.00    -0.194 A  
HETATM   18  C   UNL     1      -7.613   9.755  66.136  1.00  0.00    -0.101 A  
HETATM   19  C   UNL     1      -8.542   8.823  66.606  1.00  0.00    -0.120 A  
HETATM   20  C   UNL     1     -10.159  10.609  66.912  1.00  0.00    -0.260 A  
HETATM   21  C   UNL     1      -7.953  11.110  66.088  1.00  0.00    -0.090 A  
HETATM   22  C   UNL     1      -9.807   9.253  66.993  1.00  0.00    -0.257 A  
ENDBRANCH  16  17
ENDBRANCH   8  16
BRANCH  10  23
HETATM   23  S   UNL     1      -7.622  14.377  68.356  1.00  0.00    -0.132 S  
HETATM   24  O   UNL     1      -7.229  15.017  67.122  1.00  0.00    -0.177 OA 
HETATM   25  H2  UNL     1      -7.912  15.869  70.264  1.00  0.00     0.000 HD 
HETATM   26  H1  UNL     1      -6.252  15.493  69.572  1.00  0.00     0.000 HD 
HETATM   27  N   UNL     1      -7.268  15.418  69.613  1.00  0.00    -0.193 N  
HETATM   28  O   UNL     1      -7.057  13.105  68.758  1.00  0.00    -0.100 OA 
ENDBRANCH  10  23
ENDBRANCH   5   7
ENDBRANCH   4   5
ENDBRANCH   3   4
ENDBRANCH   2   3
TORSDOF 7
ENDMDL
MODEL       59
REMARK 921   NORMALIZED FREE ENERGY PREDICTED BY IDOCK:   -5.14 KCAL/MOL
REMARK 922        TOTAL FREE ENERGY PREDICTED BY IDOCK:   -8.01 KCAL/MOL
REMARK 923 INTER-LIGAND FREE ENERGY PREDICTED BY IDOCK:   -7.17 KCAL/MOL
REMARK 924 INTRA-LIGAND FREE ENERGY PREDICTED BY IDOCK:   -0.84 KCAL/MOL
REMARK 927      BINDING AFFINITY PREDICTED BY RF-SCORE:    0.00 PKD
ROOT
HETATM    1  C   UNL     1      -7.387  19.855  69.286  1.00  0.00    -0.191 C  
HETATM    2  C   UNL     1      -8.251  18.652  68.958  1.00  0.00    -0.133 C  
ENDROOT
BRANCH   2   3
HETATM    3  C   UNL     1      -9.657  19.087  68.537  1.00  0.00    -0.442 C  
BRANCH   3   4
HETATM    4  C   UNL     1     -10.652  17.952  68.724  1.00  0.00    -0.082 C  
BRANCH   4   5
HETATM    5  N   UNL     1     -10.093  16.865  69.524  1.00  0.00    -0.150 NA 
HETATM    6  H   UNL     1      -9.203  16.991  70.007  1.00  0.00     0.000 HD 
BRANCH   5   7
HETATM    7  C   UNL     1     -10.778  15.658  69.627  1.00  0.00    -0.278 A  
HETATM    8  C   UNL     1     -10.628  14.596  68.708  1.00  0.00    -0.248 A  
HETATM    9  C   UNL     1     -13.088  14.175  72.233  1.00  0.00    -0.423 C  
HETATM   10  C   UNL     1     -11.306  13.381  68.962  1.00  0.00    -0.287 A  
HETATM   11  O   UNL     1     -14.147  13.349  72.171  1.00  0.00    -0.466 OA 
HETATM   12  O   UNL     1     -12.816  14.833  73.224  1.00  0.00    -0.491 OA 
HETATM   13  C   UNL     1     -12.124  13.204  70.096  1.00  0.00    -0.392 A  
HETATM   14  C   UNL     1     -12.292  14.259  70.982  1.00  0.00    -0.431 A  
HETATM   15  C   UNL     1     -11.622  15.456  70.740  1.00  0.00    -0.381 A  
BRANCH   8  16
HETATM   16  O   UNL     1     -10.017  14.748  67.480  1.00  0.00    -0.219 OA 
BRANCH  16  17
HETATM   17  C   UNL     1      -8.750  15.264  67.329  1.00  0.00    -0.197 A  
HETATM   18  C   UNL     1      -7.435  16.937  66.139  1.00  0.00    -0.194 A  
HETATM   19  C   UNL     1      -6.307  16.586  66.884  1.00  0.00    -0.166 A  
HETATM   20  C   UNL     1      -7.608  14.887  68.030  1.00  0.00    -0.128 A  
HETATM   21  C   UNL     1      -8.649  16.283  66.368  1.00  0.00    -0.361 A  
HETATM   22  C   UNL     1      -6.398  15.567  67.826  1.00  0.00    -0.183 A  
ENDBRANCH  16  17
ENDBRANCH   8  16
BRANCH  10  23
HETATM   23  S   UNL     1     -11.123  11.996  67.879  1.00  0.00    -0.256 S  
HETATM   24  O   UNL     1      -9.720  11.730  67.659  1.00  0.00    -0.177 OA 
HETATM   25  H2  UNL     1     -12.148  10.754  69.712  1.00  0.00     0.000 HD 
HETATM   26  H1  UNL     1     -11.647   9.933  68.146  1.00  0.00     0.000 HD 
HETATM   27  N   UNL     1     -11.753  10.732  68.771  1.00  0.00    -0.286 N  
HETATM   28  O   UNL     1     -12.041  12.161  66.771  1.00  0.00    -0.609 OA 
ENDBRANCH  10  23
ENDBRANCH   5   7
ENDBRANCH   4   5
ENDBRANCH   3   4
ENDBRANCH   2   3
TORSDOF 7
ENDMDL
MODEL       60
REMARK 921   NORMALIZED FREE ENERGY PREDICTED BY IDOCK:   -5.12 KCAL/MOL
REMARK 922        TOTAL FREE ENERGY PREDICTED BY IDOCK:   -7.99 KCAL/MOL
REMARK 923 INTER-LIGAND FREE ENERGY PREDICTED BY IDOCK:   -6.67 KCAL/MOL
REMARK 924 INTRA-LIGAND FREE ENERGY PREDICTED BY IDOCK:   -1.32 KCAL/MOL
REMARK 927      BINDING AFFINITY PREDICTED BY RF-SCORE:    0.00 PKD
ROOT
HETATM    1  C   UNL     1     -14.246   8.072  71.545  1.00  0.00    -0.513 C  
HETATM    2  C   UNL     1     -13.714   9.276  72.301  1.00  0.00    -0.527 C  
ENDROOT
BRANCH   2   3
HETATM    3  C   UNL     1     -12.398   9.766  71.690  1.00  0.00    -0.495 C  
BRANCH   3   4
HETATM    4  C   UNL     1     -12.648  10.900  70.708  1.00  0.00    -0.377 C  
BRANCH   4   5
HETATM    5  N   UNL     1     -12.405  10.489  69.328  1.00  0.00    -0.711 NA 
HETATM    6  H   UNL     1     -13.067   9.874  68.853  1.00  0.00     0.000 HD 
BRANCH   5   7
HETATM    7  C   UNL     1     -11.268  10.937  68.661  1.00  0.00    -0.267 A  
HETATM    8  C   UNL     1     -10.439  10.099  67.883  1.00  0.00    -0.222 A  
HETATM    9  C   UNL     1      -9.733  14.353  68.116  1.00  0.00    -0.223 C  
HETATM   10  C   UNL     1      -9.361  10.680  67.177  1.00  0.00    -0.155 A  
HETATM   11  O   UNL     1      -8.468  14.792  67.993  1.00  0.00    -0.141 OA 
HETATM   12  O   UNL     1     -10.677  15.097  68.324  1.00  0.00    -0.241 OA 
HETATM   13  C   UNL     1      -9.091  12.063  67.231  1.00  0.00    -0.178 A  
HETATM   14  C   UNL     1      -9.890  12.879  68.019  1.00  0.00    -0.223 A  
HETATM   15  C   UNL     1     -10.957  12.312  68.713  1.00  0.00    -0.277 A  
BRANCH   8  16
HETATM   16  O   UNL     1     -10.507   8.721  67.935  1.00  0.00    -0.229 OA 
BRANCH  16  17
HETATM   17  C   UNL     1     -10.257   7.999  69.080  1.00  0.00    -0.210 A  
HETATM   18  C   UNL     1     -10.833   5.958  70.284  1.00  0.00    -0.391 A  
HETATM   19  C   UNL     1      -9.879   6.259  71.259  1.00  0.00    -0.197 A  
HETATM   20  C   UNL     1      -9.344   8.314  70.082  1.00  0.00    -0.159 A  
HETATM   21  C   UNL     1     -11.013   6.821  69.200  1.00  0.00    -0.290 A  
HETATM   22  C   UNL     1      -9.138   7.432  71.153  1.00  0.00    -0.148 A  
ENDBRANCH  16  17
ENDBRANCH   8  16
BRANCH  10  23
HETATM   23  S   UNL     1      -8.315   9.697  66.146  1.00  0.00    -0.121 S  
HETATM   24  O   UNL     1      -9.049   9.258  64.982  1.00  0.00    -0.217 OA 
HETATM   25  H2  UNL     1      -7.063  11.773  65.874  1.00  0.00     0.000 HD 
HETATM   26  H1  UNL     1      -6.547  10.215  65.048  1.00  0.00     0.000 HD 
HETATM   27  N   UNL     1      -7.150  10.783  65.643  1.00  0.00    -0.073 N  
HETATM   28  O   UNL     1      -7.604   8.755  66.987  1.00  0.00    -0.087 OA 
ENDBRANCH  10  23
ENDBRANCH   5   7
ENDBRANCH   4   5
ENDBRANCH   3   4
ENDBRANCH   2   3
TORSDOF 7
ENDMDL
MODEL       61
REMARK 921   NORMALIZED FREE ENERGY PREDICTED BY IDOCK:   -5.12 KCAL/MOL
REMARK 922        TOTAL FREE ENERGY PREDICTED BY IDOCK:   -7.98 KCAL/MOL
REMARK 923 INTER-LIGAND FREE ENERGY PREDICTED BY IDOCK:   -6.94 KCAL/MOL
REMARK 924 INTRA-LIGAND FREE ENERGY PREDICTED BY IDOCK:   -1.04 KCAL/MOL
REMARK 927      BINDING AFFINITY PREDICTED BY RF-SCORE:    0.00 PKD
ROOT
HETATM    1  C   UNL     1      -6.898  13.220  68.091  1.00  0.00    -0.114 C  
HETATM    2  C   UNL     1      -8.102  13.182  67.168  1.00  0.00    -0.107 C  
ENDROOT
BRANCH   2   3
HETATM    3  C   UNL     1      -9.161  12.207  67.692  1.00  0.00    -0.181 C  
BRANCH   3   4
HETATM    4  C   UNL     1     -10.246  11.979  66.651  1.00  0.00    -0.204 C  
BRANCH   4   5
HETATM    5  N   UNL     1     -11.581  12.217  67.194  1.00  0.00    -0.455 NA 
HETATM    6  H   UNL     1     -12.348  12.470  66.571  1.00  0.00     0.000 HD 
BRANCH   5   7
HETATM    7  C   UNL     1     -11.804  12.097  68.563  1.00  0.00    -0.310 A  
HETATM    8  C   UNL     1     -12.256  13.161  69.375  1.00  0.00    -0.137 A  
HETATM    9  C   UNL     1     -11.733   9.185  70.980  1.00  0.00    -0.301 C  
HETATM   10  C   UNL     1     -12.534  12.902  70.737  1.00  0.00    -0.286 A  
HETATM   11  O   UNL     1     -11.402   9.066  72.277  1.00  0.00    -0.312 OA 
HETATM   12  O   UNL     1     -11.857   8.228  70.234  1.00  0.00    -0.011 OA 
HETATM   13  C   UNL     1     -12.370  11.620  71.302  1.00  0.00    -0.286 A  
HETATM   14  C   UNL     1     -11.898  10.584  70.509  1.00  0.00    -0.442 A  
HETATM   15  C   UNL     1     -11.628  10.834  69.165  1.00  0.00    -0.376 A  
BRANCH   8  16
HETATM   16  O   UNL     1     -12.249  14.477  68.958  1.00  0.00    -0.275 OA 
BRANCH  16  17
HETATM   17  C   UNL     1     -11.094  15.177  68.695  1.00  0.00    -0.271 A  
HETATM   18  C   UNL     1      -9.929  16.487  67.000  1.00  0.00    -0.268 A  
HETATM   19  C   UNL     1      -8.900  16.753  67.907  1.00  0.00    -0.218 A  
HETATM   20  C   UNL     1     -10.039  15.406  69.575  1.00  0.00    -0.278 A  
HETATM   21  C   UNL     1     -11.020  15.709  67.398  1.00  0.00    -0.293 A  
HETATM   22  C   UNL     1      -8.961  16.215  69.188  1.00  0.00    -0.237 A  
ENDBRANCH  16  17
ENDBRANCH   8  16
BRANCH  10  23
HETATM   23  S   UNL     1     -13.149  14.175  71.796  1.00  0.00    -0.381 S  
HETATM   24  O   UNL     1     -12.052  14.975  72.288  1.00  0.00    -0.345 OA 
HETATM   25  H2  UNL     1     -14.215  14.997  69.762  1.00  0.00     0.000 HD 
HETATM   26  H1  UNL     1     -14.411  15.858  71.373  1.00  0.00     0.000 HD 
HETATM   27  N   UNL     1     -14.056  15.123  70.762  1.00  0.00    -0.093 N  
HETATM   28  O   UNL     1     -14.116  13.586  72.701  1.00  0.00    -0.762 OA 
ENDBRANCH  10  23
ENDBRANCH   5   7
ENDBRANCH   4   5
ENDBRANCH   3   4
ENDBRANCH   2   3
TORSDOF 7
ENDMDL
MODEL       62
REMARK 921   NORMALIZED FREE ENERGY PREDICTED BY IDOCK:   -5.02 KCAL/MOL
REMARK 922        TOTAL FREE ENERGY PREDICTED BY IDOCK:   -7.84 KCAL/MOL
REMARK 923 INTER-LIGAND FREE ENERGY PREDICTED BY IDOCK:   -6.45 KCAL/MOL
REMARK 924 INTRA-LIGAND FREE ENERGY PREDICTED BY IDOCK:   -1.39 KCAL/MOL
REMARK 927      BINDING AFFINITY PREDICTED BY RF-SCORE:    0.00 PKD
ROOT
HETATM    1  C   UNL     1     -13.389  10.536  71.715  1.00  0.00    -0.446 C  
HETATM    2  C   UNL     1     -12.071  10.925  71.071  1.00  0.00    -0.425 C  
ENDROOT
BRANCH   2   3
HETATM    3  C   UNL     1     -12.256  12.115  70.124  1.00  0.00    -0.308 C  
BRANCH   3   4
HETATM    4  C   UNL     1     -11.844  11.746  68.708  1.00  0.00    -0.320 C  
BRANCH   4   5
HETATM    5  N   UNL     1     -11.883  10.303  68.488  1.00  0.00    -0.710 NA 
HETATM    6  H   UNL     1     -12.574   9.730  68.973  1.00  0.00     0.000 HD 
BRANCH   5   7
HETATM    7  C   UNL     1     -10.975   9.710  67.615  1.00  0.00    -0.124 A  
HETATM    8  C   UNL     1     -10.616   8.345  67.672  1.00  0.00    -0.195 A  
HETATM    9  C   UNL     1      -9.133  10.920  64.538  1.00  0.00    -0.163 C  
HETATM   10  C   UNL     1      -9.752   7.830  66.677  1.00  0.00    -0.222 A  
HETATM   11  O   UNL     1      -7.926  10.647  64.013  1.00  0.00    -0.051 OA 
HETATM   12  O   UNL     1      -9.806  11.878  64.194  1.00  0.00    -0.259 OA 
HETATM   13  C   UNL     1      -9.240   8.638  65.642  1.00  0.00    -0.204 A  
HETATM   14  C   UNL     1      -9.571   9.985  65.605  1.00  0.00    -0.313 A  
HETATM   15  C   UNL     1     -10.427  10.496  66.579  1.00  0.00    -0.276 A  
BRANCH   8  16
HETATM   16  O   UNL     1     -10.905   7.539  68.754  1.00  0.00    -0.140 OA 
BRANCH  16  17
HETATM   17  C   UNL     1     -10.429   7.784  70.022  1.00  0.00    -0.230 A  
HETATM   18  C   UNL     1     -10.962   7.596  72.394  1.00  0.00    -0.353 A  
HETATM   19  C   UNL     1      -9.689   8.068  72.722  1.00  0.00    -0.348 A  
HETATM   20  C   UNL     1      -9.181   8.301  70.359  1.00  0.00    -0.153 A  
HETATM   21  C   UNL     1     -11.324   7.450  71.052  1.00  0.00    -0.298 A  
HETATM   22  C   UNL     1      -8.805   8.415  71.705  1.00  0.00    -0.257 A  
ENDBRANCH  16  17
ENDBRANCH   8  16
BRANCH  10  23
HETATM   23  S   UNL     1      -9.303   6.121  66.661  1.00  0.00    -0.148 S  
HETATM   24  O   UNL     1     -10.491   5.305  66.561  1.00  0.00    -0.254 OA 
HETATM   25  H2  UNL     1      -8.239   6.686  64.540  1.00  0.00     0.000 HD 
HETATM   26  H1  UNL     1      -8.191   4.981  65.224  1.00  0.00     0.000 HD 
HETATM   27  N   UNL     1      -8.450   5.967  65.233  1.00  0.00    -0.148 N  
HETATM   28  O   UNL     1      -8.323   5.899  67.704  1.00  0.00    -0.105 OA 
ENDBRANCH  10  23
ENDBRANCH   5   7
ENDBRANCH   4   5
ENDBRANCH   3   4
ENDBRANCH   2   3
TORSDOF 7
ENDMDL
MODEL       63
REMARK 921   NORMALIZED FREE ENERGY PREDICTED BY IDOCK:   -5.01 KCAL/MOL
REMARK 922        TOTAL FREE ENERGY PREDICTED BY IDOCK:   -7.83 KCAL/MOL
REMARK 923 INTER-LIGAND FREE ENERGY PREDICTED BY IDOCK:   -7.07 KCAL/MOL
REMARK 924 INTRA-LIGAND FREE ENERGY PREDICTED BY IDOCK:   -0.75 KCAL/MOL
REMARK 927      BINDING AFFINITY PREDICTED BY RF-SCORE:    0.00 PKD
ROOT
HETATM    1  C   UNL     1      -7.501  10.190  67.298  1.00  0.00    -0.091 C  
HETATM    2  C   UNL     1      -6.573  11.299  66.837  1.00  0.00    -0.130 C  
ENDROOT
BRANCH   2   3
HETATM    3  C   UNL     1      -6.393  12.352  67.935  1.00  0.00    -0.096 C  
BRANCH   3   4
HETATM    4  C   UNL     1      -6.874  13.714  67.461  1.00  0.00    -0.137 C  
BRANCH   4   5
HETATM    5  N   UNL     1      -8.099  14.125  68.141  1.00  0.00    -0.137 NA 
HETATM    6  H   UNL     1      -8.063  14.832  68.877  1.00  0.00     0.000 HD 
BRANCH   5   7
HETATM    7  C   UNL     1      -9.317  13.552  67.785  1.00  0.00    -0.213 A  
HETATM    8  C   UNL     1      -9.978  13.822  66.566  1.00  0.00    -0.288 A  
HETATM    9  C   UNL     1     -11.515  10.898  69.349  1.00  0.00    -0.302 C  
HETATM   10  C   UNL     1     -11.166  13.114  66.270  1.00  0.00    -0.301 A  
HETATM   11  O   UNL     1     -12.845  10.702  69.390  1.00  0.00    -0.144 OA 
HETATM   12  O   UNL     1     -10.734  10.316  70.083  1.00  0.00    -0.280 OA 
HETATM   13  C   UNL     1     -11.705  12.157  67.154  1.00  0.00    -0.372 A  
HETATM   14  C   UNL     1     -11.069  11.915  68.363  1.00  0.00    -0.292 A  
HETATM   15  C   UNL     1      -9.895  12.606  68.657  1.00  0.00    -0.077 A  
BRANCH   8  16
HETATM   16  O   UNL     1      -9.636  14.877  65.745  1.00  0.00    -0.326 OA 
BRANCH  16  17
HETATM   17  C   UNL     1      -9.574  16.180  66.182  1.00  0.00    -0.327 A  
HETATM   18  C   UNL     1      -8.122  18.131  66.356  1.00  0.00    -0.291 A  
HETATM   19  C   UNL     1      -9.182  18.879  66.876  1.00  0.00    -0.322 A  
HETATM   20  C   UNL     1     -10.610  16.920  66.747  1.00  0.00    -0.201 A  
HETATM   21  C   UNL     1      -8.323  16.793  66.007  1.00  0.00    -0.187 A  
HETATM   22  C   UNL     1     -10.419  18.272  67.066  1.00  0.00    -0.407 A  
ENDBRANCH  16  17
ENDBRANCH   8  16
BRANCH  10  23
HETATM   23  S   UNL     1     -12.016  13.366  64.741  1.00  0.00    -0.414 S  
HETATM   24  O   UNL     1     -12.118  14.780  64.467  1.00  0.00    -0.461 OA 
HETATM   25  H2  UNL     1     -10.076  12.248  63.774  1.00  0.00     0.000 HD 
HETATM   26  H1  UNL     1     -11.470  12.841  62.735  1.00  0.00     0.000 HD 
HETATM   27  N   UNL     1     -10.980  12.695  63.616  1.00  0.00    -0.437 N  
HETATM   28  O   UNL     1     -13.185  12.510  64.725  1.00  0.00    -0.839 OA 
ENDBRANCH  10  23
ENDBRANCH   5   7
ENDBRANCH   4   5
ENDBRANCH   3   4
ENDBRANCH   2   3
TORSDOF 7
ENDMDL
MODEL       64
REMARK 921   NORMALIZED FREE ENERGY PREDICTED BY IDOCK:   -5.00 KCAL/MOL
REMARK 922        TOTAL FREE ENERGY PREDICTED BY IDOCK:   -7.82 KCAL/MOL
REMARK 923 INTER-LIGAND FREE ENERGY PREDICTED BY IDOCK:   -7.04 KCAL/MOL
REMARK 924 INTRA-LIGAND FREE ENERGY PREDICTED BY IDOCK:   -0.78 KCAL/MOL
REMARK 927      BINDING AFFINITY PREDICTED BY RF-SCORE:    0.00 PKD
ROOT
HETATM    1  C   UNL     1     -10.618   9.196  71.630  1.00  0.00    -0.427 C  
HETATM    2  C   UNL     1     -12.133   9.255  71.578  1.00  0.00    -0.435 C  
ENDROOT
BRANCH   2   3
HETATM    3  C   UNL     1     -12.609  10.595  71.010  1.00  0.00    -0.516 C  
BRANCH   3   4
HETATM    4  C   UNL     1     -11.653  11.096  69.938  1.00  0.00    -0.337 C  
BRANCH   4   5
HETATM    5  N   UNL     1     -11.799  10.353  68.689  1.00  0.00    -0.707 NA 
HETATM    6  H   UNL     1     -12.281   9.454  68.682  1.00  0.00     0.000 HD 
BRANCH   5   7
HETATM    7  C   UNL     1     -11.279  10.876  67.507  1.00  0.00    -0.293 A  
HETATM    8  C   UNL     1     -10.196  10.298  66.810  1.00  0.00    -0.228 A  
HETATM    9  C   UNL     1     -12.316  13.710  65.223  1.00  0.00    -0.465 C  
HETATM   10  C   UNL     1      -9.809  10.863  65.572  1.00  0.00    -0.246 A  
HETATM   11  O   UNL     1     -11.635  14.575  64.452  1.00  0.00    -0.369 OA 
HETATM   12  O   UNL     1     -13.489  13.865  65.520  1.00  0.00    -0.657 OA 
HETATM   13  C   UNL     1     -10.470  11.980  65.022  1.00  0.00    -0.327 A  
HETATM   14  C   UNL     1     -11.516  12.563  65.724  1.00  0.00    -0.407 A  
HETATM   15  C   UNL     1     -11.904  12.007  66.941  1.00  0.00    -0.250 A  
BRANCH   8  16
HETATM   16  O   UNL     1      -9.372   9.341  67.366  1.00  0.00    -0.126 OA 
BRANCH  16  17
HETATM   17  C   UNL     1      -8.499   9.606  68.396  1.00  0.00    -0.118 A  
HETATM   18  C   UNL     1      -7.176   8.579  70.168  1.00  0.00    -0.051 A  
HETATM   19  C   UNL     1      -6.629   9.824  70.488  1.00  0.00    -0.117 A  
HETATM   20  C   UNL     1      -7.987  10.849  68.756  1.00  0.00    -0.139 A  
HETATM   21  C   UNL     1      -8.099   8.474  69.124  1.00  0.00    -0.117 A  
HETATM   22  C   UNL     1      -7.034  10.951  69.781  1.00  0.00    -0.121 A  
ENDBRANCH  16  17
ENDBRANCH   8  16
BRANCH  10  23
HETATM   23  S   UNL     1      -8.494  10.160  64.625  1.00  0.00    -0.181 S  
HETATM   24  O   UNL     1      -7.228  10.446  65.258  1.00  0.00    -0.143 OA 
HETATM   25  H2  UNL     1      -9.522   8.038  65.250  1.00  0.00     0.000 HD 
HETATM   26  H1  UNL     1      -8.015   8.112  64.202  1.00  0.00     0.000 HD 
HETATM   27  N   UNL     1      -8.774   8.517  64.749  1.00  0.00    -0.086 N  
HETATM   28  O   UNL     1      -8.725  10.470  63.228  1.00  0.00    -0.174 OA 
ENDBRANCH  10  23
ENDBRANCH   5   7
ENDBRANCH   4   5
ENDBRANCH   3   4
ENDBRANCH   2   3
TORSDOF 7
ENDMDL
MODEL       65
REMARK 921   NORMALIZED FREE ENERGY PREDICTED BY IDOCK:   -5.00 KCAL/MOL
REMARK 922        TOTAL FREE ENERGY PREDICTED BY IDOCK:   -7.82 KCAL/MOL
REMARK 923 INTER-LIGAND FREE ENERGY PREDICTED BY IDOCK:   -6.97 KCAL/MOL
REMARK 924 INTRA-LIGAND FREE ENERGY PREDICTED BY IDOCK:   -0.85 KCAL/MOL
REMARK 927      BINDING AFFINITY PREDICTED BY RF-SCORE:    0.00 PKD
ROOT
HETATM    1  C   UNL     1     -11.365  11.761  63.485  1.00  0.00    -0.496 C  
HETATM    2  C   UNL     1     -11.788  13.204  63.282  1.00  0.00    -0.371 C  
ENDROOT
BRANCH   2   3
HETATM    3  C   UNL     1     -12.391  13.783  64.566  1.00  0.00    -0.399 C  
BRANCH   3   4
HETATM    4  C   UNL     1     -12.105  12.876  65.752  1.00  0.00    -0.457 C  
BRANCH   4   5
HETATM    5  N   UNL     1     -11.862  13.638  66.974  1.00  0.00    -0.388 NA 
HETATM    6  H   UNL     1     -12.525  13.588  67.748  1.00  0.00     0.000 HD 
BRANCH   5   7
HETATM    7  C   UNL     1     -10.724  14.433  67.081  1.00  0.00    -0.283 A  
HETATM    8  C   UNL     1      -9.479  13.955  67.545  1.00  0.00    -0.216 A  
HETATM    9  C   UNL     1      -9.920  17.995  66.085  1.00  0.00    -0.285 C  
HETATM   10  C   UNL     1      -8.368  14.829  67.527  1.00  0.00    -0.183 A  
HETATM   11  O   UNL     1      -9.125  18.946  66.605  1.00  0.00    -0.308 OA 
HETATM   12  O   UNL     1     -10.778  18.230  65.250  1.00  0.00    -0.605 OA 
HETATM   13  C   UNL     1      -8.471  16.157  67.065  1.00  0.00    -0.238 A  
HETATM   14  C   UNL     1      -9.702  16.634  66.637  1.00  0.00    -0.280 A  
HETATM   15  C   UNL     1     -10.798  15.774  66.647  1.00  0.00    -0.241 A  
BRANCH   8  16
HETATM   16  O   UNL     1      -9.337  12.747  68.197  1.00  0.00    -0.206 OA 
BRANCH  16  17
HETATM   17  C   UNL     1      -9.569  11.533  67.591  1.00  0.00    -0.171 A  
HETATM   18  C   UNL     1      -8.932  10.120  65.709  1.00  0.00    -0.187 A  
HETATM   19  C   UNL     1      -9.749   9.096  66.195  1.00  0.00    -0.357 A  
HETATM   20  C   UNL     1     -10.419  10.526  68.040  1.00  0.00    -0.232 A  
HETATM   21  C   UNL     1      -8.840  11.326  66.409  1.00  0.00    -0.184 A  
HETATM   22  C   UNL     1     -10.486   9.303  67.357  1.00  0.00    -0.340 A  
ENDBRANCH  16  17
ENDBRANCH   8  16
BRANCH  10  23
HETATM   23  S   UNL     1      -6.771  14.279  68.046  1.00  0.00    -0.165 S  
HETATM   24  O   UNL     1      -6.220  13.379  67.061  1.00  0.00    -0.131 OA 
HETATM   25  H2  UNL     1      -6.160  16.626  67.780  1.00  0.00     0.000 HD 
HETATM   26  H1  UNL     1      -4.942  15.364  68.329  1.00  0.00     0.000 HD 
HETATM   27  N   UNL     1      -5.864  15.682  68.029  1.00  0.00    -0.129 N  
HETATM   28  O   UNL     1      -6.852  13.908  69.445  1.00  0.00    -0.114 OA 
ENDBRANCH  10  23
ENDBRANCH   5   7
ENDBRANCH   4   5
ENDBRANCH   3   4
ENDBRANCH   2   3
TORSDOF 7
ENDMDL
MODEL       66
REMARK 921   NORMALIZED FREE ENERGY PREDICTED BY IDOCK:   -4.99 KCAL/MOL
REMARK 922        TOTAL FREE ENERGY PREDICTED BY IDOCK:   -7.80 KCAL/MOL
REMARK 923 INTER-LIGAND FREE ENERGY PREDICTED BY IDOCK:   -6.80 KCAL/MOL
REMARK 924 INTRA-LIGAND FREE ENERGY PREDICTED BY IDOCK:   -1.00 KCAL/MOL
REMARK 927      BINDING AFFINITY PREDICTED BY RF-SCORE:    0.00 PKD
ROOT
HETATM    1  C   UNL     1     -10.733   9.673  66.935  1.00  0.00    -0.185 C  
HETATM    2  C   UNL     1      -9.707  10.453  67.737  1.00  0.00    -0.181 C  
ENDROOT
BRANCH   2   3
HETATM    3  C   UNL     1      -8.308  10.297  67.133  1.00  0.00    -0.122 C  
BRANCH   3   4
HETATM    4  C   UNL     1      -7.480  11.552  67.360  1.00  0.00    -0.127 C  
BRANCH   4   5
HETATM    5  N   UNL     1      -8.100  12.730  66.757  1.00  0.00    -0.404 NA 
HETATM    6  H   UNL     1      -8.645  12.638  65.900  1.00  0.00     0.000 HD 
BRANCH   5   7
HETATM    7  C   UNL     1      -7.946  13.977  67.356  1.00  0.00    -0.175 A  
HETATM    8  C   UNL     1      -8.661  15.127  66.956  1.00  0.00    -0.237 A  
HETATM    9  C   UNL     1      -6.005  15.214  70.361  1.00  0.00    -0.115 C  
HETATM   10  C   UNL     1      -8.490  16.322  67.694  1.00  0.00    -0.168 A  
HETATM   11  O   UNL     1      -5.390  16.373  70.654  1.00  0.00    -0.185 OA 
HETATM   12  O   UNL     1      -5.819  14.185  70.989  1.00  0.00    -0.196 OA 
HETATM   13  C   UNL     1      -7.627  16.394  68.807  1.00  0.00    -0.211 A  
HETATM   14  C   UNL     1      -6.904  15.270  69.180  1.00  0.00    -0.138 A  
HETATM   15  C   UNL     1      -7.074  14.090  68.459  1.00  0.00    -0.102 A  
BRANCH   8  16
HETATM   16  O   UNL     1      -9.362  15.199  65.769  1.00  0.00    -0.310 OA 
BRANCH  16  17
HETATM   17  C   UNL     1     -10.501  14.468  65.523  1.00  0.00    -0.356 A  
HETATM   18  C   UNL     1     -11.472  12.763  64.075  1.00  0.00    -0.476 A  
HETATM   19  C   UNL     1     -12.636  12.763  64.848  1.00  0.00    -0.541 A  
HETATM   20  C   UNL     1     -11.685  14.497  66.256  1.00  0.00    -0.364 A  
HETATM   21  C   UNL     1     -10.411  13.606  64.418  1.00  0.00    -0.322 A  
HETATM   22  C   UNL     1     -12.736  13.626  65.934  1.00  0.00    -0.428 A  
ENDBRANCH  16  17
ENDBRANCH   8  16
BRANCH  10  23
HETATM   23  S   UNL     1      -9.392  17.783  67.278  1.00  0.00    -0.258 S  
HETATM   24  O   UNL     1     -10.781  17.619  67.637  1.00  0.00    -0.374 OA 
HETATM   25  H2  UNL     1      -7.986  18.825  68.978  1.00  0.00     0.000 HD 
HETATM   26  H1  UNL     1      -9.250  19.780  68.049  1.00  0.00     0.000 HD 
HETATM   27  N   UNL     1      -8.730  18.937  68.289  1.00  0.00    -0.321 N  
HETATM   28  O   UNL     1      -9.002  18.193  65.944  1.00  0.00    -0.503 OA 
ENDBRANCH  10  23
ENDBRANCH   5   7
ENDBRANCH   4   5
ENDBRANCH   3   4
ENDBRANCH   2   3
TORSDOF 7
ENDMDL
MODEL       67
REMARK 921   NORMALIZED FREE ENERGY PREDICTED BY IDOCK:   -4.94 KCAL/MOL
REMARK 922        TOTAL FREE ENERGY PREDICTED BY IDOCK:   -7.73 KCAL/MOL
REMARK 923 INTER-LIGAND FREE ENERGY PREDICTED BY IDOCK:   -7.99 KCAL/MOL
REMARK 924 INTRA-LIGAND FREE ENERGY PREDICTED BY IDOCK:    0.26 KCAL/MOL
REMARK 927      BINDING AFFINITY PREDICTED BY RF-SCORE:    0.00 PKD
ROOT
HETATM    1  C   UNL     1      -8.190   7.471  67.279  1.00  0.00    -0.115 C  
HETATM    2  C   UNL     1      -9.376   8.223  66.703  1.00  0.00    -0.246 C  
ENDROOT
BRANCH   2   3
HETATM    3  C   UNL     1     -10.144   8.959  67.806  1.00  0.00    -0.263 C  
BRANCH   3   4
HETATM    4  C   UNL     1     -10.822  10.202  67.252  1.00  0.00    -0.230 C  
BRANCH   4   5
HETATM    5  N   UNL     1     -11.885  10.680  68.134  1.00  0.00    -0.788 NA 
HETATM    6  H   UNL     1     -12.634  10.050  68.419  1.00  0.00     0.000 HD 
BRANCH   5   7
HETATM    7  C   UNL     1     -11.872  11.997  68.584  1.00  0.00    -0.311 A  
HETATM    8  C   UNL     1     -12.344  12.391  69.855  1.00  0.00    -0.048 A  
HETATM    9  C   UNL     1     -10.487  15.228  67.180  1.00  0.00    -0.280 C  
HETATM   10  C   UNL     1     -12.200  13.744  70.241  1.00  0.00    -0.359 A  
HETATM   11  O   UNL     1     -10.881  16.512  67.247  1.00  0.00    -0.280 OA 
HETATM   12  O   UNL     1      -9.660  14.826  66.378  1.00  0.00    -0.268 OA 
HETATM   13  C   UNL     1     -11.607  14.703  69.396  1.00  0.00    -0.342 A  
HETATM   14  C   UNL     1     -11.170  14.319  68.136  1.00  0.00    -0.295 A  
HETATM   15  C   UNL     1     -11.305  12.986  67.753  1.00  0.00    -0.333 A  
BRANCH   8  16
HETATM   16  O   UNL     1     -13.114  11.571  70.656  1.00  0.00    -0.036 OA 
BRANCH  16  17
HETATM   17  C   UNL     1     -12.628  10.428  71.248  1.00  0.00    -0.419 A  
HETATM   18  C   UNL     1     -13.266   8.446  72.517  1.00  0.00    -0.187 A  
HETATM   19  C   UNL     1     -11.952   7.977  72.454  1.00  0.00    -0.405 A  
HETATM   20  C   UNL     1     -11.312   9.976  71.234  1.00  0.00    -0.336 A  
HETATM   21  C   UNL     1     -13.600   9.660  71.911  1.00  0.00    -0.446 A  
HETATM   22  C   UNL     1     -10.983   8.741  71.812  1.00  0.00    -0.415 A  
ENDBRANCH  16  17
ENDBRANCH   8  16
BRANCH  10  23
HETATM   23  S   UNL     1     -12.724  14.293  71.837  1.00  0.00    -0.325 S  
HETATM   24  O   UNL     1     -11.593  14.812  72.571  1.00  0.00    -0.204 OA 
HETATM   25  H2  UNL     1     -13.997  15.943  70.569  1.00  0.00     0.000 HD 
HETATM   26  H1  UNL     1     -14.043  15.887  72.405  1.00  0.00     0.000 HD 
HETATM   27  N   UNL     1     -13.741  15.570  71.484  1.00  0.00    -0.494 N  
HETATM   28  O   UNL     1     -13.588  13.278  72.406  1.00  0.00    -0.564 OA 
ENDBRANCH  10  23
ENDBRANCH   5   7
ENDBRANCH   4   5
ENDBRANCH   3   4
ENDBRANCH   2   3
TORSDOF 7
ENDMDL
MODEL       68
REMARK 921   NORMALIZED FREE ENERGY PREDICTED BY IDOCK:   -4.94 KCAL/MOL
REMARK 922        TOTAL FREE ENERGY PREDICTED BY IDOCK:   -7.72 KCAL/MOL
REMARK 923 INTER-LIGAND FREE ENERGY PREDICTED BY IDOCK:   -6.18 KCAL/MOL
REMARK 924 INTRA-LIGAND FREE ENERGY PREDICTED BY IDOCK:   -1.54 KCAL/MOL
REMARK 927      BINDING AFFINITY PREDICTED BY RF-SCORE:    0.00 PKD
ROOT
HETATM    1  C   UNL     1      -7.959   6.235  67.299  1.00  0.00    -0.109 C  
HETATM    2  C   UNL     1      -9.031   6.909  66.462  1.00  0.00    -0.166 C  
ENDROOT
BRANCH   2   3
HETATM    3  C   UNL     1      -9.758   7.987  67.272  1.00  0.00    -0.232 C  
BRANCH   3   4
HETATM    4  C   UNL     1     -10.185   9.138  66.376  1.00  0.00    -0.230 C  
BRANCH   4   5
HETATM    5  N   UNL     1     -10.833  10.206  67.133  1.00  0.00    -0.229 NA 
HETATM    6  H   UNL     1     -11.387   9.983  67.960  1.00  0.00     0.000 HD 
BRANCH   5   7
HETATM    7  C   UNL     1     -10.692  11.530  66.724  1.00  0.00    -0.270 A  
HETATM    8  C   UNL     1      -9.731  12.414  67.263  1.00  0.00    -0.201 A  
HETATM    9  C   UNL     1     -12.283  13.606  63.989  1.00  0.00    -0.390 C  
HETATM   10  C   UNL     1      -9.618  13.710  66.709  1.00  0.00    -0.275 A  
HETATM   11  O   UNL     1     -12.611  14.906  63.884  1.00  0.00    -0.831 OA 
HETATM   12  O   UNL     1     -12.700  12.750  63.226  1.00  0.00    -0.662 OA 
HETATM   13  C   UNL     1     -10.436  14.141  65.645  1.00  0.00    -0.333 A  
HETATM   14  C   UNL     1     -11.399  13.281  65.137  1.00  0.00    -0.318 A  
HETATM   15  C   UNL     1     -11.510  12.000  65.676  1.00  0.00    -0.372 A  
BRANCH   8  16
HETATM   16  O   UNL     1      -9.036  12.147  68.425  1.00  0.00    -0.191 OA 
BRANCH  16  17
HETATM   17  C   UNL     1      -8.063  11.179  68.515  1.00  0.00    -0.146 A  
HETATM   18  C   UNL     1      -7.239   9.338  69.886  1.00  0.00    -0.071 A  
HETATM   19  C   UNL     1      -6.274   9.045  68.919  1.00  0.00    -0.044 A  
HETATM   20  C   UNL     1      -7.066  10.909  67.581  1.00  0.00    -0.087 A  
HETATM   21  C   UNL     1      -8.130  10.395  69.678  1.00  0.00    -0.116 A  
HETATM   22  C   UNL     1      -6.194   9.828  67.773  1.00  0.00    -0.052 A  
ENDBRANCH  16  17
ENDBRANCH   8  16
BRANCH  10  23
HETATM   23  S   UNL     1      -8.403  14.848  67.302  1.00  0.00    -0.222 S  
HETATM   24  O   UNL     1      -7.082  14.306  67.091  1.00  0.00    -0.133 OA 
HETATM   25  H2  UNL     1      -9.245  16.280  65.515  1.00  0.00     0.000 HD 
HETATM   26  H1  UNL     1      -7.889  16.820  66.631  1.00  0.00     0.000 HD 
HETATM   27  N   UNL     1      -8.590  16.163  66.288  1.00  0.00    -0.330 N  
HETATM   28  O   UNL     1      -8.824  15.323  68.605  1.00  0.00    -0.169 OA 
ENDBRANCH  10  23
ENDBRANCH   5   7
ENDBRANCH   4   5
ENDBRANCH   3   4
ENDBRANCH   2   3
TORSDOF 7
ENDMDL
MODEL       69
REMARK 921   NORMALIZED FREE ENERGY PREDICTED BY IDOCK:   -4.93 KCAL/MOL
REMARK 922        TOTAL FREE ENERGY PREDICTED BY IDOCK:   -7.72 KCAL/MOL
REMARK 923 INTER-LIGAND FREE ENERGY PREDICTED BY IDOCK:   -6.65 KCAL/MOL
REMARK 924 INTRA-LIGAND FREE ENERGY PREDICTED BY IDOCK:   -1.07 KCAL/MOL
REMARK 927      BINDING AFFINITY PREDICTED BY RF-SCORE:    0.00 PKD
ROOT
HETATM    1  C   UNL     1      -8.590   7.474  65.792  1.00  0.00    -0.158 C  
HETATM    2  C   UNL     1      -9.333   8.722  66.230  1.00  0.00    -0.283 C  
ENDROOT
BRANCH   2   3
HETATM    3  C   UNL     1     -10.625   8.358  66.968  1.00  0.00    -0.316 C  
BRANCH   3   4
HETATM    4  C   UNL     1     -10.888   6.862  66.888  1.00  0.00    -0.310 C  
BRANCH   4   5
HETATM    5  N   UNL     1     -11.459   6.343  68.129  1.00  0.00    -0.551 NA 
HETATM    6  H   UNL     1     -12.471   6.262  68.231  1.00  0.00     0.000 HD 
BRANCH   5   7
HETATM    7  C   UNL     1     -10.620   5.959  69.171  1.00  0.00    -0.299 A  
HETATM    8  C   UNL     1     -11.007   5.974  70.529  1.00  0.00    -0.319 A  
HETATM    9  C   UNL     1      -7.155   4.443  69.315  1.00  0.00    -0.051 C  
HETATM   10  C   UNL     1     -10.102   5.477  71.496  1.00  0.00    -0.205 A  
HETATM   11  O   UNL     1      -6.130   4.554  70.178  1.00  0.00    -0.017 OA 
HETATM   12  O   UNL     1      -7.037   3.963  68.200  1.00  0.00    -0.051 OA 
HETATM   13  C   UNL     1      -8.833   4.975  71.143  1.00  0.00    -0.149 A  
HETATM   14  C   UNL     1      -8.444   4.988  69.811  1.00  0.00    -0.092 A  
HETATM   15  C   UNL     1      -9.334   5.472  68.854  1.00  0.00    -0.154 A  
BRANCH   8  16
HETATM   16  O   UNL     1     -12.135   6.628  70.980  1.00  0.00    -0.369 OA 
BRANCH  16  17
HETATM   17  C   UNL     1     -12.213   7.996  71.103  1.00  0.00    -0.245 A  
HETATM   18  C   UNL     1     -13.518   9.814  72.072  1.00  0.00    -0.498 A  
HETATM   19  C   UNL     1     -12.576  10.739  71.615  1.00  0.00    -0.456 A  
HETATM   20  C   UNL     1     -11.307   8.930  70.609  1.00  0.00    -0.299 A  
HETATM   21  C   UNL     1     -13.330   8.452  71.822  1.00  0.00    -0.378 A  
HETATM   22  C   UNL     1     -11.476  10.294  70.889  1.00  0.00    -0.425 A  
ENDBRANCH  16  17
ENDBRANCH   8  16
BRANCH  10  23
HETATM   23  S   UNL     1     -10.542   5.421  73.207  1.00  0.00    -0.273 S  
HETATM   24  O   UNL     1     -11.642   4.505  73.399  1.00  0.00    -0.300 OA 
HETATM   25  H2  UNL     1      -8.318   4.458  73.482  1.00  0.00     0.000 HD 
HETATM   26  H1  UNL     1      -9.441   4.725  74.911  1.00  0.00     0.000 HD 
HETATM   27  N   UNL     1      -9.187   4.757  73.924  1.00  0.00    -0.114 N  
HETATM   28  O   UNL     1     -10.597   6.780  73.706  1.00  0.00    -0.337 OA 
ENDBRANCH  10  23
ENDBRANCH   5   7
ENDBRANCH   4   5
ENDBRANCH   3   4
ENDBRANCH   2   3
TORSDOF 7
ENDMDL
MODEL       70
REMARK 921   NORMALIZED FREE ENERGY PREDICTED BY IDOCK:   -4.93 KCAL/MOL
REMARK 922        TOTAL FREE ENERGY PREDICTED BY IDOCK:   -7.71 KCAL/MOL
REMARK 923 INTER-LIGAND FREE ENERGY PREDICTED BY IDOCK:   -7.09 KCAL/MOL
REMARK 924 INTRA-LIGAND FREE ENERGY PREDICTED BY IDOCK:   -0.61 KCAL/MOL
REMARK 927      BINDING AFFINITY PREDICTED BY RF-SCORE:    0.00 PKD
ROOT
HETATM    1  C   UNL     1     -12.065  12.588  63.652  1.00  0.00    -0.642 C  
HETATM    2  C   UNL     1     -12.312  12.752  65.141  1.00  0.00    -0.555 C  
ENDROOT
BRANCH   2   3
HETATM    3  C   UNL     1     -11.258  11.995  65.956  1.00  0.00    -0.385 C  
BRANCH   3   4
HETATM    4  C   UNL     1     -11.785  11.661  67.342  1.00  0.00    -0.201 C  
BRANCH   4   5
HETATM    5  N   UNL     1     -10.884  12.126  68.393  1.00  0.00    -0.214 NA 
HETATM    6  H   UNL     1     -10.171  11.500  68.769  1.00  0.00     0.000 HD 
BRANCH   5   7
HETATM    7  C   UNL     1     -10.998  13.425  68.881  1.00  0.00    -0.248 A  
HETATM    8  C   UNL     1     -10.283  14.522  68.353  1.00  0.00    -0.239 A  
HETATM    9  C   UNL     1     -13.223  15.058  71.471  1.00  0.00    -0.402 C  
HETATM   10  C   UNL     1     -10.546  15.812  68.868  1.00  0.00    -0.233 A  
HETATM   11  O   UNL     1     -13.046  16.069  72.340  1.00  0.00    -0.448 OA 
HETATM   12  O   UNL     1     -14.152  14.271  71.547  1.00  0.00    -0.379 OA 
HETATM   13  C   UNL     1     -11.492  16.030  69.891  1.00  0.00    -0.327 A  
HETATM   14  C   UNL     1     -12.172  14.946  70.428  1.00  0.00    -0.393 A  
HETATM   15  C   UNL     1     -11.920  13.674  69.920  1.00  0.00    -0.415 A  
BRANCH   8  16
HETATM   16  O   UNL     1      -9.206  14.375  67.503  1.00  0.00    -0.189 OA 
BRANCH  16  17
HETATM   17  C   UNL     1      -8.131  13.563  67.785  1.00  0.00    -0.177 A  
HETATM   18  C   UNL     1      -6.291  13.205  69.345  1.00  0.00    -0.111 A  
HETATM   19  C   UNL     1      -5.943  12.031  68.672  1.00  0.00    -0.054 A  
HETATM   20  C   UNL     1      -7.745  12.419  67.092  1.00  0.00    -0.122 A  
HETATM   21  C   UNL     1      -7.382  13.959  68.906  1.00  0.00    -0.088 A  
HETATM   22  C   UNL     1      -6.672  11.643  67.552  1.00  0.00    -0.096 A  
ENDBRANCH  16  17
ENDBRANCH   8  16
BRANCH  10  23
HETATM   23  S   UNL     1      -9.723  17.235  68.218  1.00  0.00    -0.309 S  
HETATM   24  O   UNL     1      -8.294  17.080  68.359  1.00  0.00    -0.223 OA 
HETATM   25  H2  UNL     1     -10.652  16.481  66.092  1.00  0.00     0.000 HD 
HETATM   26  H1  UNL     1      -9.615  17.993  66.214  1.00  0.00     0.000 HD 
HETATM   27  N   UNL     1     -10.090  17.172  66.589  1.00  0.00    -0.295 N  
HETATM   28  O   UNL     1     -10.405  18.417  68.706  1.00  0.00    -0.349 OA 
ENDBRANCH  10  23
ENDBRANCH   5   7
ENDBRANCH   4   5
ENDBRANCH   3   4
ENDBRANCH   2   3
TORSDOF 7
ENDMDL
MODEL       71
REMARK 921   NORMALIZED FREE ENERGY PREDICTED BY IDOCK:   -4.92 KCAL/MOL
REMARK 922        TOTAL FREE ENERGY PREDICTED BY IDOCK:   -7.70 KCAL/MOL
REMARK 923 INTER-LIGAND FREE ENERGY PREDICTED BY IDOCK:   -6.31 KCAL/MOL
REMARK 924 INTRA-LIGAND FREE ENERGY PREDICTED BY IDOCK:   -1.39 KCAL/MOL
REMARK 927      BINDING AFFINITY PREDICTED BY RF-SCORE:    0.00 PKD
ROOT
HETATM    1  C   UNL     1      -5.181  13.576  70.537  1.00  0.00    -0.118 C  
HETATM    2  C   UNL     1      -5.526  14.092  69.152  1.00  0.00    -0.080 C  
ENDROOT
BRANCH   2   3
HETATM    3  C   UNL     1      -5.725  15.611  69.169  1.00  0.00    -0.106 C  
BRANCH   3   4
HETATM    4  C   UNL     1      -7.188  15.961  69.385  1.00  0.00    -0.214 C  
BRANCH   4   5
HETATM    5  N   UNL     1      -8.053  14.790  69.255  1.00  0.00    -0.324 NA 
HETATM    6  H   UNL     1      -7.987  14.028  69.929  1.00  0.00     0.000 HD 
BRANCH   5   7
HETATM    7  C   UNL     1      -8.968  14.717  68.208  1.00  0.00    -0.181 A  
HETATM    8  C   UNL     1      -9.635  13.529  67.837  1.00  0.00    -0.218 A  
HETATM    9  C   UNL     1     -10.535  17.293  65.920  1.00  0.00    -0.262 C  
HETATM   10  C   UNL     1     -10.611  13.591  66.816  1.00  0.00    -0.272 A  
HETATM   11  O   UNL     1     -10.944  17.268  64.639  1.00  0.00    -1.013 OA 
HETATM   12  O   UNL     1     -10.375  18.327  66.547  1.00  0.00    -0.366 OA 
HETATM   13  C   UNL     1     -10.930  14.797  66.160  1.00  0.00    -0.332 A  
HETATM   14  C   UNL     1     -10.251  15.958  66.506  1.00  0.00    -0.297 A  
HETATM   15  C   UNL     1      -9.293  15.902  67.516  1.00  0.00    -0.217 A  
BRANCH   8  16
HETATM   16  O   UNL     1      -9.245  12.281  68.280  1.00  0.00    -0.196 OA 
BRANCH  16  17
HETATM   17  C   UNL     1      -8.054  11.694  67.921  1.00  0.00    -0.138 A  
HETATM   18  C   UNL     1      -6.216  10.313  68.733  1.00  0.00    -0.047 A  
HETATM   19  C   UNL     1      -5.656  10.296  67.453  1.00  0.00    -0.041 A  
HETATM   20  C   UNL     1      -7.462  11.713  66.661  1.00  0.00    -0.037 A  
HETATM   21  C   UNL     1      -7.410  11.002  68.960  1.00  0.00    -0.123 A  
HETATM   22  C   UNL     1      -6.282  10.993  66.424  1.00  0.00    -0.136 A  
ENDBRANCH  16  17
ENDBRANCH   8  16
BRANCH  10  23
HETATM   23  S   UNL     1     -11.518  12.152  66.338  1.00  0.00    -0.351 S  
HETATM   24  O   UNL     1     -12.215  11.612  67.482  1.00  0.00    -0.501 OA 
HETATM   25  H2  UNL     1     -12.796  13.723  64.978  1.00  0.00     0.000 HD 
HETATM   26  H1  UNL     1     -13.181  11.927  65.002  1.00  0.00     0.000 HD 
HETATM   27  N   UNL     1     -12.658  12.757  65.277  1.00  0.00    -0.480 N  
HETATM   28  O   UNL     1     -10.656  11.322  65.521  1.00  0.00    -0.262 OA 
ENDBRANCH  10  23
ENDBRANCH   5   7
ENDBRANCH   4   5
ENDBRANCH   3   4
ENDBRANCH   2   3
TORSDOF 7
ENDMDL
MODEL       72
REMARK 921   NORMALIZED FREE ENERGY PREDICTED BY IDOCK:   -4.89 KCAL/MOL
REMARK 922        TOTAL FREE ENERGY PREDICTED BY IDOCK:   -7.65 KCAL/MOL
REMARK 923 INTER-LIGAND FREE ENERGY PREDICTED BY IDOCK:   -7.03 KCAL/MOL
REMARK 924 INTRA-LIGAND FREE ENERGY PREDICTED BY IDOCK:   -0.62 KCAL/MOL
REMARK 927      BINDING AFFINITY PREDICTED BY RF-SCORE:    0.00 PKD
ROOT
HETATM    1  C   UNL     1     -12.116  14.533  64.607  1.00  0.00    -0.486 C  
HETATM    2  C   UNL     1     -10.703  14.989  64.920  1.00  0.00    -0.420 C  
ENDROOT
BRANCH   2   3
HETATM    3  C   UNL     1     -10.043  14.059  65.943  1.00  0.00    -0.336 C  
BRANCH   3   4
HETATM    4  C   UNL     1     -10.968  13.814  67.124  1.00  0.00    -0.290 C  
BRANCH   4   5
HETATM    5  N   UNL     1     -11.148  12.389  67.389  1.00  0.00    -0.257 NA 
HETATM    6  H   UNL     1     -10.995  11.707  66.645  1.00  0.00     0.000 HD 
BRANCH   5   7
HETATM    7  C   UNL     1     -11.528  11.961  68.658  1.00  0.00    -0.294 A  
HETATM    8  C   UNL     1     -11.299  10.654  69.141  1.00  0.00    -0.273 A  
HETATM    9  C   UNL     1     -13.015  13.707  71.669  1.00  0.00    -0.362 C  
HETATM   10  C   UNL     1     -11.647  10.357  70.479  1.00  0.00    -0.344 A  
HETATM   11  O   UNL     1     -13.864  13.322  72.638  1.00  0.00    -0.712 OA 
HETATM   12  O   UNL     1     -12.738  14.875  71.453  1.00  0.00    -0.296 OA 
HETATM   13  C   UNL     1     -12.216  11.322  71.335  1.00  0.00    -0.185 A  
HETATM   14  C   UNL     1     -12.466  12.597  70.849  1.00  0.00    -0.368 A  
HETATM   15  C   UNL     1     -12.120  12.896  69.533  1.00  0.00    -0.274 A  
BRANCH   8  16
HETATM   16  O   UNL     1     -10.940   9.604  68.321  1.00  0.00    -0.206 OA 
BRANCH  16  17
HETATM   17  C   UNL     1      -9.710   9.513  67.711  1.00  0.00    -0.147 A  
HETATM   18  C   UNL     1      -8.595   9.149  65.573  1.00  0.00    -0.192 A  
HETATM   19  C   UNL     1      -7.356   9.379  66.175  1.00  0.00    -0.096 A  
HETATM   20  C   UNL     1      -8.466   9.692  68.311  1.00  0.00    -0.118 A  
HETATM   21  C   UNL     1      -9.762   9.223  66.338  1.00  0.00    -0.325 A  
HETATM   22  C   UNL     1      -7.297   9.652  67.538  1.00  0.00    -0.090 A  
ENDBRANCH  16  17
ENDBRANCH   8  16
BRANCH  10  23
HETATM   23  S   UNL     1     -11.342   8.756  71.162  1.00  0.00    -0.304 S  
HETATM   24  O   UNL     1      -9.984   8.682  71.648  1.00  0.00    -0.226 OA 
HETATM   25  H2  UNL     1     -13.010   9.424  72.812  1.00  0.00     0.000 HD 
HETATM   26  H1  UNL     1     -12.189   7.782  72.876  1.00  0.00     0.000 HD 
HETATM   27  N   UNL     1     -12.365   8.706  72.482  1.00  0.00    -0.367 N  
HETATM   28  O   UNL     1     -11.869   7.763  70.247  1.00  0.00    -0.060 OA 
ENDBRANCH  10  23
ENDBRANCH   5   7
ENDBRANCH   4   5
ENDBRANCH   3   4
ENDBRANCH   2   3
TORSDOF 7
ENDMDL
MODEL       73
REMARK 921   NORMALIZED FREE ENERGY PREDICTED BY IDOCK:   -4.88 KCAL/MOL
REMARK 922        TOTAL FREE ENERGY PREDICTED BY IDOCK:   -7.64 KCAL/MOL
REMARK 923 INTER-LIGAND FREE ENERGY PREDICTED BY IDOCK:   -7.09 KCAL/MOL
REMARK 924 INTRA-LIGAND FREE ENERGY PREDICTED BY IDOCK:   -0.55 KCAL/MOL
REMARK 927      BINDING AFFINITY PREDICTED BY RF-SCORE:    0.00 PKD
ROOT
HETATM    1  C   UNL     1      -6.321  11.028  70.230  1.00  0.00    -0.120 C  
HETATM    2  C   UNL     1      -7.026  10.408  69.038  1.00  0.00    -0.071 C  
ENDROOT
BRANCH   2   3
HETATM    3  C   UNL     1      -8.530  10.280  69.298  1.00  0.00    -0.172 C  
BRANCH   3   4
HETATM    4  C   UNL     1      -9.329  10.899  68.163  1.00  0.00    -0.165 C  
BRANCH   4   5
HETATM    5  N   UNL     1     -10.750  10.577  68.258  1.00  0.00    -0.212 NA 
HETATM    6  H   UNL     1     -11.210  10.064  67.505  1.00  0.00     0.000 HD 
BRANCH   5   7
HETATM    7  C   UNL     1     -11.477  10.971  69.378  1.00  0.00    -0.294 A  
HETATM    8  C   UNL     1     -11.672  12.320  69.746  1.00  0.00    -0.298 A  
HETATM    9  C   UNL     1     -13.565   9.109  71.928  1.00  0.00    -0.432 C  
HETATM   10  C   UNL     1     -12.504  12.606  70.853  1.00  0.00    -0.278 A  
HETATM   11  O   UNL     1     -13.809   9.293  73.237  1.00  0.00    -0.115 OA 
HETATM   12  O   UNL     1     -13.820   8.070  71.343  1.00  0.00    -0.322 OA 
HETATM   13  C   UNL     1     -13.134  11.588  71.597  1.00  0.00    -0.478 A  
HETATM   14  C   UNL     1     -12.917  10.262  71.251  1.00  0.00    -0.517 A  
HETATM   15  C   UNL     1     -12.103   9.975  70.157  1.00  0.00    -0.164 A  
BRANCH   8  16
HETATM   16  O   UNL     1     -10.939  13.357  69.206  1.00  0.00    -0.210 OA 
BRANCH  16  17
HETATM   17  C   UNL     1     -11.093  13.792  67.909  1.00  0.00    -0.264 A  
HETATM   18  C   UNL     1      -9.954  14.888  66.053  1.00  0.00    -0.337 A  
HETATM   19  C   UNL     1     -11.074  14.687  65.241  1.00  0.00    -0.363 A  
HETATM   20  C   UNL     1     -12.221  13.641  67.108  1.00  0.00    -0.340 A  
HETATM   21  C   UNL     1      -9.965  14.436  67.375  1.00  0.00    -0.242 A  
HETATM   22  C   UNL     1     -12.199  14.063  65.771  1.00  0.00    -0.475 A  
ENDBRANCH  16  17
ENDBRANCH   8  16
BRANCH  10  23
HETATM   23  S   UNL     1     -12.830  14.275  71.337  1.00  0.00    -0.364 S  
HETATM   24  O   UNL     1     -13.368  15.011  70.217  1.00  0.00    -0.108 OA 
HETATM   25  H2  UNL     1     -14.484  13.253  72.810  1.00  0.00     0.000 HD 
HETATM   26  H1  UNL     1     -14.229  15.072  72.754  1.00  0.00     0.000 HD 
HETATM   27  N   UNL     1     -14.041  14.109  72.475  1.00  0.00    -0.440 N  
HETATM   28  O   UNL     1     -11.687  14.764  72.080  1.00  0.00    -0.310 OA 
ENDBRANCH  10  23
ENDBRANCH   5   7
ENDBRANCH   4   5
ENDBRANCH   3   4
ENDBRANCH   2   3
TORSDOF 7
ENDMDL
MODEL       74
REMARK 921   NORMALIZED FREE ENERGY PREDICTED BY IDOCK:   -4.87 KCAL/MOL
REMARK 922        TOTAL FREE ENERGY PREDICTED BY IDOCK:   -7.63 KCAL/MOL
REMARK 923 INTER-LIGAND FREE ENERGY PREDICTED BY IDOCK:   -6.28 KCAL/MOL
REMARK 924 INTRA-LIGAND FREE ENERGY PREDICTED BY IDOCK:   -1.35 KCAL/MOL
REMARK 927      BINDING AFFINITY PREDICTED BY RF-SCORE:    0.00 PKD
ROOT
HETATM    1  C   UNL     1      -6.404  12.615  67.843  1.00  0.00    -0.111 C  
HETATM    2  C   UNL     1      -7.703  13.039  67.182  1.00  0.00    -0.049 C  
ENDROOT
BRANCH   2   3
HETATM    3  C   UNL     1      -8.866  12.984  68.177  1.00  0.00    -0.194 C  
BRANCH   3   4
HETATM    4  C   UNL     1     -10.150  13.484  67.534  1.00  0.00    -0.234 C  
BRANCH   4   5
HETATM    5  N   UNL     1     -11.229  12.505  67.641  1.00  0.00    -0.264 NA 
HETATM    6  H   UNL     1     -11.628  12.089  66.800  1.00  0.00     0.000 HD 
BRANCH   5   7
HETATM    7  C   UNL     1     -11.713  12.141  68.895  1.00  0.00    -0.327 A  
HETATM    8  C   UNL     1     -11.637  10.828  69.409  1.00  0.00    -0.308 A  
HETATM    9  C   UNL     1     -13.176  14.081  71.797  1.00  0.00    -0.375 C  
HETATM   10  C   UNL     1     -12.080  10.592  70.731  1.00  0.00    -0.374 A  
HETATM   11  O   UNL     1     -14.107  13.799  72.726  1.00  0.00    -0.694 OA 
HETATM   12  O   UNL     1     -12.777  15.213  71.579  1.00  0.00    -0.308 OA 
HETATM   13  C   UNL     1     -12.595  11.624  71.542  1.00  0.00    -0.341 A  
HETATM   14  C   UNL     1     -12.696  12.908  71.024  1.00  0.00    -0.338 A  
HETATM   15  C   UNL     1     -12.256  13.146  69.724  1.00  0.00    -0.266 A  
BRANCH   8  16
HETATM   16  O   UNL     1     -11.339   9.733  68.625  1.00  0.00    -0.079 OA 
BRANCH  16  17
HETATM   17  C   UNL     1     -10.063   9.430  68.208  1.00  0.00    -0.183 A  
HETATM   18  C   UNL     1      -8.714   8.846  66.263  1.00  0.00    -0.162 A  
HETATM   19  C   UNL     1      -7.558   8.884  67.047  1.00  0.00    -0.094 A  
HETATM   20  C   UNL     1      -8.912   9.416  68.991  1.00  0.00    -0.141 A  
HETATM   21  C   UNL     1      -9.955   9.124  66.842  1.00  0.00    -0.304 A  
HETATM   22  C   UNL     1      -7.662   9.171  68.404  1.00  0.00    -0.094 A  
ENDBRANCH  16  17
ENDBRANCH   8  16
BRANCH  10  23
HETATM   23  S   UNL     1     -11.966   8.983  71.453  1.00  0.00    -0.352 S  
HETATM   24  O   UNL     1     -10.710   8.850  72.154  1.00  0.00    -0.342 OA 
HETATM   25  H2  UNL     1     -13.846   9.740  72.810  1.00  0.00     0.000 HD 
HETATM   26  H1  UNL     1     -13.126   8.061  73.005  1.00  0.00     0.000 HD 
HETATM   27  N   UNL     1     -13.191   8.990  72.588  1.00  0.00    -0.403 N  
HETATM   28  O   UNL     1     -12.383   8.011  70.463  1.00  0.00     0.062 OA 
ENDBRANCH  10  23
ENDBRANCH   5   7
ENDBRANCH   4   5
ENDBRANCH   3   4
ENDBRANCH   2   3
TORSDOF 7
ENDMDL
MODEL       75
REMARK 921   NORMALIZED FREE ENERGY PREDICTED BY IDOCK:   -4.87 KCAL/MOL
REMARK 922        TOTAL FREE ENERGY PREDICTED BY IDOCK:   -7.63 KCAL/MOL
REMARK 923 INTER-LIGAND FREE ENERGY PREDICTED BY IDOCK:   -6.94 KCAL/MOL
REMARK 924 INTRA-LIGAND FREE ENERGY PREDICTED BY IDOCK:   -0.69 KCAL/MOL
REMARK 927      BINDING AFFINITY PREDICTED BY RF-SCORE:    0.00 PKD
ROOT
HETATM    1  C   UNL     1      -7.847  12.383  67.370  1.00  0.00    -0.174 C  
HETATM    2  C   UNL     1      -6.584  12.817  68.089  1.00  0.00    -0.088 C  
ENDROOT
BRANCH   2   3
HETATM    3  C   UNL     1      -6.908  13.800  69.218  1.00  0.00    -0.078 C  
BRANCH   3   4
HETATM    4  C   UNL     1      -6.691  15.235  68.763  1.00  0.00    -0.103 C  
BRANCH   4   5
HETATM    5  N   UNL     1      -7.807  16.099  69.139  1.00  0.00    -0.231 NA 
HETATM    6  H   UNL     1      -7.639  16.940  69.691  1.00  0.00     0.000 HD 
BRANCH   5   7
HETATM    7  C   UNL     1      -9.101  15.774  68.740  1.00  0.00    -0.213 A  
HETATM    8  C   UNL     1      -9.484  15.615  67.390  1.00  0.00    -0.215 A  
HETATM    9  C   UNL     1     -12.256  14.839  70.610  1.00  0.00    -0.319 C  
HETATM   10  C   UNL     1     -10.804  15.196  67.106  1.00  0.00    -0.320 A  
HETATM   11  O   UNL     1     -13.564  15.047  70.382  1.00  0.00    -0.061 OA 
HETATM   12  O   UNL     1     -11.818  14.478  71.690  1.00  0.00    -0.320 OA 
HETATM   13  C   UNL     1     -11.742  14.939  68.127  1.00  0.00    -0.344 A  
HETATM   14  C   UNL     1     -11.371  15.124  69.452  1.00  0.00    -0.307 A  
HETATM   15  C   UNL     1     -10.070  15.532  69.737  1.00  0.00    -0.291 A  
BRANCH   8  16
HETATM   16  O   UNL     1      -8.701  16.036  66.335  1.00  0.00    -0.270 OA 
BRANCH  16  17
HETATM   17  C   UNL     1      -8.228  17.323  66.216  1.00  0.00    -0.267 A  
HETATM   18  C   UNL     1      -8.874  19.673  66.294  1.00  0.00    -0.410 A  
HETATM   19  C   UNL     1      -7.538  20.050  66.131  1.00  0.00    -0.327 A  
HETATM   20  C   UNL     1      -6.907  17.709  66.004  1.00  0.00    -0.308 A  
HETATM   21  C   UNL     1      -9.211  18.317  66.342  1.00  0.00    -0.272 A  
HETATM   22  C   UNL     1      -6.563  19.068  65.989  1.00  0.00    -0.256 A  
ENDBRANCH  16  17
ENDBRANCH   8  16
BRANCH  10  23
HETATM   23  S   UNL     1     -11.334  14.929  65.442  1.00  0.00    -0.327 S  
HETATM   24  O   UNL     1     -11.133  16.130  64.666  1.00  0.00    -0.598 OA 
HETATM   25  H2  UNL     1      -9.496  13.326  65.386  1.00  0.00     0.000 HD 
HETATM   26  H1  UNL     1     -10.573  13.617  63.925  1.00  0.00     0.000 HD 
HETATM   27  N   UNL     1     -10.267  13.771  64.886  1.00  0.00    -0.378 N  
HETATM   28  O   UNL     1     -12.620  14.261  65.476  1.00  0.00    -0.458 OA 
ENDBRANCH  10  23
ENDBRANCH   5   7
ENDBRANCH   4   5
ENDBRANCH   3   4
ENDBRANCH   2   3
TORSDOF 7
ENDMDL
MODEL       76
REMARK 921   NORMALIZED FREE ENERGY PREDICTED BY IDOCK:   -4.87 KCAL/MOL
REMARK 922        TOTAL FREE ENERGY PREDICTED BY IDOCK:   -7.62 KCAL/MOL
REMARK 923 INTER-LIGAND FREE ENERGY PREDICTED BY IDOCK:   -7.31 KCAL/MOL
REMARK 924 INTRA-LIGAND FREE ENERGY PREDICTED BY IDOCK:   -0.31 KCAL/MOL
REMARK 927      BINDING AFFINITY PREDICTED BY RF-SCORE:    0.00 PKD
ROOT
HETATM    1  C   UNL     1      -5.223  15.940  70.857  1.00  0.00    -0.143 C  
HETATM    2  C   UNL     1      -5.949  14.647  70.535  1.00  0.00    -0.172 C  
ENDROOT
BRANCH   2   3
HETATM    3  C   UNL     1      -7.228  14.923  69.738  1.00  0.00    -0.128 C  
BRANCH   3   4
HETATM    4  C   UNL     1      -6.971  14.801  68.245  1.00  0.00    -0.119 C  
BRANCH   4   5
HETATM    5  N   UNL     1      -7.888  13.858  67.610  1.00  0.00    -0.164 NA 
HETATM    6  H   UNL     1      -7.819  12.861  67.815  1.00  0.00     0.000 HD 
BRANCH   5   7
HETATM    7  C   UNL     1      -8.856  14.323  66.724  1.00  0.00    -0.182 A  
HETATM    8  C   UNL     1      -9.592  13.480  65.862  1.00  0.00    -0.111 A  
HETATM    9  C   UNL     1     -10.423  17.712  66.104  1.00  0.00    -0.295 C  
HETATM   10  C   UNL     1     -10.614  14.051  65.068  1.00  0.00    -0.410 A  
HETATM   11  O   UNL     1     -10.897  18.327  65.007  1.00  0.00    -0.679 OA 
HETATM   12  O   UNL     1     -10.187  18.300  67.147  1.00  0.00    -0.338 OA 
HETATM   13  C   UNL     1     -10.913  15.428  65.112  1.00  0.00    -0.430 A  
HETATM   14  C   UNL     1     -10.169  16.258  65.939  1.00  0.00    -0.384 A  
HETATM   15  C   UNL     1      -9.164  15.699  66.727  1.00  0.00    -0.275 A  
BRANCH   8  16
HETATM   16  O   UNL     1      -9.235  12.172  65.608  1.00  0.00    -0.108 OA 
BRANCH  16  17
HETATM   17  C   UNL     1      -9.703  11.108  66.344  1.00  0.00    -0.204 A  
HETATM   18  C   UNL     1     -10.182   8.718  66.265  1.00  0.00    -0.157 A  
HETATM   19  C   UNL     1     -10.515   8.735  67.621  1.00  0.00    -0.310 A  
HETATM   20  C   UNL     1     -10.086  11.124  67.683  1.00  0.00    -0.203 A  
HETATM   21  C   UNL     1      -9.773   9.897  65.636  1.00  0.00    -0.346 A  
HETATM   22  C   UNL     1     -10.464   9.935  68.324  1.00  0.00    -0.246 A  
ENDBRANCH  16  17
ENDBRANCH   8  16
BRANCH  10  23
HETATM   23  S   UNL     1     -11.606  13.046  64.005  1.00  0.00    -0.452 S  
HETATM   24  O   UNL     1     -10.763  12.139  63.263  1.00  0.00    -0.421 OA 
HETATM   25  H2  UNL     1     -12.503  12.169  66.097  1.00  0.00     0.000 HD 
HETATM   26  H1  UNL     1     -13.089  11.565  64.464  1.00  0.00     0.000 HD 
HETATM   27  N   UNL     1     -12.517  12.145  65.077  1.00  0.00    -0.179 N  
HETATM   28  O   UNL     1     -12.564  13.902  63.335  1.00  0.00    -0.853 OA 
ENDBRANCH  10  23
ENDBRANCH   5   7
ENDBRANCH   4   5
ENDBRANCH   3   4
ENDBRANCH   2   3
TORSDOF 7
ENDMDL
MODEL       77
REMARK 921   NORMALIZED FREE ENERGY PREDICTED BY IDOCK:   -4.84 KCAL/MOL
REMARK 922        TOTAL FREE ENERGY PREDICTED BY IDOCK:   -7.58 KCAL/MOL
REMARK 923 INTER-LIGAND FREE ENERGY PREDICTED BY IDOCK:   -6.20 KCAL/MOL
REMARK 924 INTRA-LIGAND FREE ENERGY PREDICTED BY IDOCK:   -1.38 KCAL/MOL
REMARK 927      BINDING AFFINITY PREDICTED BY RF-SCORE:    0.00 PKD
ROOT
HETATM    1  C   UNL     1      -9.923  13.961  66.312  1.00  0.00    -0.315 C  
HETATM    2  C   UNL     1     -10.254  12.876  67.321  1.00  0.00    -0.234 C  
ENDROOT
BRANCH   2   3
HETATM    3  C   UNL     1     -11.650  13.089  67.914  1.00  0.00    -0.385 C  
BRANCH   3   4
HETATM    4  C   UNL     1     -11.719  12.553  69.335  1.00  0.00    -0.322 C  
BRANCH   4   5
HETATM    5  N   UNL     1     -10.590  11.679  69.643  1.00  0.00    -0.419 NA 
HETATM    6  H   UNL     1      -9.636  12.035  69.581  1.00  0.00     0.000 HD 
BRANCH   5   7
HETATM    7  C   UNL     1     -10.818  10.359  70.021  1.00  0.00    -0.289 A  
HETATM    8  C   UNL     1      -9.866   9.327  69.866  1.00  0.00    -0.199 A  
HETATM    9  C   UNL     1     -13.641   8.609  71.836  1.00  0.00    -0.410 C  
HETATM   10  C   UNL     1     -10.172   8.041  70.368  1.00  0.00    -0.201 A  
HETATM   11  O   UNL     1     -14.174   7.377  71.753  1.00  0.00    -0.407 OA 
HETATM   12  O   UNL     1     -14.192   9.534  72.409  1.00  0.00    -0.265 OA 
HETATM   13  C   UNL     1     -11.396   7.763  71.011  1.00  0.00    -0.287 A  
HETATM   14  C   UNL     1     -12.341   8.771  71.137  1.00  0.00    -0.258 A  
HETATM   15  C   UNL     1     -12.041  10.041  70.648  1.00  0.00    -0.381 A  
BRANCH   8  16
HETATM   16  O   UNL     1      -8.741   9.459  69.078  1.00  0.00    -0.129 OA 
BRANCH  16  17
HETATM   17  C   UNL     1      -8.794   9.663  67.718  1.00  0.00    -0.125 A  
HETATM   18  C   UNL     1      -7.541  10.503  65.803  1.00  0.00    -0.142 A  
HETATM   19  C   UNL     1      -8.571  10.103  64.948  1.00  0.00    -0.188 A  
HETATM   20  C   UNL     1      -9.836   9.315  66.863  1.00  0.00    -0.276 A  
HETATM   21  C   UNL     1      -7.653  10.277  67.177  1.00  0.00    -0.092 A  
HETATM   22  C   UNL     1      -9.710   9.510  65.480  1.00  0.00    -0.344 A  
ENDBRANCH  16  17
ENDBRANCH   8  16
BRANCH  10  23
HETATM   23  S   UNL     1      -9.006   6.719  70.251  1.00  0.00    -0.152 S  
HETATM   24  O   UNL     1      -7.758   7.113  70.863  1.00  0.00    -0.091 OA 
HETATM   25  H2  UNL     1     -10.568   5.553  71.718  1.00  0.00     0.000 HD 
HETATM   26  H1  UNL     1      -9.017   4.763  71.131  1.00  0.00     0.000 HD 
HETATM   27  N   UNL     1      -9.691   5.525  71.198  1.00  0.00    -0.169 N  
HETATM   28  O   UNL     1      -9.050   6.192  68.902  1.00  0.00    -0.124 OA 
ENDBRANCH  10  23
ENDBRANCH   5   7
ENDBRANCH   4   5
ENDBRANCH   3   4
ENDBRANCH   2   3
TORSDOF 7
ENDMDL
MODEL       78
REMARK 921   NORMALIZED FREE ENERGY PREDICTED BY IDOCK:   -4.80 KCAL/MOL
REMARK 922        TOTAL FREE ENERGY PREDICTED BY IDOCK:   -7.53 KCAL/MOL
REMARK 923 INTER-LIGAND FREE ENERGY PREDICTED BY IDOCK:   -7.28 KCAL/MOL
REMARK 924 INTRA-LIGAND FREE ENERGY PREDICTED BY IDOCK:   -0.25 KCAL/MOL
REMARK 927      BINDING AFFINITY PREDICTED BY RF-SCORE:    0.00 PKD
ROOT
HETATM    1  C   UNL     1      -9.128  10.049  63.664  1.00  0.00    -0.301 C  
HETATM    2  C   UNL     1      -8.365   9.363  64.782  1.00  0.00    -0.159 C  
ENDROOT
BRANCH   2   3
HETATM    3  C   UNL     1      -9.328   8.736  65.795  1.00  0.00    -0.259 C  
BRANCH   3   4
HETATM    4  C   UNL     1      -9.318   9.514  67.102  1.00  0.00    -0.143 C  
BRANCH   4   5
HETATM    5  N   UNL     1     -10.645  10.022  67.443  1.00  0.00    -0.261 NA 
HETATM    6  H   UNL     1     -11.340   9.400  67.857  1.00  0.00     0.000 HD 
BRANCH   5   7
HETATM    7  C   UNL     1     -10.960  11.357  67.202  1.00  0.00    -0.285 A  
HETATM    8  C   UNL     1     -10.811  12.379  68.165  1.00  0.00    -0.221 A  
HETATM    9  C   UNL     1     -12.040  13.274  64.123  1.00  0.00    -0.432 C  
HETATM   10  C   UNL     1     -11.077  13.714  67.782  1.00  0.00    -0.272 A  
HETATM   11  O   UNL     1     -12.841  14.336  63.925  1.00  0.00    -0.619 OA 
HETATM   12  O   UNL     1     -11.677  12.538  63.220  1.00  0.00    -0.476 OA 
HETATM   13  C   UNL     1     -11.487  14.048  66.475  1.00  0.00    -0.368 A  
HETATM   14  C   UNL     1     -11.660  13.039  65.539  1.00  0.00    -0.382 A  
HETATM   15  C   UNL     1     -11.394  11.722  65.910  1.00  0.00    -0.324 A  
BRANCH   8  16
HETATM   16  O   UNL     1     -10.613  12.121  69.506  1.00  0.00     0.088 OA 
BRANCH  16  17
HETATM   17  C   UNL     1     -11.218  11.078  70.169  1.00  0.00    -0.183 A  
HETATM   18  C   UNL     1     -13.355  10.246  70.996  1.00  0.00    -0.299 A  
HETATM   19  C   UNL     1     -12.742   9.056  71.396  1.00  0.00    -0.361 A  
HETATM   20  C   UNL     1     -10.607   9.909  70.616  1.00  0.00    -0.341 A  
HETATM   21  C   UNL     1     -12.596  11.245  70.381  1.00  0.00    -0.292 A  
HETATM   22  C   UNL     1     -11.375   8.892  71.203  1.00  0.00    -0.357 A  
ENDBRANCH  16  17
ENDBRANCH   8  16
BRANCH  10  23
HETATM   23  S   UNL     1     -10.862  15.046  68.923  1.00  0.00    -0.255 S  
HETATM   24  O   UNL     1     -11.233  16.292  68.295  1.00  0.00    -0.352 OA 
HETATM   25  H2  UNL     1     -12.641  13.929  70.164  1.00  0.00     0.000 HD 
HETATM   26  H1  UNL     1     -11.865  15.480  70.769  1.00  0.00     0.000 HD 
HETATM   27  N   UNL     1     -11.988  14.712  70.111  1.00  0.00    -0.293 N  
HETATM   28  O   UNL     1      -9.578  14.884  69.574  1.00  0.00    -0.133 OA 
ENDBRANCH  10  23
ENDBRANCH   5   7
ENDBRANCH   4   5
ENDBRANCH   3   4
ENDBRANCH   2   3
TORSDOF 7
ENDMDL
MODEL       79
REMARK 921   NORMALIZED FREE ENERGY PREDICTED BY IDOCK:   -4.78 KCAL/MOL
REMARK 922        TOTAL FREE ENERGY PREDICTED BY IDOCK:   -7.50 KCAL/MOL
REMARK 923 INTER-LIGAND FREE ENERGY PREDICTED BY IDOCK:   -6.01 KCAL/MOL
REMARK 924 INTRA-LIGAND FREE ENERGY PREDICTED BY IDOCK:   -1.49 KCAL/MOL
REMARK 927      BINDING AFFINITY PREDICTED BY RF-SCORE:    0.00 PKD
ROOT
HETATM    1  C   UNL     1      -8.605   4.797  69.315  1.00  0.00    -0.098 C  
HETATM    2  C   UNL     1      -9.527   5.664  68.478  1.00  0.00    -0.149 C  
ENDROOT
BRANCH   2   3
HETATM    3  C   UNL     1     -10.591   6.334  69.352  1.00  0.00    -0.330 C  
BRANCH   3   4
HETATM    4  C   UNL     1      -9.965   6.924  70.606  1.00  0.00    -0.186 C  
BRANCH   4   5
HETATM    5  N   UNL     1      -9.294   8.193  70.334  1.00  0.00    -0.158 NA 
HETATM    6  H   UNL     1      -8.277   8.228  70.261  1.00  0.00     0.000 HD 
BRANCH   5   7
HETATM    7  C   UNL     1     -10.045   9.354  70.172  1.00  0.00    -0.233 A  
HETATM    8  C   UNL     1      -9.819  10.291  69.141  1.00  0.00    -0.216 A  
HETATM    9  C   UNL     1     -13.129  10.731  71.880  1.00  0.00    -0.451 C  
HETATM   10  C   UNL     1     -10.701  11.390  69.019  1.00  0.00    -0.205 A  
HETATM   11  O   UNL     1     -13.553  11.975  72.165  1.00  0.00    -0.406 OA 
HETATM   12  O   UNL     1     -13.612   9.732  72.386  1.00  0.00    -0.407 OA 
HETATM   13  C   UNL     1     -11.789  11.575  69.897  1.00  0.00    -0.430 A  
HETATM   14  C   UNL     1     -11.992  10.667  70.927  1.00  0.00    -0.469 A  
HETATM   15  C   UNL     1     -11.128   9.580  71.047  1.00  0.00    -0.433 A  
BRANCH   8  16
HETATM   16  O   UNL     1      -8.672  10.299  68.373  1.00  0.00    -0.122 OA 
BRANCH  16  17
HETATM   17  C   UNL     1      -8.386   9.328  67.440  1.00  0.00    -0.122 A  
HETATM   18  C   UNL     1      -6.688   7.734  66.716  1.00  0.00    -0.067 A  
HETATM   19  C   UNL     1      -7.561   7.240  65.744  1.00  0.00    -0.091 A  
HETATM   20  C   UNL     1      -9.229   8.863  66.435  1.00  0.00    -0.240 A  
HETATM   21  C   UNL     1      -7.104   8.767  67.561  1.00  0.00    -0.079 A  
HETATM   22  C   UNL     1      -8.825   7.804  65.609  1.00  0.00    -0.102 A  
ENDBRANCH  16  17
ENDBRANCH   8  16
BRANCH  10  23
HETATM   23  S   UNL     1     -10.505  12.573  67.721  1.00  0.00    -0.225 S  
HETATM   24  O   UNL     1     -10.660  11.923  66.441  1.00  0.00    -0.233 OA 
HETATM   25  H2  UNL     1     -12.538  13.549  68.652  1.00  0.00     0.000 HD 
HETATM   26  H1  UNL     1     -11.694  14.278  67.192  1.00  0.00     0.000 HD 
HETATM   27  N   UNL     1     -11.807  13.596  67.941  1.00  0.00    -0.358 N  
HETATM   28  O   UNL     1      -9.342  13.384  68.018  1.00  0.00    -0.203 OA 
ENDBRANCH  10  23
ENDBRANCH   5   7
ENDBRANCH   4   5
ENDBRANCH   3   4
ENDBRANCH   2   3
TORSDOF 7
ENDMDL
MODEL       80
REMARK 921   NORMALIZED FREE ENERGY PREDICTED BY IDOCK:   -4.76 KCAL/MOL
REMARK 922        TOTAL FREE ENERGY PREDICTED BY IDOCK:   -7.47 KCAL/MOL
REMARK 923 INTER-LIGAND FREE ENERGY PREDICTED BY IDOCK:   -6.87 KCAL/MOL
REMARK 924 INTRA-LIGAND FREE ENERGY PREDICTED BY IDOCK:   -0.60 KCAL/MOL
REMARK 927      BINDING AFFINITY PREDICTED BY RF-SCORE:    0.00 PKD
ROOT
HETATM    1  C   UNL     1     -11.764  14.036  65.808  1.00  0.00    -0.368 C  
HETATM    2  C   UNL     1     -11.680  12.768  66.637  1.00  0.00    -0.459 C  
ENDROOT
BRANCH   2   3
HETATM    3  C   UNL     1     -10.547  11.864  66.140  1.00  0.00    -0.295 C  
BRANCH   3   4
HETATM    4  C   UNL     1      -9.473  11.712  67.205  1.00  0.00    -0.176 C  
BRANCH   4   5
HETATM    5  N   UNL     1      -9.983  12.013  68.540  1.00  0.00    -0.273 NA 
HETATM    6  H   UNL     1     -10.207  12.974  68.797  1.00  0.00     0.000 HD 
BRANCH   5   7
HETATM    7  C   UNL     1     -10.163  10.985  69.461  1.00  0.00     0.005 A  
HETATM    8  C   UNL     1     -11.413  10.661  70.033  1.00  0.00    -0.325 A  
HETATM    9  C   UNL     1      -7.896   8.292  70.852  1.00  0.00    -0.091 C  
HETATM   10  C   UNL     1     -11.495   9.538  70.890  1.00  0.00    -0.334 A  
HETATM   11  O   UNL     1      -7.812   7.675  72.044  1.00  0.00    -0.088 OA 
HETATM   12  O   UNL     1      -7.012   8.240  70.012  1.00  0.00    -0.042 OA 
HETATM   13  C   UNL     1     -10.370   8.743  71.189  1.00  0.00    -0.315 A  
HETATM   14  C   UNL     1      -9.137   9.081  70.648  1.00  0.00    -0.280 A  
HETATM   15  C   UNL     1      -9.053  10.183  69.799  1.00  0.00    -0.166 A  
BRANCH   8  16
HETATM   16  O   UNL     1     -12.510  11.495  69.958  1.00  0.00    -0.213 OA 
BRANCH  16  17
HETATM   17  C   UNL     1     -12.643  12.633  70.719  1.00  0.00    -0.217 A  
HETATM   18  C   UNL     1     -12.247  15.039  70.747  1.00  0.00    -0.386 A  
HETATM   19  C   UNL     1     -12.878  15.133  71.990  1.00  0.00    -0.424 A  
HETATM   20  C   UNL     1     -13.225  12.730  71.980  1.00  0.00    -0.538 A  
HETATM   21  C   UNL     1     -12.138  13.797  70.116  1.00  0.00    -0.429 A  
HETATM   22  C   UNL     1     -13.365  13.981  72.599  1.00  0.00    -0.643 A  
ENDBRANCH  16  17
ENDBRANCH   8  16
BRANCH  10  23
HETATM   23  S   UNL     1     -13.038   9.049  71.600  1.00  0.00    -0.374 S  
HETATM   24  O   UNL     1     -14.119   9.403  70.711  1.00  0.00     0.023 OA 
HETATM   25  H2  UNL     1     -12.153   6.792  71.326  1.00  0.00     0.000 HD 
HETATM   26  H1  UNL     1     -13.815   7.100  72.046  1.00  0.00     0.000 HD 
HETATM   27  N   UNL     1     -12.925   7.382  71.637  1.00  0.00    -0.362 N  
HETATM   28  O   UNL     1     -13.045   9.450  72.992  1.00  0.00    -0.100 OA 
ENDBRANCH  10  23
ENDBRANCH   5   7
ENDBRANCH   4   5
ENDBRANCH   3   4
ENDBRANCH   2   3
TORSDOF 7
ENDMDL
MODEL       81
REMARK 921   NORMALIZED FREE ENERGY PREDICTED BY IDOCK:   -4.74 KCAL/MOL
REMARK 922        TOTAL FREE ENERGY PREDICTED BY IDOCK:   -7.45 KCAL/MOL
REMARK 923 INTER-LIGAND FREE ENERGY PREDICTED BY IDOCK:   -6.52 KCAL/MOL
REMARK 924 INTRA-LIGAND FREE ENERGY PREDICTED BY IDOCK:   -0.92 KCAL/MOL
REMARK 927      BINDING AFFINITY PREDICTED BY RF-SCORE:    0.00 PKD
ROOT
HETATM    1  C   UNL     1      -8.582  18.856  66.651  1.00  0.00    -0.312 C  
HETATM    2  C   UNL     1      -7.782  17.589  66.410  1.00  0.00    -0.332 C  
ENDROOT
BRANCH   2   3
HETATM    3  C   UNL     1      -8.695  16.443  65.965  1.00  0.00    -0.274 C  
BRANCH   3   4
HETATM    4  C   UNL     1     -10.154  16.867  66.010  1.00  0.00    -0.319 C  
BRANCH   4   5
HETATM    5  N   UNL     1     -10.952  15.983  66.857  1.00  0.00    -0.197 NA 
HETATM    6  H   UNL     1     -11.478  16.366  67.643  1.00  0.00     0.000 HD 
BRANCH   5   7
HETATM    7  C   UNL     1     -10.993  14.618  66.590  1.00  0.00    -0.323 A  
HETATM    8  C   UNL     1     -10.682  13.627  67.546  1.00  0.00    -0.259 A  
HETATM    9  C   UNL     1     -12.112  12.569  63.611  1.00  0.00    -0.554 C  
HETATM   10  C   UNL     1     -10.844  12.268  67.190  1.00  0.00    -0.244 A  
HETATM   11  O   UNL     1     -11.701  11.403  63.081  1.00  0.00    -0.122 OA 
HETATM   12  O   UNL     1     -12.836  13.350  63.017  1.00  0.00    -0.481 OA 
HETATM   13  C   UNL     1     -11.301  11.879  65.915  1.00  0.00    -0.365 A  
HETATM   14  C   UNL     1     -11.579  12.855  64.967  1.00  0.00    -0.367 A  
HETATM   15  C   UNL     1     -11.426  14.195  65.315  1.00  0.00    -0.330 A  
BRANCH   8  16
HETATM   16  O   UNL     1     -10.041  13.908  68.736  1.00  0.00    -0.221 OA 
BRANCH  16  17
HETATM   17  C   UNL     1      -8.751  14.381  68.802  1.00  0.00    -0.129 A  
HETATM   18  C   UNL     1      -6.502  14.097  67.901  1.00  0.00    -0.174 A  
HETATM   19  C   UNL     1      -6.062  15.197  68.641  1.00  0.00    -0.086 A  
HETATM   20  C   UNL     1      -8.290  15.444  69.574  1.00  0.00    -0.204 A  
HETATM   21  C   UNL     1      -7.840  13.699  67.978  1.00  0.00    -0.150 A  
HETATM   22  C   UNL     1      -6.957  15.866  69.471  1.00  0.00    -0.189 A  
ENDBRANCH  16  17
ENDBRANCH   8  16
BRANCH  10  23
HETATM   23  S   UNL     1     -10.520  10.979  68.355  1.00  0.00    -0.192 S  
HETATM   24  O   UNL     1      -9.139  11.034  68.774  1.00  0.00    -0.172 OA 
HETATM   25  H2  UNL     1     -12.091  12.206  69.761  1.00  0.00     0.000 HD 
HETATM   26  H1  UNL     1     -11.286  10.657  70.333  1.00  0.00     0.000 HD 
HETATM   27  N   UNL     1     -11.473  11.401  69.661  1.00  0.00    -0.291 N  
HETATM   28  O   UNL     1     -11.106   9.753  67.851  1.00  0.00    -0.236 OA 
ENDBRANCH  10  23
ENDBRANCH   5   7
ENDBRANCH   4   5
ENDBRANCH   3   4
ENDBRANCH   2   3
TORSDOF 7
ENDMDL
MODEL       82
REMARK 921   NORMALIZED FREE ENERGY PREDICTED BY IDOCK:   -4.73 KCAL/MOL
REMARK 922        TOTAL FREE ENERGY PREDICTED BY IDOCK:   -7.43 KCAL/MOL
REMARK 923 INTER-LIGAND FREE ENERGY PREDICTED BY IDOCK:   -6.45 KCAL/MOL
REMARK 924 INTRA-LIGAND FREE ENERGY PREDICTED BY IDOCK:   -0.98 KCAL/MOL
REMARK 927      BINDING AFFINITY PREDICTED BY RF-SCORE:    0.00 PKD
ROOT
HETATM    1  C   UNL     1     -10.726  16.810  68.847  1.00  0.00    -0.333 C  
HETATM    2  C   UNL     1     -11.690  15.638  68.835  1.00  0.00    -0.396 C  
ENDROOT
BRANCH   2   3
HETATM    3  C   UNL     1     -11.286  14.588  69.875  1.00  0.00    -0.288 C  
BRANCH   3   4
HETATM    4  C   UNL     1     -11.859  13.226  69.518  1.00  0.00    -0.327 C  
BRANCH   4   5
HETATM    5  N   UNL     1     -10.809  12.254  69.223  1.00  0.00    -0.435 NA 
HETATM    6  H   UNL     1     -10.251  11.859  69.981  1.00  0.00     0.000 HD 
BRANCH   5   7
HETATM    7  C   UNL     1     -10.571  11.867  67.908  1.00  0.00    -0.201 A  
HETATM    8  C   UNL     1      -9.582  10.929  67.537  1.00  0.00    -0.155 A  
HETATM    9  C   UNL     1     -12.286  12.602  64.615  1.00  0.00    -0.476 C  
HETATM   10  C   UNL     1      -9.489  10.544  66.180  1.00  0.00    -0.180 A  
HETATM   11  O   UNL     1     -11.848  12.734  63.351  1.00  0.00    -0.513 OA 
HETATM   12  O   UNL     1     -13.394  12.964  64.976  1.00  0.00    -0.682 OA 
HETATM   13  C   UNL     1     -10.347  11.071  65.193  1.00  0.00    -0.346 A  
HETATM   14  C   UNL     1     -11.298  12.014  65.555  1.00  0.00    -0.381 A  
HETATM   15  C   UNL     1     -11.398  12.393  66.893  1.00  0.00    -0.392 A  
BRANCH   8  16
HETATM   16  O   UNL     1      -8.580  10.520  68.393  1.00  0.00    -0.121 OA 
BRANCH  16  17
HETATM   17  C   UNL     1      -7.558  11.346  68.803  1.00  0.00    -0.132 A  
HETATM   18  C   UNL     1      -5.722  11.566  70.393  1.00  0.00    -0.155 A  
HETATM   19  C   UNL     1      -5.337  12.765  69.789  1.00  0.00    -0.084 A  
HETATM   20  C   UNL     1      -7.196  12.567  68.240  1.00  0.00    -0.111 A  
HETATM   21  C   UNL     1      -6.822  10.861  69.896  1.00  0.00    -0.126 A  
HETATM   22  C   UNL     1      -6.072  13.258  68.716  1.00  0.00    -0.086 A  
ENDBRANCH  16  17
ENDBRANCH   8  16
BRANCH  10  23
HETATM   23  S   UNL     1      -8.308   9.337  65.657  1.00  0.00    -0.129 S  
HETATM   24  O   UNL     1      -8.548   8.090  66.343  1.00  0.00    -0.130 OA 
HETATM   25  H2  UNL     1      -9.409   9.572  63.493  1.00  0.00     0.000 HD 
HETATM   26  H1  UNL     1      -7.997   8.423  63.742  1.00  0.00     0.000 HD 
HETATM   27  N   UNL     1      -8.679   9.119  64.043  1.00  0.00    -0.178 N  
HETATM   28  O   UNL     1      -6.998   9.956  65.656  1.00  0.00    -0.095 OA 
ENDBRANCH  10  23
ENDBRANCH   5   7
ENDBRANCH   4   5
ENDBRANCH   3   4
ENDBRANCH   2   3
TORSDOF 7
ENDMDL
MODEL       83
REMARK 921   NORMALIZED FREE ENERGY PREDICTED BY IDOCK:   -4.72 KCAL/MOL
REMARK 922        TOTAL FREE ENERGY PREDICTED BY IDOCK:   -7.42 KCAL/MOL
REMARK 923 INTER-LIGAND FREE ENERGY PREDICTED BY IDOCK:   -6.47 KCAL/MOL
REMARK 924 INTRA-LIGAND FREE ENERGY PREDICTED BY IDOCK:   -0.94 KCAL/MOL
REMARK 927      BINDING AFFINITY PREDICTED BY RF-SCORE:    0.00 PKD
ROOT
HETATM    1  C   UNL     1     -10.036  10.594  64.987  1.00  0.00    -0.388 C  
HETATM    2  C   UNL     1     -10.560  11.384  66.172  1.00  0.00    -0.316 C  
ENDROOT
BRANCH   2   3
HETATM    3  C   UNL     1     -10.571  10.525  67.440  1.00  0.00    -0.313 C  
BRANCH   3   4
HETATM    4  C   UNL     1      -9.987   9.148  67.163  1.00  0.00    -0.218 C  
BRANCH   4   5
HETATM    5  N   UNL     1     -10.867   8.080  67.630  1.00  0.00    -0.506 NA 
HETATM    6  H   UNL     1     -11.873   8.237  67.691  1.00  0.00     0.000 HD 
BRANCH   5   7
HETATM    7  C   UNL     1     -10.330   6.847  67.991  1.00  0.00    -0.192 A  
HETATM    8  C   UNL     1     -10.105   6.456  69.329  1.00  0.00    -0.172 A  
HETATM    9  C   UNL     1      -9.406   3.730  66.053  1.00  0.00    -0.170 C  
HETATM   10  C   UNL     1      -9.639   5.145  69.582  1.00  0.00    -0.167 A  
HETATM   11  O   UNL     1      -8.448   2.797  66.200  1.00  0.00    -0.097 OA 
HETATM   12  O   UNL     1     -10.056   3.861  65.029  1.00  0.00    -0.194 OA 
HETATM   13  C   UNL     1      -9.391   4.227  68.541  1.00  0.00    -0.209 A  
HETATM   14  C   UNL     1      -9.586   4.623  67.226  1.00  0.00    -0.201 A  
HETATM   15  C   UNL     1     -10.051   5.912  66.972  1.00  0.00    -0.221 A  
BRANCH   8  16
HETATM   16  O   UNL     1     -10.126   7.347  70.383  1.00  0.00    -0.191 OA 
BRANCH  16  17
HETATM   17  C   UNL     1     -11.287   7.882  70.893  1.00  0.00    -0.277 A  
HETATM   18  C   UNL     1     -12.373   9.965  71.547  1.00  0.00    -0.504 A  
HETATM   19  C   UNL     1     -13.555   9.270  71.814  1.00  0.00    -0.465 A  
HETATM   20  C   UNL     1     -12.454   7.192  71.209  1.00  0.00    -0.425 A  
HETATM   21  C   UNL     1     -11.251   9.273  71.083  1.00  0.00    -0.413 A  
HETATM   22  C   UNL     1     -13.591   7.890  71.642  1.00  0.00    -0.397 A  
ENDBRANCH  16  17
ENDBRANCH   8  16
BRANCH  10  23
HETATM   23  S   UNL     1      -9.384   4.575  71.235  1.00  0.00    -0.158 S  
HETATM   24  O   UNL     1     -10.658   4.379  71.887  1.00  0.00    -0.089 OA 
HETATM   25  H2  UNL     1      -8.454   2.605  70.139  1.00  0.00     0.000 HD 
HETATM   26  H1  UNL     1      -8.534   2.748  71.969  1.00  0.00     0.000 HD 
HETATM   27  N   UNL     1      -8.681   3.076  71.015  1.00  0.00    -0.071 N  
HETATM   28  O   UNL     1      -8.346   5.386  71.840  1.00  0.00    -0.119 OA 
ENDBRANCH  10  23
ENDBRANCH   5   7
ENDBRANCH   4   5
ENDBRANCH   3   4
ENDBRANCH   2   3
TORSDOF 7
ENDMDL
MODEL       84
REMARK 921   NORMALIZED FREE ENERGY PREDICTED BY IDOCK:   -4.69 KCAL/MOL
REMARK 922        TOTAL FREE ENERGY PREDICTED BY IDOCK:   -7.37 KCAL/MOL
REMARK 923 INTER-LIGAND FREE ENERGY PREDICTED BY IDOCK:   -7.06 KCAL/MOL
REMARK 924 INTRA-LIGAND FREE ENERGY PREDICTED BY IDOCK:   -0.31 KCAL/MOL
REMARK 927      BINDING AFFINITY PREDICTED BY RF-SCORE:    0.00 PKD
ROOT
HETATM    1  C   UNL     1     -10.360  11.724  63.670  1.00  0.00    -0.476 C  
HETATM    2  C   UNL     1     -10.733  12.850  64.617  1.00  0.00    -0.373 C  
ENDROOT
BRANCH   2   3
HETATM    3  C   UNL     1     -11.685  12.352  65.709  1.00  0.00    -0.470 C  
BRANCH   3   4
HETATM    4  C   UNL     1     -11.876  13.411  66.783  1.00  0.00    -0.403 C  
BRANCH   4   5
HETATM    5  N   UNL     1     -10.822  13.358  67.793  1.00  0.00    -0.248 NA 
HETATM    6  H   UNL     1     -10.176  14.140  67.899  1.00  0.00     0.000 HD 
BRANCH   5   7
HETATM    7  C   UNL     1     -10.701  12.238  68.611  1.00  0.00    -0.233 A  
HETATM    8  C   UNL     1     -11.708  11.815  69.507  1.00  0.00    -0.343 A  
HETATM    9  C   UNL     1      -8.104   9.504  68.935  1.00  0.00    -0.096 C  
HETATM   10  C   UNL     1     -11.514  10.611  70.223  1.00  0.00    -0.337 A  
HETATM   11  O   UNL     1      -7.649   8.776  69.970  1.00  0.00    -0.057 OA 
HETATM   12  O   UNL     1      -7.528   9.567  67.862  1.00  0.00    -0.083 OA 
HETATM   13  C   UNL     1     -10.349   9.831  70.072  1.00  0.00    -0.307 A  
HETATM   14  C   UNL     1      -9.349  10.264  69.213  1.00  0.00    -0.221 A  
HETATM   15  C   UNL     1      -9.539  11.447  68.500  1.00  0.00    -0.190 A  
BRANCH   8  16
HETATM   16  O   UNL     1     -12.776  12.612  69.865  1.00  0.00     0.141 OA 
BRANCH  16  17
HETATM   17  C   UNL     1     -12.652  13.711  70.683  1.00  0.00    -0.296 A  
HETATM   18  C   UNL     1     -13.602  14.833  72.629  1.00  0.00    -0.565 A  
HETATM   19  C   UNL     1     -12.585  15.791  72.578  1.00  0.00    -0.541 A  
HETATM   20  C   UNL     1     -11.673  14.698  70.611  1.00  0.00    -0.339 A  
HETATM   21  C   UNL     1     -13.627  13.799  71.690  1.00  0.00    -0.386 A  
HETATM   22  C   UNL     1     -11.626  15.718  71.574  1.00  0.00    -0.531 A  
ENDBRANCH  16  17
ENDBRANCH   8  16
BRANCH  10  23
HETATM   23  S   UNL     1     -12.755   9.999  71.322  1.00  0.00    -0.432 S  
HETATM   24  O   UNL     1     -13.919   9.595  70.569  1.00  0.00     0.146 OA 
HETATM   25  H2  UNL     1     -11.129   8.234  71.763  1.00  0.00     0.000 HD 
HETATM   26  H1  UNL     1     -12.767   8.271  72.594  1.00  0.00     0.000 HD 
HETATM   27  N   UNL     1     -12.051   8.625  71.960  1.00  0.00    -0.348 N  
HETATM   28  O   UNL     1     -12.862  10.913  72.441  1.00  0.00    -0.072 OA 
ENDBRANCH  10  23
ENDBRANCH   5   7
ENDBRANCH   4   5
ENDBRANCH   3   4
ENDBRANCH   2   3
TORSDOF 7
ENDMDL
MODEL       85
REMARK 921   NORMALIZED FREE ENERGY PREDICTED BY IDOCK:   -4.68 KCAL/MOL
REMARK 922        TOTAL FREE ENERGY PREDICTED BY IDOCK:   -7.36 KCAL/MOL
REMARK 923 INTER-LIGAND FREE ENERGY PREDICTED BY IDOCK:   -6.77 KCAL/MOL
REMARK 924 INTRA-LIGAND FREE ENERGY PREDICTED BY IDOCK:   -0.59 KCAL/MOL
REMARK 927      BINDING AFFINITY PREDICTED BY RF-SCORE:    0.00 PKD
ROOT
HETATM    1  C   UNL     1     -10.356  17.934  68.468  1.00  0.00    -0.365 C  
HETATM    2  C   UNL     1      -9.583  16.752  67.912  1.00  0.00    -0.236 C  
ENDROOT
BRANCH   2   3
HETATM    3  C   UNL     1      -9.256  15.744  69.018  1.00  0.00    -0.243 C  
BRANCH   3   4
HETATM    4  C   UNL     1     -10.367  14.715  69.156  1.00  0.00    -0.216 C  
BRANCH   4   5
HETATM    5  N   UNL     1      -9.914  13.374  68.794  1.00  0.00    -0.416 NA 
HETATM    6  H   UNL     1      -9.478  12.775  69.495  1.00  0.00     0.000 HD 
BRANCH   5   7
HETATM    7  C   UNL     1     -10.080  12.915  67.490  1.00  0.00    -0.214 A  
HETATM    8  C   UNL     1      -9.337  11.848  66.939  1.00  0.00    -0.196 A  
HETATM    9  C   UNL     1     -12.519  13.742  64.717  1.00  0.00    -0.349 C  
HETATM   10  C   UNL     1      -9.653  11.407  65.633  1.00  0.00    -0.231 A  
HETATM   11  O   UNL     1     -12.422  13.775  63.376  1.00  0.00    -0.817 OA 
HETATM   12  O   UNL     1     -13.443  14.252  65.329  1.00  0.00    -0.564 OA 
HETATM   13  C   UNL     1     -10.679  12.002  64.871  1.00  0.00    -0.346 A  
HETATM   14  C   UNL     1     -11.388  13.069  65.404  1.00  0.00    -0.327 A  
HETATM   15  C   UNL     1     -11.084  13.503  66.693  1.00  0.00    -0.309 A  
BRANCH   8  16
HETATM   16  O   UNL     1      -8.194  11.347  67.529  1.00  0.00    -0.123 OA 
BRANCH  16  17
HETATM   17  C   UNL     1      -8.213  10.559  68.657  1.00  0.00    -0.130 A  
HETATM   18  C   UNL     1      -6.840   9.691  70.475  1.00  0.00    -0.126 A  
HETATM   19  C   UNL     1      -7.967   9.099  71.050  1.00  0.00    -0.166 A  
HETATM   20  C   UNL     1      -9.321   9.924  69.211  1.00  0.00    -0.215 A  
HETATM   21  C   UNL     1      -6.967  10.421  69.290  1.00  0.00    -0.080 A  
HETATM   22  C   UNL     1      -9.200   9.220  70.418  1.00  0.00    -0.291 A  
ENDBRANCH  16  17
ENDBRANCH   8  16
BRANCH  10  23
HETATM   23  S   UNL     1      -8.796  10.045  64.903  1.00  0.00    -0.211 S  
HETATM   24  O   UNL     1      -7.373  10.202  65.096  1.00  0.00    -0.134 OA 
HETATM   25  H2  UNL     1      -9.947   8.737  66.610  1.00  0.00     0.000 HD 
HETATM   26  H1  UNL     1      -8.807   7.958  65.399  1.00  0.00     0.000 HD 
HETATM   27  N   UNL     1      -9.301   8.744  65.820  1.00  0.00    -0.218 N  
HETATM   28  O   UNL     1      -9.355   9.809  63.587  1.00  0.00    -0.253 OA 
ENDBRANCH  10  23
ENDBRANCH   5   7
ENDBRANCH   4   5
ENDBRANCH   3   4
ENDBRANCH   2   3
TORSDOF 7
ENDMDL
MODEL       86
REMARK 921   NORMALIZED FREE ENERGY PREDICTED BY IDOCK:   -4.67 KCAL/MOL
REMARK 922        TOTAL FREE ENERGY PREDICTED BY IDOCK:   -7.35 KCAL/MOL
REMARK 923 INTER-LIGAND FREE ENERGY PREDICTED BY IDOCK:   -7.52 KCAL/MOL
REMARK 924 INTRA-LIGAND FREE ENERGY PREDICTED BY IDOCK:    0.17 KCAL/MOL
REMARK 927      BINDING AFFINITY PREDICTED BY RF-SCORE:    0.00 PKD
ROOT
HETATM    1  C   UNL     1     -14.240  13.853  72.304  1.00  0.00    -0.584 C  
HETATM    2  C   UNL     1     -13.377  15.087  72.125  1.00  0.00    -0.485 C  
ENDROOT
BRANCH   2   3
HETATM    3  C   UNL     1     -13.010  15.288  70.651  1.00  0.00    -0.442 C  
BRANCH   3   4
HETATM    4  C   UNL     1     -11.658  15.971  70.520  1.00  0.00    -0.362 C  
BRANCH   4   5
HETATM    5  N   UNL     1     -11.356  16.318  69.133  1.00  0.00    -0.317 NA 
HETATM    6  H   UNL     1     -11.815  17.116  68.694  1.00  0.00     0.000 HD 
BRANCH   5   7
HETATM    7  C   UNL     1     -10.440  15.557  68.412  1.00  0.00    -0.240 A  
HETATM    8  C   UNL     1      -9.041  15.735  68.495  1.00  0.00    -0.194 A  
HETATM    9  C   UNL     1     -10.754  12.546  66.141  1.00  0.00    -0.261 C  
HETATM   10  C   UNL     1      -8.202  14.846  67.786  1.00  0.00    -0.156 A  
HETATM   11  O   UNL     1     -10.081  12.130  65.053  1.00  0.00    -0.269 OA 
HETATM   12  O   UNL     1     -11.837  12.088  66.468  1.00  0.00    -0.585 OA 
HETATM   13  C   UNL     1      -8.720  13.796  67.000  1.00  0.00    -0.212 A  
HETATM   14  C   UNL     1     -10.096  13.641  66.897  1.00  0.00    -0.260 A  
HETATM   15  C   UNL     1     -10.927  14.512  67.599  1.00  0.00    -0.293 A  
BRANCH   8  16
HETATM   16  O   UNL     1      -8.461  16.848  69.070  1.00  0.00    -0.231 OA 
BRANCH  16  17
HETATM   17  C   UNL     1      -8.294  18.039  68.401  1.00  0.00    -0.298 A  
HETATM   18  C   UNL     1      -9.321  19.552  66.788  1.00  0.00    -0.431 A  
HETATM   19  C   UNL     1      -8.281  20.466  66.977  1.00  0.00    -0.349 A  
HETATM   20  C   UNL     1      -7.237  18.934  68.545  1.00  0.00    -0.320 A  
HETATM   21  C   UNL     1      -9.327  18.351  67.503  1.00  0.00    -0.270 A  
HETATM   22  C   UNL     1      -7.248  20.155  67.854  1.00  0.00    -0.329 A  
ENDBRANCH  16  17
ENDBRANCH   8  16
BRANCH  10  23
HETATM   23  S   UNL     1      -6.443  14.982  67.886  1.00  0.00    -0.169 S  
HETATM   24  O   UNL     1      -5.828  13.806  67.317  1.00  0.00    -0.326 OA 
HETATM   25  H2  UNL     1      -6.757  16.848  66.347  1.00  0.00     0.000 HD 
HETATM   26  H1  UNL     1      -5.091  16.354  66.943  1.00  0.00     0.000 HD 
HETATM   27  N   UNL     1      -6.106  16.276  66.885  1.00  0.00    -0.036 N  
HETATM   28  O   UNL     1      -6.098  15.443  69.216  1.00  0.00    -0.105 OA 
ENDBRANCH  10  23
ENDBRANCH   5   7
ENDBRANCH   4   5
ENDBRANCH   3   4
ENDBRANCH   2   3
TORSDOF 7
ENDMDL
MODEL       87
REMARK 921   NORMALIZED FREE ENERGY PREDICTED BY IDOCK:   -4.67 KCAL/MOL
REMARK 922        TOTAL FREE ENERGY PREDICTED BY IDOCK:   -7.35 KCAL/MOL
REMARK 923 INTER-LIGAND FREE ENERGY PREDICTED BY IDOCK:   -7.17 KCAL/MOL
REMARK 924 INTRA-LIGAND FREE ENERGY PREDICTED BY IDOCK:   -0.18 KCAL/MOL
REMARK 927      BINDING AFFINITY PREDICTED BY RF-SCORE:    0.00 PKD
ROOT
HETATM    1  C   UNL     1      -9.612   6.734  66.630  1.00  0.00    -0.211 C  
HETATM    2  C   UNL     1      -8.727   7.750  65.931  1.00  0.00    -0.175 C  
ENDROOT
BRANCH   2   3
HETATM    3  C   UNL     1      -9.330   9.155  66.023  1.00  0.00    -0.300 C  
BRANCH   3   4
HETATM    4  C   UNL     1     -10.273   9.260  67.211  1.00  0.00    -0.252 C  
BRANCH   4   5
HETATM    5  N   UNL     1     -10.540  10.651  67.572  1.00  0.00    -0.233 NA 
HETATM    6  H   UNL     1     -10.301  11.402  66.924  1.00  0.00     0.000 HD 
BRANCH   5   7
HETATM    7  C   UNL     1     -11.123  10.948  68.800  1.00  0.00    -0.256 A  
HETATM    8  C   UNL     1     -11.420  12.262  69.224  1.00  0.00    -0.292 A  
HETATM    9  C   UNL     1     -12.540   8.836  71.603  1.00  0.00    -0.345 C  
HETATM   10  C   UNL     1     -12.094  12.440  70.455  1.00  0.00    -0.297 A  
HETATM   11  O   UNL     1     -12.595   8.984  72.938  1.00  0.00    -0.234 OA 
HETATM   12  O   UNL     1     -12.757   7.774  71.042  1.00  0.00    -0.219 OA 
HETATM   13  C   UNL     1     -12.471  11.350  71.264  1.00  0.00    -0.423 A  
HETATM   14  C   UNL     1     -12.153  10.061  70.859  1.00  0.00    -0.448 A  
HETATM   15  C   UNL     1     -11.493   9.881  69.645  1.00  0.00    -0.160 A  
BRANCH   8  16
HETATM   16  O   UNL     1     -10.913  13.384  68.600  1.00  0.00    -0.244 OA 
BRANCH  16  17
HETATM   17  C   UNL     1     -11.057  13.624  67.253  1.00  0.00    -0.293 A  
HETATM   18  C   UNL     1     -12.684  13.771  65.442  1.00  0.00    -0.513 A  
HETATM   19  C   UNL     1     -11.675  14.171  64.562  1.00  0.00    -0.426 A  
HETATM   20  C   UNL     1     -10.051  13.975  66.356  1.00  0.00    -0.299 A  
HETATM   21  C   UNL     1     -12.374  13.507  66.779  1.00  0.00    -0.326 A  
HETATM   22  C   UNL     1     -10.366  14.273  65.023  1.00  0.00    -0.448 A  
ENDBRANCH  16  17
ENDBRANCH   8  16
BRANCH  10  23
HETATM   23  S   UNL     1     -12.540  14.054  71.020  1.00  0.00    -0.378 S  
HETATM   24  O   UNL     1     -13.293  13.951  72.248  1.00  0.00    -0.415 OA 
HETATM   25  H2  UNL     1     -10.133  14.345  71.289  1.00  0.00     0.000 HD 
HETATM   26  H1  UNL     1     -11.322  15.683  71.703  1.00  0.00     0.000 HD 
HETATM   27  N   UNL     1     -11.065  14.752  71.376  1.00  0.00     0.009 N  
HETATM   28  O   UNL     1     -13.043  14.809  69.890  1.00  0.00     0.010 OA 
ENDBRANCH  10  23
ENDBRANCH   5   7
ENDBRANCH   4   5
ENDBRANCH   3   4
ENDBRANCH   2   3
TORSDOF 7
ENDMDL
MODEL       88
REMARK 921   NORMALIZED FREE ENERGY PREDICTED BY IDOCK:   -4.66 KCAL/MOL
REMARK 922        TOTAL FREE ENERGY PREDICTED BY IDOCK:   -7.34 KCAL/MOL
REMARK 923 INTER-LIGAND FREE ENERGY PREDICTED BY IDOCK:   -6.82 KCAL/MOL
REMARK 924 INTRA-LIGAND FREE ENERGY PREDICTED BY IDOCK:   -0.51 KCAL/MOL
REMARK 927      BINDING AFFINITY PREDICTED BY RF-SCORE:    0.00 PKD
ROOT
HETATM    1  C   UNL     1     -12.710  12.492  64.273  1.00  0.00    -0.432 C  
HETATM    2  C   UNL     1     -11.368  12.671  63.588  1.00  0.00    -0.544 C  
ENDROOT
BRANCH   2   3
HETATM    3  C   UNL     1     -10.490  11.430  63.775  1.00  0.00    -0.456 C  
BRANCH   3   4
HETATM    4  C   UNL     1      -9.793  11.461  65.126  1.00  0.00    -0.260 C  
BRANCH   4   5
HETATM    5  N   UNL     1     -10.260  10.391  66.004  1.00  0.00    -0.243 NA 
HETATM    6  H   UNL     1     -10.229   9.421  65.689  1.00  0.00     0.000 HD 
BRANCH   5   7
HETATM    7  C   UNL     1     -10.747  10.698  67.271  1.00  0.00    -0.285 A  
HETATM    8  C   UNL     1     -10.826   9.760  68.324  1.00  0.00    -0.210 A  
HETATM    9  C   UNL     1     -11.854  13.909  68.941  1.00  0.00    -0.358 C  
HETATM   10  C   UNL     1     -11.254  10.205  69.597  1.00  0.00    -0.261 A  
HETATM   11  O   UNL     1     -12.785  14.199  69.868  1.00  0.00    -0.255 OA 
HETATM   12  O   UNL     1     -11.318  14.758  68.248  1.00  0.00    -0.274 OA 
HETATM   13  C   UNL     1     -11.606  11.549  69.839  1.00  0.00    -0.387 A  
HETATM   14  C   UNL     1     -11.555  12.462  68.795  1.00  0.00    -0.373 A  
HETATM   15  C   UNL     1     -11.129  12.029  67.541  1.00  0.00    -0.331 A  
BRANCH   8  16
HETATM   16  O   UNL     1     -10.698   8.400  68.127  1.00  0.00    -0.152 OA 
BRANCH  16  17
HETATM   17  C   UNL     1      -9.537   7.811  67.681  1.00  0.00    -0.146 A  
HETATM   18  C   UNL     1      -8.634   6.201  66.088  1.00  0.00    -0.141 A  
HETATM   19  C   UNL     1      -7.336   6.521  66.493  1.00  0.00    -0.078 A  
HETATM   20  C   UNL     1      -8.243   8.087  68.113  1.00  0.00    -0.126 A  
HETATM   21  C   UNL     1      -9.724   6.848  66.675  1.00  0.00    -0.221 A  
HETATM   22  C   UNL     1      -7.146   7.462  67.500  1.00  0.00    -0.088 A  
ENDBRANCH  16  17
ENDBRANCH   8  16
BRANCH  10  23
HETATM   23  S   UNL     1     -11.327   9.095  70.969  1.00  0.00    -0.336 S  
HETATM   24  O   UNL     1     -11.630   7.761  70.504  1.00  0.00    -0.253 OA 
HETATM   25  H2  UNL     1      -8.954   9.615  71.187  1.00  0.00     0.000 HD 
HETATM   26  H1  UNL     1      -9.801   8.457  72.335  1.00  0.00     0.000 HD 
HETATM   27  N   UNL     1      -9.758   9.098  71.543  1.00  0.00    -0.285 N  
HETATM   28  O   UNL     1     -12.106   9.721  72.019  1.00  0.00    -0.328 OA 
ENDBRANCH  10  23
ENDBRANCH   5   7
ENDBRANCH   4   5
ENDBRANCH   3   4
ENDBRANCH   2   3
TORSDOF 7
ENDMDL
MODEL       89
REMARK 921   NORMALIZED FREE ENERGY PREDICTED BY IDOCK:   -4.62 KCAL/MOL
REMARK 922        TOTAL FREE ENERGY PREDICTED BY IDOCK:   -7.28 KCAL/MOL
REMARK 923 INTER-LIGAND FREE ENERGY PREDICTED BY IDOCK:   -6.54 KCAL/MOL
REMARK 924 INTRA-LIGAND FREE ENERGY PREDICTED BY IDOCK:   -0.74 KCAL/MOL
REMARK 927      BINDING AFFINITY PREDICTED BY RF-SCORE:    0.00 PKD
ROOT
HETATM    1  C   UNL     1      -9.774  13.616  66.460  1.00  0.00    -0.298 C  
HETATM    2  C   UNL     1     -10.427  12.469  65.711  1.00  0.00    -0.296 C  
ENDROOT
BRANCH   2   3
HETATM    3  C   UNL     1      -9.961  11.119  66.266  1.00  0.00    -0.261 C  
BRANCH   3   4
HETATM    4  C   UNL     1     -10.773  10.731  67.491  1.00  0.00    -0.264 C  
BRANCH   4   5
HETATM    5  N   UNL     1      -9.927  10.202  68.559  1.00  0.00    -0.158 NA 
HETATM    6  H   UNL     1      -8.930  10.418  68.577  1.00  0.00     0.000 HD 
BRANCH   5   7
HETATM    7  C   UNL     1     -10.485   9.403  69.553  1.00  0.00    -0.218 A  
HETATM    8  C   UNL     1      -9.966   8.142  69.923  1.00  0.00    -0.190 A  
HETATM    9  C   UNL     1     -13.290   9.903  72.044  1.00  0.00    -0.432 C  
HETATM   10  C   UNL     1     -10.560   7.457  71.008  1.00  0.00    -0.224 A  
HETATM   11  O   UNL     1     -14.194   9.078  72.600  1.00  0.00    -0.574 OA 
HETATM   12  O   UNL     1     -13.387  11.119  72.083  1.00  0.00    -0.452 OA 
HETATM   13  C   UNL     1     -11.651   7.993  71.722  1.00  0.00    -0.331 A  
HETATM   14  C   UNL     1     -12.177   9.219  71.339  1.00  0.00    -0.426 A  
HETATM   15  C   UNL     1     -11.591   9.900  70.273  1.00  0.00    -0.319 A  
BRANCH   8  16
HETATM   16  O   UNL     1      -9.042   7.459  69.158  1.00  0.00    -0.135 OA 
BRANCH  16  17
HETATM   17  C   UNL     1      -9.394   6.615  68.130  1.00  0.00    -0.114 A  
HETATM   18  C   UNL     1      -8.628   4.739  66.773  1.00  0.00    -0.108 A  
HETATM   19  C   UNL     1      -9.870   4.686  66.137  1.00  0.00    -0.240 A  
HETATM   20  C   UNL     1     -10.611   6.585  67.455  1.00  0.00    -0.364 A  
HETATM   21  C   UNL     1      -8.398   5.694  67.767  1.00  0.00    -0.100 A  
HETATM   22  C   UNL     1     -10.855   5.606  66.481  1.00  0.00    -0.239 A  
ENDBRANCH  16  17
ENDBRANCH   8  16
BRANCH  10  23
HETATM   23  S   UNL     1      -9.928   5.900  71.554  1.00  0.00    -0.184 S  
HETATM   24  O   UNL     1      -8.552   6.048  71.965  1.00  0.00    -0.134 OA 
HETATM   25  H2  UNL     1     -11.583   6.141  73.330  1.00  0.00     0.000 HD 
HETATM   26  H1  UNL     1     -10.477   4.678  73.230  1.00  0.00     0.000 HD 
HETATM   27  N   UNL     1     -10.841   5.577  72.915  1.00  0.00    -0.249 N  
HETATM   28  O   UNL     1     -10.323   4.888  70.595  1.00  0.00    -0.228 OA 
ENDBRANCH  10  23
ENDBRANCH   5   7
ENDBRANCH   4   5
ENDBRANCH   3   4
ENDBRANCH   2   3
TORSDOF 7
ENDMDL
MODEL       90
REMARK 921   NORMALIZED FREE ENERGY PREDICTED BY IDOCK:   -4.62 KCAL/MOL
REMARK 922        TOTAL FREE ENERGY PREDICTED BY IDOCK:   -7.27 KCAL/MOL
REMARK 923 INTER-LIGAND FREE ENERGY PREDICTED BY IDOCK:   -5.79 KCAL/MOL
REMARK 924 INTRA-LIGAND FREE ENERGY PREDICTED BY IDOCK:   -1.48 KCAL/MOL
REMARK 927      BINDING AFFINITY PREDICTED BY RF-SCORE:    0.00 PKD
ROOT
HETATM    1  C   UNL     1      -5.717   6.480  64.526  1.00  0.00    -0.030 C  
HETATM    2  C   UNL     1      -6.829   5.519  64.904  1.00  0.00    -0.048 C  
ENDROOT
BRANCH   2   3
HETATM    3  C   UNL     1      -8.193   6.214  64.853  1.00  0.00    -0.125 C  
BRANCH   3   4
HETATM    4  C   UNL     1      -8.691   6.529  66.255  1.00  0.00    -0.144 C  
BRANCH   4   5
HETATM    5  N   UNL     1     -10.018   7.140  66.237  1.00  0.00    -0.441 NA 
HETATM    6  H   UNL     1     -10.740   6.776  65.615  1.00  0.00     0.000 HD 
BRANCH   5   7
HETATM    7  C   UNL     1     -10.294   8.221  67.070  1.00  0.00    -0.323 A  
HETATM    8  C   UNL     1     -10.528   9.531  66.596  1.00  0.00    -0.171 A  
HETATM    9  C   UNL     1     -10.906   8.567  70.789  1.00  0.00    -0.231 C  
HETATM   10  C   UNL     1     -10.888  10.533  67.526  1.00  0.00    -0.301 A  
HETATM   11  O   UNL     1     -10.639   9.532  71.686  1.00  0.00    -0.291 OA 
HETATM   12  O   UNL     1     -11.213   7.430  71.106  1.00  0.00    -0.248 OA 
HETATM   13  C   UNL     1     -11.015  10.262  68.904  1.00  0.00    -0.279 A  
HETATM   14  C   UNL     1     -10.757   8.981  69.370  1.00  0.00    -0.202 A  
HETATM   15  C   UNL     1     -10.407   7.989  68.456  1.00  0.00    -0.229 A  
BRANCH   8  16
HETATM   16  O   UNL     1     -10.230   9.925  65.307  1.00  0.00    -0.269 OA 
BRANCH  16  17
HETATM   17  C   UNL     1      -8.957   9.893  64.786  1.00  0.00    -0.217 A  
HETATM   18  C   UNL     1      -7.679   9.594  62.730  1.00  0.00    -0.117 A  
HETATM   19  C   UNL     1      -6.497   9.873  63.420  1.00  0.00    -0.126 A  
HETATM   20  C   UNL     1      -7.768  10.121  65.473  1.00  0.00    -0.145 A  
HETATM   21  C   UNL     1      -8.900   9.611  63.411  1.00  0.00    -0.251 A  
HETATM   22  C   UNL     1      -6.547  10.138  64.784  1.00  0.00    -0.124 A  
ENDBRANCH  16  17
ENDBRANCH   8  16
BRANCH  10  23
HETATM   23  S   UNL     1     -11.242  12.180  66.994  1.00  0.00    -0.334 S  
HETATM   24  O   UNL     1     -12.217  12.151  65.929  1.00  0.00    -0.604 OA 
HETATM   25  H2  UNL     1     -12.156  12.435  69.242  1.00  0.00     0.000 HD 
HETATM   26  H1  UNL     1     -12.170  13.815  68.029  1.00  0.00     0.000 HD 
HETATM   27  N   UNL     1     -11.965  12.864  68.336  1.00  0.00    -0.305 N  
HETATM   28  O   UNL     1      -9.988  12.890  66.848  1.00  0.00    -0.229 OA 
ENDBRANCH  10  23
ENDBRANCH   5   7
ENDBRANCH   4   5
ENDBRANCH   3   4
ENDBRANCH   2   3
TORSDOF 7
ENDMDL
MODEL       91
REMARK 921   NORMALIZED FREE ENERGY PREDICTED BY IDOCK:   -4.57 KCAL/MOL
REMARK 922        TOTAL FREE ENERGY PREDICTED BY IDOCK:   -7.21 KCAL/MOL
REMARK 923 INTER-LIGAND FREE ENERGY PREDICTED BY IDOCK:   -6.27 KCAL/MOL
REMARK 924 INTRA-LIGAND FREE ENERGY PREDICTED BY IDOCK:   -0.95 KCAL/MOL
REMARK 927      BINDING AFFINITY PREDICTED BY RF-SCORE:    0.00 PKD
ROOT
HETATM    1  C   UNL     1      -5.219  13.107  70.581  1.00  0.00    -0.135 C  
HETATM    2  C   UNL     1      -5.962  14.401  70.857  1.00  0.00    -0.185 C  
ENDROOT
BRANCH   2   3
HETATM    3  C   UNL     1      -5.508  15.507  69.899  1.00  0.00    -0.117 C  
BRANCH   3   4
HETATM    4  C   UNL     1      -6.683  16.383  69.492  1.00  0.00    -0.202 C  
BRANCH   4   5
HETATM    5  N   UNL     1      -7.115  16.112  68.123  1.00  0.00    -0.127 NA 
HETATM    6  H   UNL     1      -6.876  16.762  67.373  1.00  0.00     0.000 HD 
BRANCH   5   7
HETATM    7  C   UNL     1      -7.852  14.964  67.842  1.00  0.00    -0.137 A  
HETATM    8  C   UNL     1      -9.264  14.929  67.827  1.00  0.00    -0.186 A  
HETATM    9  C   UNL     1      -6.926  11.472  66.714  1.00  0.00    -0.108 C  
HETATM   10  C   UNL     1      -9.907  13.730  67.441  1.00  0.00    -0.238 A  
HETATM   11  O   UNL     1      -7.448  10.255  66.945  1.00  0.00    -0.097 OA 
HETATM   12  O   UNL     1      -5.815  11.640  66.240  1.00  0.00    -0.187 OA 
HETATM   13  C   UNL     1      -9.181  12.577  67.078  1.00  0.00    -0.214 A  
HETATM   14  C   UNL     1      -7.795  12.606  67.121  1.00  0.00    -0.110 A  
HETATM   15  C   UNL     1      -7.156  13.787  67.495  1.00  0.00    -0.172 A  
BRANCH   8  16
HETATM   16  O   UNL     1     -10.044  15.936  68.358  1.00  0.00    -0.218 OA 
BRANCH  16  17
HETATM   17  C   UNL     1     -10.245  17.143  67.729  1.00  0.00    -0.324 A  
HETATM   18  C   UNL     1     -10.417  19.548  68.091  1.00  0.00    -0.497 A  
HETATM   19  C   UNL     1     -10.526  19.752  66.714  1.00  0.00    -0.610 A  
HETATM   20  C   UNL     1     -10.405  17.353  66.362  1.00  0.00    -0.317 A  
HETATM   21  C   UNL     1     -10.271  18.251  68.591  1.00  0.00    -0.377 A  
HETATM   22  C   UNL     1     -10.517  18.657  65.857  1.00  0.00    -0.395 A  
ENDBRANCH  16  17
ENDBRANCH   8  16
BRANCH  10  23
HETATM   23  S   UNL     1     -11.669  13.633  67.354  1.00  0.00    -0.396 S  
HETATM   24  O   UNL     1     -12.149  14.446  66.261  1.00  0.00    -0.409 OA 
HETATM   25  H2  UNL     1     -11.256  11.290  66.812  1.00  0.00     0.000 HD 
HETATM   26  H1  UNL     1     -12.957  11.975  66.912  1.00  0.00     0.000 HD 
HETATM   27  N   UNL     1     -11.941  12.032  66.963  1.00  0.00    -0.161 N  
HETATM   28  O   UNL     1     -12.199  13.782  68.694  1.00  0.00    -0.347 OA 
ENDBRANCH  10  23
ENDBRANCH   5   7
ENDBRANCH   4   5
ENDBRANCH   3   4
ENDBRANCH   2   3
TORSDOF 7
ENDMDL
MODEL       92
REMARK 921   NORMALIZED FREE ENERGY PREDICTED BY IDOCK:   -4.56 KCAL/MOL
REMARK 922        TOTAL FREE ENERGY PREDICTED BY IDOCK:   -7.20 KCAL/MOL
REMARK 923 INTER-LIGAND FREE ENERGY PREDICTED BY IDOCK:   -6.22 KCAL/MOL
REMARK 924 INTRA-LIGAND FREE ENERGY PREDICTED BY IDOCK:   -0.98 KCAL/MOL
REMARK 927      BINDING AFFINITY PREDICTED BY RF-SCORE:    0.00 PKD
ROOT
HETATM    1  C   UNL     1      -7.050   6.012  66.863  1.00  0.00    -0.070 C  
HETATM    2  C   UNL     1      -8.084   7.089  67.131  1.00  0.00    -0.118 C  
ENDROOT
BRANCH   2   3
HETATM    3  C   UNL     1      -9.455   6.680  66.583  1.00  0.00    -0.201 C  
BRANCH   3   4
HETATM    4  C   UNL     1     -10.544   7.600  67.110  1.00  0.00    -0.340 C  
BRANCH   4   5
HETATM    5  N   UNL     1     -10.003   8.636  67.988  1.00  0.00    -0.174 NA 
HETATM    6  H   UNL     1      -9.230   8.420  68.618  1.00  0.00     0.000 HD 
BRANCH   5   7
HETATM    7  C   UNL     1     -10.545   9.918  67.964  1.00  0.00    -0.242 A  
HETATM    8  C   UNL     1     -10.595  10.721  66.803  1.00  0.00    -0.250 A  
HETATM    9  C   UNL     1     -12.399  12.022  70.505  1.00  0.00    -0.282 C  
HETATM   10  C   UNL     1     -11.250  11.973  66.874  1.00  0.00    -0.320 A  
HETATM   11  O   UNL     1     -12.453  13.343  70.752  1.00  0.00    -0.354 OA 
HETATM   12  O   UNL     1     -12.802  11.182  71.292  1.00  0.00    -0.394 OA 
HETATM   13  C   UNL     1     -11.845  12.438  68.064  1.00  0.00    -0.376 A  
HETATM   14  C   UNL     1     -11.769  11.659  69.210  1.00  0.00    -0.396 A  
HETATM   15  C   UNL     1     -11.130  10.423  69.144  1.00  0.00    -0.296 A  
BRANCH   8  16
HETATM   16  O   UNL     1      -9.871  10.437  65.663  1.00  0.00    -0.225 OA 
BRANCH  16  17
HETATM   17  C   UNL     1      -8.502  10.562  65.592  1.00  0.00    -0.176 A  
HETATM   18  C   UNL     1      -6.579  10.325  64.112  1.00  0.00    -0.072 A  
HETATM   19  C   UNL     1      -5.742  10.825  65.112  1.00  0.00    -0.061 A  
HETATM   20  C   UNL     1      -7.652  11.011  66.599  1.00  0.00    -0.146 A  
HETATM   21  C   UNL     1      -7.950  10.203  64.351  1.00  0.00    -0.153 A  
HETATM   22  C   UNL     1      -6.281  11.167  66.348  1.00  0.00    -0.127 A  
ENDBRANCH  16  17
ENDBRANCH   8  16
BRANCH  10  23
HETATM   23  S   UNL     1     -11.392  13.005  65.446  1.00  0.00    -0.307 S  
HETATM   24  O   UNL     1     -11.781  12.210  64.305  1.00  0.00    -0.350 OA 
HETATM   25  H2  UNL     1     -13.227  14.028  66.686  1.00  0.00     0.000 HD 
HETATM   26  H1  UNL     1     -12.749  14.608  65.009  1.00  0.00     0.000 HD 
HETATM   27  N   UNL     1     -12.667  14.012  65.833  1.00  0.00    -0.468 N  
HETATM   28  O   UNL     1     -10.234  13.875  65.398  1.00  0.00    -0.321 OA 
ENDBRANCH  10  23
ENDBRANCH   5   7
ENDBRANCH   4   5
ENDBRANCH   3   4
ENDBRANCH   2   3
TORSDOF 7
ENDMDL
MODEL       93
REMARK 921   NORMALIZED FREE ENERGY PREDICTED BY IDOCK:   -4.55 KCAL/MOL
REMARK 922        TOTAL FREE ENERGY PREDICTED BY IDOCK:   -7.18 KCAL/MOL
REMARK 923 INTER-LIGAND FREE ENERGY PREDICTED BY IDOCK:   -6.07 KCAL/MOL
REMARK 924 INTRA-LIGAND FREE ENERGY PREDICTED BY IDOCK:   -1.11 KCAL/MOL
REMARK 927      BINDING AFFINITY PREDICTED BY RF-SCORE:    0.00 PKD
ROOT
HETATM    1  C   UNL     1     -12.580  12.295  64.124  1.00  0.00    -0.493 C  
HETATM    2  C   UNL     1     -11.959  13.669  63.955  1.00  0.00    -0.455 C  
ENDROOT
BRANCH   2   3
HETATM    3  C   UNL     1     -11.808  14.371  65.307  1.00  0.00    -0.373 C  
BRANCH   3   4
HETATM    4  C   UNL     1     -12.524  13.595  66.401  1.00  0.00    -0.324 C  
BRANCH   4   5
HETATM    5  N   UNL     1     -11.691  13.436  67.590  1.00  0.00    -0.340 NA 
HETATM    6  H   UNL     1     -12.075  13.634  68.514  1.00  0.00     0.000 HD 
BRANCH   5   7
HETATM    7  C   UNL     1     -10.371  13.011  67.461  1.00  0.00    -0.224 A  
HETATM    8  C   UNL     1      -9.274  13.685  68.041  1.00  0.00    -0.197 A  
HETATM    9  C   UNL     1      -8.747   9.950  65.938  1.00  0.00    -0.139 C  
HETATM   10  C   UNL     1      -7.987  13.114  67.919  1.00  0.00    -0.158 A  
HETATM   11  O   UNL     1      -7.576   9.736  65.313  1.00  0.00    -0.109 OA 
HETATM   12  O   UNL     1      -9.672   9.155  65.908  1.00  0.00    -0.270 OA 
HETATM   13  C   UNL     1      -7.770  11.900  67.235  1.00  0.00    -0.164 A  
HETATM   14  C   UNL     1      -8.845  11.255  66.641  1.00  0.00    -0.175 A  
HETATM   15  C   UNL     1     -10.117  11.811  66.763  1.00  0.00    -0.235 A  
BRANCH   8  16
HETATM   16  O   UNL     1      -9.365  14.966  68.547  1.00  0.00    -0.183 OA 
BRANCH  16  17
HETATM   17  C   UNL     1      -9.572  16.074  67.757  1.00  0.00    -0.219 A  
HETATM   18  C   UNL     1     -10.911  18.098  67.515  1.00  0.00    -0.264 A  
HETATM   19  C   UNL     1     -10.151  18.473  66.405  1.00  0.00    -0.430 A  
HETATM   20  C   UNL     1      -8.853  16.432  66.619  1.00  0.00    -0.283 A  
HETATM   21  C   UNL     1     -10.615  16.909  68.188  1.00  0.00    -0.360 A  
HETATM   22  C   UNL     1      -9.126  17.642  65.964  1.00  0.00    -0.041 A  
ENDBRANCH  16  17
ENDBRANCH   8  16
BRANCH  10  23
HETATM   23  S   UNL     1      -6.579  13.880  68.664  1.00  0.00    -0.104 S  
HETATM   24  O   UNL     1      -6.986  14.607  69.844  1.00  0.00    -0.162 OA 
HETATM   25  H2  UNL     1      -5.854  11.583  69.049  1.00  0.00     0.000 HD 
HETATM   26  H1  UNL     1      -4.842  13.020  69.584  1.00  0.00     0.000 HD 
HETATM   27  N   UNL     1      -5.654  12.578  69.154  1.00  0.00    -0.069 N  
HETATM   28  O   UNL     1      -5.801  14.514  67.619  1.00  0.00    -0.298 OA 
ENDBRANCH  10  23
ENDBRANCH   5   7
ENDBRANCH   4   5
ENDBRANCH   3   4
ENDBRANCH   2   3
TORSDOF 7
ENDMDL
MODEL       94
REMARK 921   NORMALIZED FREE ENERGY PREDICTED BY IDOCK:   -4.54 KCAL/MOL
REMARK 922        TOTAL FREE ENERGY PREDICTED BY IDOCK:   -7.17 KCAL/MOL
REMARK 923 INTER-LIGAND FREE ENERGY PREDICTED BY IDOCK:   -6.70 KCAL/MOL
REMARK 924 INTRA-LIGAND FREE ENERGY PREDICTED BY IDOCK:   -0.47 KCAL/MOL
REMARK 927      BINDING AFFINITY PREDICTED BY RF-SCORE:    0.00 PKD
ROOT
HETATM    1  C   UNL     1      -8.924   7.608  72.803  1.00  0.00    -0.212 C  
HETATM    2  C   UNL     1     -10.053   8.472  72.272  1.00  0.00    -0.386 C  
ENDROOT
BRANCH   2   3
HETATM    3  C   UNL     1      -9.593   9.285  71.058  1.00  0.00    -0.329 C  
BRANCH   3   4
HETATM    4  C   UNL     1     -10.776   9.959  70.380  1.00  0.00    -0.318 C  
BRANCH   4   5
HETATM    5  N   UNL     1     -10.412  10.524  69.084  1.00  0.00    -0.214 NA 
HETATM    6  H   UNL     1     -10.353  11.536  68.966  1.00  0.00     0.000 HD 
BRANCH   5   7
HETATM    7  C   UNL     1     -10.144   9.681  68.009  1.00  0.00    -0.178 A  
HETATM    8  C   UNL     1      -9.480  10.100  66.835  1.00  0.00    -0.169 A  
HETATM    9  C   UNL     1     -10.583   5.966  67.429  1.00  0.00    -0.282 C  
HETATM   10  C   UNL     1      -9.182   9.135  65.845  1.00  0.00    -0.227 A  
HETATM   11  O   UNL     1     -10.865   5.225  66.343  1.00  0.00    -0.292 OA 
HETATM   12  O   UNL     1     -10.660   5.535  68.567  1.00  0.00    -0.193 OA 
HETATM   13  C   UNL     1      -9.531   7.777  65.996  1.00  0.00    -0.058 A  
HETATM   14  C   UNL     1     -10.209   7.374  67.138  1.00  0.00    -0.347 A  
HETATM   15  C   UNL     1     -10.500   8.320  68.119  1.00  0.00    -0.226 A  
BRANCH   8  16
HETATM   16  O   UNL     1      -9.286  11.429  66.519  1.00  0.00    -0.178 OA 
BRANCH  16  17
HETATM   17  C   UNL     1     -10.321  12.314  66.323  1.00  0.00    -0.232 A  
HETATM   18  C   UNL     1     -12.370  12.699  65.058  1.00  0.00    -0.561 A  
HETATM   19  C   UNL     1     -12.603  13.870  65.783  1.00  0.00    -0.533 A  
HETATM   20  C   UNL     1     -10.536  13.509  67.004  1.00  0.00    -0.265 A  
HETATM   21  C   UNL     1     -11.239  11.925  65.334  1.00  0.00    -0.351 A  
HETATM   22  C   UNL     1     -11.688  14.268  66.752  1.00  0.00    -0.424 A  
ENDBRANCH  16  17
ENDBRANCH   8  16
BRANCH  10  23
HETATM   23  S   UNL     1      -8.309   9.582  64.375  1.00  0.00    -0.185 S  
HETATM   24  O   UNL     1      -7.061  10.219  64.723  1.00  0.00    -0.138 OA 
HETATM   25  H2  UNL     1      -8.192   7.172  64.019  1.00  0.00     0.000 HD 
HETATM   26  H1  UNL     1      -7.455   8.364  62.830  1.00  0.00     0.000 HD 
HETATM   27  N   UNL     1      -7.959   8.105  63.679  1.00  0.00    -0.150 N  
HETATM   28  O   UNL     1      -9.246  10.209  63.464  1.00  0.00    -0.250 OA 
ENDBRANCH  10  23
ENDBRANCH   5   7
ENDBRANCH   4   5
ENDBRANCH   3   4
ENDBRANCH   2   3
TORSDOF 7
ENDMDL
MODEL       95
REMARK 921   NORMALIZED FREE ENERGY PREDICTED BY IDOCK:   -4.53 KCAL/MOL
REMARK 922        TOTAL FREE ENERGY PREDICTED BY IDOCK:   -7.16 KCAL/MOL
REMARK 923 INTER-LIGAND FREE ENERGY PREDICTED BY IDOCK:   -6.40 KCAL/MOL
REMARK 924 INTRA-LIGAND FREE ENERGY PREDICTED BY IDOCK:   -0.76 KCAL/MOL
REMARK 927      BINDING AFFINITY PREDICTED BY RF-SCORE:    0.00 PKD
ROOT
HETATM    1  C   UNL     1     -13.155  15.286  72.380  1.00  0.00    -0.485 C  
HETATM    2  C   UNL     1     -12.429  14.264  71.524  1.00  0.00    -0.435 C  
ENDROOT
BRANCH   2   3
HETATM    3  C   UNL     1     -12.594  14.583  70.035  1.00  0.00    -0.281 C  
BRANCH   3   4
HETATM    4  C   UNL     1     -12.282  13.362  69.185  1.00  0.00    -0.165 C  
BRANCH   4   5
HETATM    5  N   UNL     1     -10.986  12.780  69.524  1.00  0.00    -0.454 NA 
HETATM    6  H   UNL     1     -10.314  13.313  70.077  1.00  0.00     0.000 HD 
BRANCH   5   7
HETATM    7  C   UNL     1     -10.668  11.495  69.091  1.00  0.00    -0.168 A  
HETATM    8  C   UNL     1     -10.082  11.218  67.836  1.00  0.00    -0.178 A  
HETATM    9  C   UNL     1     -10.759   8.086  70.732  1.00  0.00    -0.223 C  
HETATM   10  C   UNL     1      -9.720   9.884  67.538  1.00  0.00    -0.160 A  
HETATM   11  O   UNL     1     -10.998   6.844  70.276  1.00  0.00    -0.253 OA 
HETATM   12  O   UNL     1     -10.759   8.370  71.918  1.00  0.00    -0.256 OA 
HETATM   13  C   UNL     1      -9.930   8.831  68.452  1.00  0.00    -0.200 A  
HETATM   14  C   UNL     1     -10.532   9.102  69.673  1.00  0.00    -0.230 A  
HETATM   15  C   UNL     1     -10.885  10.416  69.973  1.00  0.00    -0.348 A  
BRANCH   8  16
HETATM   16  O   UNL     1     -10.028  12.143  66.814  1.00  0.00    -0.199 OA 
BRANCH  16  17
HETATM   17  C   UNL     1      -9.236  13.267  66.858  1.00  0.00    -0.241 A  
HETATM   18  C   UNL     1      -9.061  15.582  66.111  1.00  0.00    -0.359 A  
HETATM   19  C   UNL     1      -7.889  15.738  66.855  1.00  0.00    -0.271 A  
HETATM   20  C   UNL     1      -8.041  13.418  67.555  1.00  0.00    -0.183 A  
HETATM   21  C   UNL     1      -9.731  14.356  66.121  1.00  0.00    -0.335 A  
HETATM   22  C   UNL     1      -7.386  14.658  67.574  1.00  0.00    -0.220 A  
ENDBRANCH  16  17
ENDBRANCH   8  16
BRANCH  10  23
HETATM   23  S   UNL     1      -8.938   9.475  66.007  1.00  0.00    -0.175 S  
HETATM   24  O   UNL     1      -7.561   9.909  66.031  1.00  0.00    -0.099 OA 
HETATM   25  H2  UNL     1      -9.325   7.174  66.719  1.00  0.00     0.000 HD 
HETATM   26  H1  UNL     1      -8.503   7.570  65.124  1.00  0.00     0.000 HD 
HETATM   27  N   UNL     1      -8.954   7.805  66.007  1.00  0.00    -0.166 N  
HETATM   28  O   UNL     1      -9.829   9.854  64.928  1.00  0.00    -0.315 OA 
ENDBRANCH  10  23
ENDBRANCH   5   7
ENDBRANCH   4   5
ENDBRANCH   3   4
ENDBRANCH   2   3
TORSDOF 7
ENDMDL
MODEL       96
REMARK 921   NORMALIZED FREE ENERGY PREDICTED BY IDOCK:   -4.53 KCAL/MOL
REMARK 922        TOTAL FREE ENERGY PREDICTED BY IDOCK:   -7.15 KCAL/MOL
REMARK 923 INTER-LIGAND FREE ENERGY PREDICTED BY IDOCK:   -7.10 KCAL/MOL
REMARK 924 INTRA-LIGAND FREE ENERGY PREDICTED BY IDOCK:   -0.05 KCAL/MOL
REMARK 927      BINDING AFFINITY PREDICTED BY RF-SCORE:    0.00 PKD
ROOT
HETATM    1  C   UNL     1      -6.627   9.770  70.726  1.00  0.00    -0.089 C  
HETATM    2  C   UNL     1      -7.602   9.319  69.654  1.00  0.00    -0.084 C  
ENDROOT
BRANCH   2   3
HETATM    3  C   UNL     1      -7.546  10.249  68.439  1.00  0.00    -0.092 C  
BRANCH   3   4
HETATM    4  C   UNL     1      -7.966  11.660  68.820  1.00  0.00    -0.086 C  
BRANCH   4   5
HETATM    5  N   UNL     1      -9.398  11.874  68.623  1.00  0.00    -0.369 NA 
HETATM    6  H   UNL     1     -10.067  11.517  69.305  1.00  0.00     0.000 HD 
BRANCH   5   7
HETATM    7  C   UNL     1      -9.848  12.566  67.502  1.00  0.00    -0.198 A  
HETATM    8  C   UNL     1      -9.892  13.975  67.422  1.00  0.00    -0.240 A  
HETATM    9  C   UNL     1     -10.913  11.508  64.028  1.00  0.00    -0.383 C  
HETATM   10  C   UNL     1     -10.284  14.572  66.201  1.00  0.00    -0.305 A  
HETATM   11  O   UNL     1     -11.816  11.981  63.151  1.00  0.00    -0.355 OA 
HETATM   12  O   UNL     1     -10.400  10.406  63.925  1.00  0.00    -0.169 OA 
HETATM   13  C   UNL     1     -10.631  13.804  65.072  1.00  0.00    -0.402 A  
HETATM   14  C   UNL     1     -10.614  12.419  65.162  1.00  0.00    -0.324 A  
HETATM   15  C   UNL     1     -10.224  11.826  66.361  1.00  0.00    -0.248 A  
BRANCH   8  16
HETATM   16  O   UNL     1      -9.767  14.793  68.527  1.00  0.00    -0.206 OA 
BRANCH  16  17
HETATM   17  C   UNL     1     -10.768  14.960  69.457  1.00  0.00    -0.244 A  
HETATM   18  C   UNL     1     -11.561  16.400  71.257  1.00  0.00    -0.282 A  
HETATM   19  C   UNL     1     -12.714  15.621  71.379  1.00  0.00    -0.535 A  
HETATM   20  C   UNL     1     -11.896  14.161  69.620  1.00  0.00    -0.379 A  
HETATM   21  C   UNL     1     -10.600  16.073  70.297  1.00  0.00    -0.204 A  
HETATM   22  C   UNL     1     -12.877  14.508  70.560  1.00  0.00    -0.361 A  
ENDBRANCH  16  17
ENDBRANCH   8  16
BRANCH  10  23
HETATM   23  S   UNL     1     -10.313  16.330  66.018  1.00  0.00    -0.348 S  
HETATM   24  O   UNL     1     -10.860  16.936  67.209  1.00  0.00    -0.257 OA 
HETATM   25  H2  UNL     1      -7.884  16.109  65.977  1.00  0.00     0.000 HD 
HETATM   26  H1  UNL     1      -8.711  17.743  65.828  1.00  0.00     0.000 HD 
HETATM   27  N   UNL     1      -8.693  16.729  65.933  1.00  0.00    -0.162 N  
HETATM   28  O   UNL     1     -10.841  16.641  64.705  1.00  0.00    -0.784 OA 
ENDBRANCH  10  23
ENDBRANCH   5   7
ENDBRANCH   4   5
ENDBRANCH   3   4
ENDBRANCH   2   3
TORSDOF 7
ENDMDL
MODEL       97
REMARK 921   NORMALIZED FREE ENERGY PREDICTED BY IDOCK:   -4.52 KCAL/MOL
REMARK 922        TOTAL FREE ENERGY PREDICTED BY IDOCK:   -7.14 KCAL/MOL
REMARK 923 INTER-LIGAND FREE ENERGY PREDICTED BY IDOCK:   -6.08 KCAL/MOL
REMARK 924 INTRA-LIGAND FREE ENERGY PREDICTED BY IDOCK:   -1.06 KCAL/MOL
REMARK 927      BINDING AFFINITY PREDICTED BY RF-SCORE:    0.00 PKD
ROOT
HETATM    1  C   UNL     1     -10.486  17.709  67.999  1.00  0.00    -0.395 C  
HETATM    2  C   UNL     1      -9.654  16.459  67.781  1.00  0.00    -0.231 C  
ENDROOT
BRANCH   2   3
HETATM    3  C   UNL     1      -9.616  15.600  69.050  1.00  0.00    -0.243 C  
BRANCH   3   4
HETATM    4  C   UNL     1     -10.734  14.570  69.037  1.00  0.00    -0.251 C  
BRANCH   4   5
HETATM    5  N   UNL     1     -10.220  13.210  68.890  1.00  0.00    -0.431 NA 
HETATM    6  H   UNL     1      -9.980  12.662  69.717  1.00  0.00     0.000 HD 
BRANCH   5   7
HETATM    7  C   UNL     1     -10.058  12.664  67.620  1.00  0.00    -0.218 A  
HETATM    8  C   UNL     1      -8.990  11.809  67.270  1.00  0.00    -0.172 A  
HETATM    9  C   UNL     1     -12.165  12.684  64.476  1.00  0.00    -0.443 C  
HETATM   10  C   UNL     1      -8.974  11.241  65.975  1.00  0.00    -0.200 A  
HETATM   11  O   UNL     1     -11.873  12.680  63.164  1.00  0.00    -0.470 OA 
HETATM   12  O   UNL     1     -13.273  12.957  64.910  1.00  0.00    -0.782 OA 
HETATM   13  C   UNL     1      -9.987  11.506  65.031  1.00  0.00    -0.305 A  
HETATM   14  C   UNL     1     -11.020  12.369  65.368  1.00  0.00    -0.335 A  
HETATM   15  C   UNL     1     -11.043  12.927  66.645  1.00  0.00    -0.316 A  
BRANCH   8  16
HETATM   16  O   UNL     1      -7.863  11.659  68.052  1.00  0.00    -0.114 OA 
BRANCH  16  17
HETATM   17  C   UNL     1      -7.078  12.717  68.451  1.00  0.00    -0.101 A  
HETATM   18  C   UNL     1      -6.151  14.858  67.743  1.00  0.00    -0.149 A  
HETATM   19  C   UNL     1      -5.612  15.051  69.017  1.00  0.00    -0.097 A  
HETATM   20  C   UNL     1      -6.494  12.895  69.702  1.00  0.00    -0.044 A  
HETATM   21  C   UNL     1      -6.884  13.700  67.468  1.00  0.00    -0.152 A  
HETATM   22  C   UNL     1      -5.787  14.072  69.990  1.00  0.00    -0.133 A  
ENDBRANCH  16  17
ENDBRANCH   8  16
BRANCH  10  23
HETATM   23  S   UNL     1      -7.694  10.124  65.488  1.00  0.00    -0.148 S  
HETATM   24  O   UNL     1      -6.406  10.755  65.657  1.00  0.00    -0.122 OA 
HETATM   25  H2  UNL     1      -8.472   8.809  67.389  1.00  0.00     0.000 HD 
HETATM   26  H1  UNL     1      -7.078   8.250  66.331  1.00  0.00     0.000 HD 
HETATM   27  N   UNL     1      -7.817   8.894  66.612  1.00  0.00    -0.099 N  
HETATM   28  O   UNL     1      -8.076   9.516  64.230  1.00  0.00    -0.125 OA 
ENDBRANCH  10  23
ENDBRANCH   5   7
ENDBRANCH   4   5
ENDBRANCH   3   4
ENDBRANCH   2   3
TORSDOF 7
ENDMDL
MODEL       98
REMARK 921   NORMALIZED FREE ENERGY PREDICTED BY IDOCK:   -4.45 KCAL/MOL
REMARK 922        TOTAL FREE ENERGY PREDICTED BY IDOCK:   -7.04 KCAL/MOL
REMARK 923 INTER-LIGAND FREE ENERGY PREDICTED BY IDOCK:   -6.28 KCAL/MOL
REMARK 924 INTRA-LIGAND FREE ENERGY PREDICTED BY IDOCK:   -0.77 KCAL/MOL
REMARK 927      BINDING AFFINITY PREDICTED BY RF-SCORE:    0.00 PKD
ROOT
HETATM    1  C   UNL     1      -5.892  10.115  65.655  1.00  0.00    -0.079 C  
HETATM    2  C   UNL     1      -5.963   8.852  64.816  1.00  0.00    -0.064 C  
ENDROOT
BRANCH   2   3
HETATM    3  C   UNL     1      -6.747   9.098  63.523  1.00  0.00    -0.090 C  
BRANCH   3   4
HETATM    4  C   UNL     1      -8.168   8.572  63.645  1.00  0.00    -0.128 C  
BRANCH   4   5
HETATM    5  N   UNL     1      -9.094   9.605  64.100  1.00  0.00    -0.344 NA 
HETATM    6  H   UNL     1      -9.383  10.349  63.463  1.00  0.00     0.000 HD 
BRANCH   5   7
HETATM    7  C   UNL     1      -9.583   9.574  65.403  1.00  0.00    -0.272 A  
HETATM    8  C   UNL     1      -9.937  10.731  66.131  1.00  0.00    -0.232 A  
HETATM    9  C   UNL     1     -10.576   6.782  67.757  1.00  0.00    -0.249 C  
HETATM   10  C   UNL     1     -10.507  10.575  67.415  1.00  0.00    -0.244 A  
HETATM   11  O   UNL     1     -10.519   6.631  69.092  1.00  0.00    -0.191 OA 
HETATM   12  O   UNL     1     -10.764   5.852  66.990  1.00  0.00    -0.274 OA 
HETATM   13  C   UNL     1     -10.726   9.304  67.986  1.00  0.00    -0.231 A  
HETATM   14  C   UNL     1     -10.351   8.170  67.280  1.00  0.00    -0.373 A  
HETATM   15  C   UNL     1      -9.793   8.319  66.012  1.00  0.00    -0.025 A  
BRANCH   8  16
HETATM   16  O   UNL     1      -9.574  12.004  65.738  1.00  0.00    -0.241 OA 
BRANCH  16  17
HETATM   17  C   UNL     1     -10.461  12.905  65.196  1.00  0.00    -0.309 A  
HETATM   18  C   UNL     1     -10.919  15.282  64.901  1.00  0.00    -0.445 A  
HETATM   19  C   UNL     1     -12.029  14.975  64.111  1.00  0.00    -0.221 A  
HETATM   20  C   UNL     1     -11.599  12.610  64.449  1.00  0.00    -0.415 A  
HETATM   21  C   UNL     1     -10.139  14.251  65.432  1.00  0.00    -0.379 A  
HETATM   22  C   UNL     1     -12.362  13.643  63.887  1.00  0.00    -0.375 A  
ENDBRANCH  16  17
ENDBRANCH   8  16
BRANCH  10  23
HETATM   23  S   UNL     1     -11.019  11.979  68.359  1.00  0.00    -0.255 S  
HETATM   24  O   UNL     1     -12.190  12.572  67.757  1.00  0.00    -0.372 OA 
HETATM   25  H2  UNL     1     -11.458  10.327  70.099  1.00  0.00     0.000 HD 
HETATM   26  H1  UNL     1     -11.768  12.119  70.364  1.00  0.00     0.000 HD 
HETATM   27  N   UNL     1     -11.473  11.309  69.820  1.00  0.00    -0.297 N  
HETATM   28  O   UNL     1      -9.845  12.773  68.664  1.00  0.00    -0.173 OA 
ENDBRANCH  10  23
ENDBRANCH   5   7
ENDBRANCH   4   5
ENDBRANCH   3   4
ENDBRANCH   2   3
TORSDOF 7
ENDMDL
MODEL       99
REMARK 921   NORMALIZED FREE ENERGY PREDICTED BY IDOCK:   -4.42 KCAL/MOL
REMARK 922        TOTAL FREE ENERGY PREDICTED BY IDOCK:   -6.99 KCAL/MOL
REMARK 923 INTER-LIGAND FREE ENERGY PREDICTED BY IDOCK:   -7.13 KCAL/MOL
REMARK 924 INTRA-LIGAND FREE ENERGY PREDICTED BY IDOCK:    0.14 KCAL/MOL
REMARK 927      BINDING AFFINITY PREDICTED BY RF-SCORE:    0.00 PKD
ROOT
HETATM    1  C   UNL     1      -5.347  16.228  67.493  1.00  0.00    -0.159 C  
HETATM    2  C   UNL     1      -5.276  14.765  67.890  1.00  0.00    -0.079 C  
ENDROOT
BRANCH   2   3
HETATM    3  C   UNL     1      -6.652  14.101  67.780  1.00  0.00    -0.188 C  
BRANCH   3   4
HETATM    4  C   UNL     1      -7.757  15.097  68.091  1.00  0.00    -0.115 C  
BRANCH   4   5
HETATM    5  N   UNL     1      -9.053  14.646  67.590  1.00  0.00    -0.188 NA 
HETATM    6  H   UNL     1      -9.260  14.694  66.592  1.00  0.00     0.000 HD 
BRANCH   5   7
HETATM    7  C   UNL     1     -10.006  14.151  68.477  1.00  0.00    -0.235 A  
HETATM    8  C   UNL     1     -10.691  14.955  69.414  1.00  0.00    -0.256 A  
HETATM    9  C   UNL     1     -11.645  10.771  68.934  1.00  0.00    -0.291 C  
HETATM   10  C   UNL     1     -11.702  14.361  70.204  1.00  0.00    -0.297 A  
HETATM   11  O   UNL     1     -12.100  10.099  70.006  1.00  0.00    -0.199 OA 
HETATM   12  O   UNL     1     -11.458  10.244  67.849  1.00  0.00    -0.346 OA 
HETATM   13  C   UNL     1     -12.040  12.998  70.084  1.00  0.00    -0.377 A  
HETATM   14  C   UNL     1     -11.346  12.204  69.182  1.00  0.00    -0.333 A  
HETATM   15  C   UNL     1     -10.351  12.786  68.398  1.00  0.00    -0.248 A  
BRANCH   8  16
HETATM   16  O   UNL     1     -10.290  16.235  69.738  1.00  0.00    -0.267 OA 
BRANCH  16  17
HETATM   17  C   UNL     1     -10.420  17.304  68.880  1.00  0.00    -0.327 A  
HETATM   18  C   UNL     1     -10.045  19.702  68.653  1.00  0.00    -0.547 A  
HETATM   19  C   UNL     1     -10.465  19.646  67.322  1.00  0.00    -0.596 A  
HETATM   20  C   UNL     1     -10.884  17.268  67.568  1.00  0.00    -0.206 A  
HETATM   21  C   UNL     1     -10.018  18.536  69.422  1.00  0.00     0.051 A  
HETATM   22  C   UNL     1     -10.880  18.432  66.786  1.00  0.00    -0.135 A  
ENDBRANCH  16  17
ENDBRANCH   8  16
BRANCH  10  23
HETATM   23  S   UNL     1     -12.632  15.321  71.360  1.00  0.00    -0.417 S  
HETATM   24  O   UNL     1     -13.891  15.713  70.771  1.00  0.00    -0.449 OA 
HETATM   25  H2  UNL     1     -12.678  13.251  72.650  1.00  0.00     0.000 HD 
HETATM   26  H1  UNL     1     -13.489  14.786  73.253  1.00  0.00     0.000 HD 
HETATM   27  N   UNL     1     -12.952  14.232  72.586  1.00  0.00    -0.436 N  
HETATM   28  O   UNL     1     -11.744  16.298  71.957  1.00  0.00    -0.496 OA 
ENDBRANCH  10  23
ENDBRANCH   5   7
ENDBRANCH   4   5
ENDBRANCH   3   4
ENDBRANCH   2   3
TORSDOF 7
ENDMDL
MODEL      100
REMARK 921   NORMALIZED FREE ENERGY PREDICTED BY IDOCK:   -4.40 KCAL/MOL
REMARK 922        TOTAL FREE ENERGY PREDICTED BY IDOCK:   -6.97 KCAL/MOL
REMARK 923 INTER-LIGAND FREE ENERGY PREDICTED BY IDOCK:   -6.15 KCAL/MOL
REMARK 924 INTRA-LIGAND FREE ENERGY PREDICTED BY IDOCK:   -0.82 KCAL/MOL
REMARK 927      BINDING AFFINITY PREDICTED BY RF-SCORE:    0.00 PKD
ROOT
HETATM    1  C   UNL     1      -9.843  10.142  65.025  1.00  0.00    -0.392 C  
HETATM    2  C   UNL     1     -10.496  10.989  66.102  1.00  0.00    -0.301 C  
ENDROOT
BRANCH   2   3
HETATM    3  C   UNL     1     -10.777  10.157  67.356  1.00  0.00    -0.336 C  
BRANCH   3   4
HETATM    4  C   UNL     1     -10.503   8.684  67.099  1.00  0.00    -0.289 C  
BRANCH   4   5
HETATM    5  N   UNL     1     -10.920   7.848  68.222  1.00  0.00    -0.423 NA 
HETATM    6  H   UNL     1     -11.912   7.714  68.419  1.00  0.00     0.000 HD 
BRANCH   5   7
HETATM    7  C   UNL     1      -9.960   7.233  69.022  1.00  0.00    -0.177 A  
HETATM    8  C   UNL     1      -9.525   7.757  70.259  1.00  0.00    -0.160 A  
HETATM    9  C   UNL     1      -8.126   3.928  68.833  1.00  0.00    -0.069 C  
HETATM   10  C   UNL     1      -8.611   7.001  71.030  1.00  0.00    -0.134 A  
HETATM   11  O   UNL     1      -6.894   3.529  69.195  1.00  0.00    -0.043 OA 
HETATM   12  O   UNL     1      -8.846   3.275  68.095  1.00  0.00    -0.100 OA 
HETATM   13  C   UNL     1      -8.125   5.751  70.598  1.00  0.00    -0.117 A  
HETATM   14  C   UNL     1      -8.532   5.252  69.369  1.00  0.00    -0.094 A  
HETATM   15  C   UNL     1      -9.437   5.990  68.608  1.00  0.00    -0.134 A  
BRANCH   8  16
HETATM   16  O   UNL     1      -9.789   9.051  70.659  1.00  0.00    -0.195 OA 
BRANCH  16  17
HETATM   17  C   UNL     1     -11.033   9.472  71.070  1.00  0.00    -0.353 A  
HETATM   18  C   UNL     1     -12.970   8.865  72.421  1.00  0.00    -0.467 A  
HETATM   19  C   UNL     1     -13.551  10.107  72.155  1.00  0.00    -0.295 A  
HETATM   20  C   UNL     1     -11.643  10.687  70.770  1.00  0.00    -0.388 A  
HETATM   21  C   UNL     1     -11.716   8.556  71.886  1.00  0.00    -0.409 A  
HETATM   22  C   UNL     1     -12.885  11.012  71.334  1.00  0.00    -0.548 A  
ENDBRANCH  16  17
ENDBRANCH   8  16
BRANCH  10  23
HETATM   23  S   UNL     1      -8.064   7.575  72.609  1.00  0.00    -0.118 S  
HETATM   24  O   UNL     1      -9.181   7.631  73.523  1.00  0.00    -0.225 OA 
HETATM   25  H2  UNL     1      -6.790   5.495  72.637  1.00  0.00     0.000 HD 
HETATM   26  H1  UNL     1      -6.724   6.690  74.031  1.00  0.00     0.000 HD 
HETATM   27  N   UNL     1      -7.039   6.359  73.120  1.00  0.00    -0.082 N  
HETATM   28  O   UNL     1      -7.202   8.722  72.402  1.00  0.00    -0.300 OA 
ENDBRANCH  10  23
ENDBRANCH   5   7
ENDBRANCH   4   5
ENDBRANCH   3   4
ENDBRANCH   2   3
TORSDOF 7
ENDMDL
MODEL      101
REMARK 921   NORMALIZED FREE ENERGY PREDICTED BY IDOCK:   -4.40 KCAL/MOL
REMARK 922        TOTAL FREE ENERGY PREDICTED BY IDOCK:   -6.97 KCAL/MOL
REMARK 923 INTER-LIGAND FREE ENERGY PREDICTED BY IDOCK:   -6.02 KCAL/MOL
REMARK 924 INTRA-LIGAND FREE ENERGY PREDICTED BY IDOCK:   -0.95 KCAL/MOL
REMARK 927      BINDING AFFINITY PREDICTED BY RF-SCORE:    0.00 PKD
ROOT
HETATM    1  C   UNL     1      -5.630  10.279  70.182  1.00  0.00    -0.053 C  
HETATM    2  C   UNL     1      -5.654  11.788  70.338  1.00  0.00    -0.152 C  
ENDROOT
BRANCH   2   3
HETATM    3  C   UNL     1      -5.504  12.481  68.980  1.00  0.00    -0.067 C  
BRANCH   3   4
HETATM    4  C   UNL     1      -6.618  13.493  68.766  1.00  0.00    -0.102 C  
BRANCH   4   5
HETATM    5  N   UNL     1      -7.926  12.947  69.121  1.00  0.00    -0.257 NA 
HETATM    6  H   UNL     1      -8.245  12.974  70.089  1.00  0.00     0.000 HD 
BRANCH   5   7
HETATM    7  C   UNL     1      -8.735  12.390  68.135  1.00  0.00    -0.190 A  
HETATM    8  C   UNL     1      -9.576  13.152  67.293  1.00  0.00    -0.233 A  
HETATM    9  C   UNL     1      -9.153   8.886  66.766  1.00  0.00    -0.143 C  
HETATM   10  C   UNL     1     -10.287  12.488  66.266  1.00  0.00    -0.250 A  
HETATM   11  O   UNL     1     -10.200   8.203  66.271  1.00  0.00    -0.168 OA 
HETATM   12  O   UNL     1      -8.110   8.351  67.103  1.00  0.00    -0.103 OA 
HETATM   13  C   UNL     1     -10.182  11.097  66.065  1.00  0.00    -0.300 A  
HETATM   14  C   UNL     1      -9.378  10.347  66.911  1.00  0.00    -0.186 A  
HETATM   15  C   UNL     1      -8.672  10.997  67.921  1.00  0.00    -0.133 A  
BRANCH   8  16
HETATM   16  O   UNL     1      -9.891  14.471  67.545  1.00  0.00    -0.220 OA 
BRANCH  16  17
HETATM   17  C   UNL     1     -10.562  14.882  68.674  1.00  0.00    -0.251 A  
HETATM   18  C   UNL     1     -12.343  14.287  70.231  1.00  0.00    -0.418 A  
HETATM   19  C   UNL     1     -12.038  15.404  71.013  1.00  0.00    -0.417 A  
HETATM   20  C   UNL     1     -10.299  16.019  69.433  1.00  0.00    -0.272 A  
HETATM   21  C   UNL     1     -11.603  14.028  69.074  1.00  0.00    -0.345 A  
HETATM   22  C   UNL     1     -11.018  16.261  70.613  1.00  0.00    -0.179 A  
ENDBRANCH  16  17
ENDBRANCH   8  16
BRANCH  10  23
HETATM   23  S   UNL     1     -11.316  13.388  65.147  1.00  0.00    -0.308 S  
HETATM   24  O   UNL     1     -10.579  14.496  64.588  1.00  0.00    -0.405 OA 
HETATM   25  H2  UNL     1     -11.260  11.328  63.843  1.00  0.00     0.000 HD 
HETATM   26  H1  UNL     1     -12.194  12.806  63.278  1.00  0.00     0.000 HD 
HETATM   27  N   UNL     1     -11.600  12.287  63.924  1.00  0.00    -0.404 N  
HETATM   28  O   UNL     1     -12.608  13.583  65.776  1.00  0.00    -0.464 OA 
ENDBRANCH  10  23
ENDBRANCH   5   7
ENDBRANCH   4   5
ENDBRANCH   3   4
ENDBRANCH   2   3
TORSDOF 7
ENDMDL
MODEL      102
REMARK 921   NORMALIZED FREE ENERGY PREDICTED BY IDOCK:   -4.39 KCAL/MOL
REMARK 922        TOTAL FREE ENERGY PREDICTED BY IDOCK:   -6.95 KCAL/MOL
REMARK 923 INTER-LIGAND FREE ENERGY PREDICTED BY IDOCK:   -5.96 KCAL/MOL
REMARK 924 INTRA-LIGAND FREE ENERGY PREDICTED BY IDOCK:   -0.99 KCAL/MOL
REMARK 927      BINDING AFFINITY PREDICTED BY RF-SCORE:    0.00 PKD
ROOT
HETATM    1  C   UNL     1     -13.737   9.125  72.438  1.00  0.00    -0.543 C  
HETATM    2  C   UNL     1     -12.526   8.233  72.238  1.00  0.00    -0.384 C  
ENDROOT
BRANCH   2   3
HETATM    3  C   UNL     1     -12.858   7.063  71.307  1.00  0.00    -0.376 C  
BRANCH   3   4
HETATM    4  C   UNL     1     -11.609   6.571  70.593  1.00  0.00    -0.381 C  
BRANCH   4   5
HETATM    5  N   UNL     1     -11.607   6.943  69.180  1.00  0.00    -0.542 NA 
HETATM    6  H   UNL     1     -12.487   7.143  68.703  1.00  0.00     0.000 HD 
BRANCH   5   7
HETATM    7  C   UNL     1     -10.403   7.025  68.486  1.00  0.00    -0.186 A  
HETATM    8  C   UNL     1     -10.023   8.145  67.714  1.00  0.00    -0.181 A  
HETATM    9  C   UNL     1      -7.342   4.808  68.290  1.00  0.00    -0.066 C  
HETATM   10  C   UNL     1      -8.737   8.155  67.125  1.00  0.00    -0.127 A  
HETATM   11  O   UNL     1      -6.460   4.529  67.314  1.00  0.00    -0.040 OA 
HETATM   12  O   UNL     1      -7.440   4.142  69.308  1.00  0.00    -0.054 OA 
HETATM   13  C   UNL     1      -7.835   7.083  67.282  1.00  0.00    -0.110 A  
HETATM   14  C   UNL     1      -8.223   5.972  68.016  1.00  0.00    -0.113 A  
HETATM   15  C   UNL     1      -9.486   5.959  68.604  1.00  0.00    -0.137 A  
BRANCH   8  16
HETATM   16  O   UNL     1     -10.909   9.135  67.344  1.00  0.00    -0.243 OA 
BRANCH  16  17
HETATM   17  C   UNL     1     -11.182  10.233  68.128  1.00  0.00    -0.229 A  
HETATM   18  C   UNL     1     -11.882  12.567  68.072  1.00  0.00    -0.382 A  
HETATM   19  C   UNL     1     -11.904  12.599  69.468  1.00  0.00    -0.376 A  
HETATM   20  C   UNL     1     -11.158  10.290  69.519  1.00  0.00    -0.310 A  
HETATM   21  C   UNL     1     -11.530  11.388  67.410  1.00  0.00    -0.328 A  
HETATM   22  C   UNL     1     -11.545  11.462  70.184  1.00  0.00    -0.368 A  
ENDBRANCH  16  17
ENDBRANCH   8  16
BRANCH  10  23
HETATM   23  S   UNL     1      -8.179   9.546  66.189  1.00  0.00    -0.116 S  
HETATM   24  O   UNL     1      -7.798  10.615  67.082  1.00  0.00    -0.112 OA 
HETATM   25  H2  UNL     1      -6.374   8.047  65.521  1.00  0.00     0.000 HD 
HETATM   26  H1  UNL     1      -6.473   9.777  64.909  1.00  0.00     0.000 HD 
HETATM   27  N   UNL     1      -6.795   8.974  65.449  1.00  0.00    -0.072 N  
HETATM   28  O   UNL     1      -9.114   9.768  65.104  1.00  0.00    -0.189 OA 
ENDBRANCH  10  23
ENDBRANCH   5   7
ENDBRANCH   4   5
ENDBRANCH   3   4
ENDBRANCH   2   3
TORSDOF 7
ENDMDL
MODEL      103
REMARK 921   NORMALIZED FREE ENERGY PREDICTED BY IDOCK:   -4.38 KCAL/MOL
REMARK 922        TOTAL FREE ENERGY PREDICTED BY IDOCK:   -6.94 KCAL/MOL
REMARK 923 INTER-LIGAND FREE ENERGY PREDICTED BY IDOCK:   -5.90 KCAL/MOL
REMARK 924 INTRA-LIGAND FREE ENERGY PREDICTED BY IDOCK:   -1.04 KCAL/MOL
REMARK 927      BINDING AFFINITY PREDICTED BY RF-SCORE:    0.00 PKD
ROOT
HETATM    1  C   UNL     1      -6.829  11.131  66.463  1.00  0.00    -0.126 C  
HETATM    2  C   UNL     1      -6.891  10.630  67.894  1.00  0.00    -0.073 C  
ENDROOT
BRANCH   2   3
HETATM    3  C   UNL     1      -7.652  11.616  68.786  1.00  0.00    -0.119 C  
BRANCH   3   4
HETATM    4  C   UNL     1      -8.874  12.161  68.064  1.00  0.00    -0.181 C  
BRANCH   4   5
HETATM    5  N   UNL     1      -9.967  11.193  68.035  1.00  0.00    -0.172 NA 
HETATM    6  H   UNL     1     -10.078  10.571  67.234  1.00  0.00     0.000 HD 
BRANCH   5   7
HETATM    7  C   UNL     1     -10.857  11.119  69.103  1.00  0.00    -0.238 A  
HETATM    8  C   UNL     1     -11.178   9.915  69.769  1.00  0.00    -0.235 A  
HETATM    9  C   UNL     1     -12.729  13.709  71.131  1.00  0.00    -0.353 C  
HETATM   10  C   UNL     1     -12.026   9.972  70.899  1.00  0.00    -0.361 A  
HETATM   11  O   UNL     1     -13.928  13.720  71.740  1.00  0.00    -0.364 OA 
HETATM   12  O   UNL     1     -12.083  14.721  70.917  1.00  0.00    -0.285 OA 
HETATM   13  C   UNL     1     -12.560  11.189  71.372  1.00  0.00    -0.479 A  
HETATM   14  C   UNL     1     -12.266  12.366  70.698  1.00  0.00    -0.368 A  
HETATM   15  C   UNL     1     -11.426  12.315  69.588  1.00  0.00    -0.285 A  
BRANCH   8  16
HETATM   16  O   UNL     1     -10.868   8.671  69.259  1.00  0.00    -0.180 OA 
BRANCH  16  17
HETATM   17  C   UNL     1      -9.580   8.196  69.164  1.00  0.00    -0.157 A  
HETATM   18  C   UNL     1      -7.521   7.828  70.417  1.00  0.00    -0.078 A  
HETATM   19  C   UNL     1      -6.950   7.205  69.305  1.00  0.00    -0.070 A  
HETATM   20  C   UNL     1      -8.985   7.619  68.046  1.00  0.00    -0.126 A  
HETATM   21  C   UNL     1      -8.830   8.313  70.345  1.00  0.00    -0.141 A  
HETATM   22  C   UNL     1      -7.684   7.101  68.128  1.00  0.00    -0.117 A  
ENDBRANCH  16  17
ENDBRANCH   8  16
BRANCH  10  23
HETATM   23  S   UNL     1     -12.427   8.511  71.808  1.00  0.00    -0.362 S  
HETATM   24  O   UNL     1     -12.605   7.403  70.899  1.00  0.00    -0.257 OA 
HETATM   25  H2  UNL     1     -10.178   8.769  72.717  1.00  0.00     0.000 HD 
HETATM   26  H1  UNL     1     -11.275   7.385  73.225  1.00  0.00     0.000 HD 
HETATM   27  N   UNL     1     -11.044   8.229  72.701  1.00  0.00    -0.367 N  
HETATM   28  O   UNL     1     -13.438   8.850  72.789  1.00  0.00    -0.408 OA 
ENDBRANCH  10  23
ENDBRANCH   5   7
ENDBRANCH   4   5
ENDBRANCH   3   4
ENDBRANCH   2   3
TORSDOF 7
ENDMDL
MODEL      104
REMARK 921   NORMALIZED FREE ENERGY PREDICTED BY IDOCK:   -4.37 KCAL/MOL
REMARK 922        TOTAL FREE ENERGY PREDICTED BY IDOCK:   -6.92 KCAL/MOL
REMARK 923 INTER-LIGAND FREE ENERGY PREDICTED BY IDOCK:   -6.06 KCAL/MOL
REMARK 924 INTRA-LIGAND FREE ENERGY PREDICTED BY IDOCK:   -0.87 KCAL/MOL
REMARK 927      BINDING AFFINITY PREDICTED BY RF-SCORE:    0.00 PKD
ROOT
HETATM    1  C   UNL     1      -9.359  11.071  62.764  1.00  0.00    -0.372 C  
HETATM    2  C   UNL     1      -9.011   9.714  63.347  1.00  0.00    -0.246 C  
ENDROOT
BRANCH   2   3
HETATM    3  C   UNL     1      -7.780   9.808  64.253  1.00  0.00    -0.134 C  
BRANCH   3   4
HETATM    4  C   UNL     1      -8.132  10.476  65.573  1.00  0.00    -0.155 C  
BRANCH   4   5
HETATM    5  N   UNL     1      -9.504  10.185  65.982  1.00  0.00    -0.184 NA 
HETATM    6  H   UNL     1     -10.285  10.641  65.511  1.00  0.00     0.000 HD 
BRANCH   5   7
HETATM    7  C   UNL     1      -9.743   9.283  67.015  1.00  0.00    -0.185 A  
HETATM    8  C   UNL     1      -9.885   9.666  68.367  1.00  0.00    -0.153 A  
HETATM    9  C   UNL     1     -10.451   5.567  67.131  1.00  0.00    -0.257 C  
HETATM   10  C   UNL     1     -10.215   8.675  69.320  1.00  0.00    -0.211 A  
HETATM   11  O   UNL     1     -10.157   4.594  68.011  1.00  0.00    -0.105 OA 
HETATM   12  O   UNL     1     -10.834   5.342  65.994  1.00  0.00    -0.208 OA 
HETATM   13  C   UNL     1     -10.402   7.325  68.960  1.00  0.00    -0.208 A  
HETATM   14  C   UNL     1     -10.233   6.946  67.635  1.00  0.00    -0.235 A  
HETATM   15  C   UNL     1      -9.913   7.920  66.692  1.00  0.00    -0.316 A  
BRANCH   8  16
HETATM   16  O   UNL     1      -9.524  10.914  68.834  1.00  0.00    -0.188 OA 
BRANCH  16  17
HETATM   17  C   UNL     1     -10.166  12.072  68.459  1.00  0.00    -0.212 A  
HETATM   18  C   UNL     1      -9.811  14.379  67.753  1.00  0.00    -0.221 A  
HETATM   19  C   UNL     1     -11.186  14.536  67.560  1.00  0.00    -0.333 A  
HETATM   20  C   UNL     1     -11.538  12.254  68.312  1.00  0.00    -0.385 A  
HETATM   21  C   UNL     1      -9.308  13.151  68.193  1.00  0.00    -0.217 A  
HETATM   22  C   UNL     1     -12.041  13.474  67.837  1.00  0.00    -0.304 A  
ENDBRANCH  16  17
ENDBRANCH   8  16
BRANCH  10  23
HETATM   23  S   UNL     1     -10.456   9.095  71.020  1.00  0.00    -0.324 S  
HETATM   24  O   UNL     1     -11.492  10.094  71.134  1.00  0.00    -0.357 OA 
HETATM   25  H2  UNL     1     -11.205   6.781  71.218  1.00  0.00     0.000 HD 
HETATM   26  H1  UNL     1     -11.172   7.916  72.663  1.00  0.00     0.000 HD 
HETATM   27  N   UNL     1     -11.033   7.674  71.682  1.00  0.00    -0.231 N  
HETATM   28  O   UNL     1      -9.155   9.285  71.629  1.00  0.00    -0.315 OA 
ENDBRANCH  10  23
ENDBRANCH   5   7
ENDBRANCH   4   5
ENDBRANCH   3   4
ENDBRANCH   2   3
TORSDOF 7
ENDMDL
MODEL      105
REMARK 921   NORMALIZED FREE ENERGY PREDICTED BY IDOCK:   -4.37 KCAL/MOL
REMARK 922        TOTAL FREE ENERGY PREDICTED BY IDOCK:   -6.92 KCAL/MOL
REMARK 923 INTER-LIGAND FREE ENERGY PREDICTED BY IDOCK:   -6.61 KCAL/MOL
REMARK 924 INTRA-LIGAND FREE ENERGY PREDICTED BY IDOCK:   -0.31 KCAL/MOL
REMARK 927      BINDING AFFINITY PREDICTED BY RF-SCORE:    0.00 PKD
ROOT
HETATM    1  C   UNL     1     -12.966  10.356  71.638  1.00  0.00    -0.581 C  
HETATM    2  C   UNL     1     -11.810  10.684  70.712  1.00  0.00    -0.459 C  
ENDROOT
BRANCH   2   3
HETATM    3  C   UNL     1     -11.943  12.104  70.153  1.00  0.00    -0.394 C  
BRANCH   3   4
HETATM    4  C   UNL     1     -11.646  12.127  68.662  1.00  0.00    -0.321 C  
BRANCH   4   5
HETATM    5  N   UNL     1     -11.816  10.810  68.053  1.00  0.00    -0.773 NA 
HETATM    6  H   UNL     1     -12.562  10.192  68.371  1.00  0.00     0.000 HD 
BRANCH   5   7
HETATM    7  C   UNL     1     -10.957  10.401  67.036  1.00  0.00    -0.154 A  
HETATM    8  C   UNL     1     -10.185   9.220  67.097  1.00  0.00    -0.257 A  
HETATM    9  C   UNL     1     -10.229  11.686  63.552  1.00  0.00    -0.436 C  
HETATM   10  C   UNL     1      -9.415   8.856  65.968  1.00  0.00    -0.252 A  
HETATM   11  O   UNL     1      -9.125  11.712  62.785  1.00  0.00    -0.321 OA 
HETATM   12  O   UNL     1     -11.222  12.352  63.310  1.00  0.00    -0.441 OA 
HETATM   13  C   UNL     1      -9.396   9.637  64.794  1.00  0.00    -0.286 A  
HETATM   14  C   UNL     1     -10.134  10.811  64.748  1.00  0.00    -0.396 A  
HETATM   15  C   UNL     1     -10.898  11.171  65.856  1.00  0.00    -0.223 A  
BRANCH   8  16
HETATM   16  O   UNL     1      -9.987   8.513  68.266  1.00  0.00    -0.171 OA 
BRANCH  16  17
HETATM   17  C   UNL     1      -8.982   8.803  69.159  1.00  0.00    -0.137 A  
HETATM   18  C   UNL     1      -7.339  10.489  69.796  1.00  0.00    -0.139 A  
HETATM   19  C   UNL     1      -6.965   9.715  70.897  1.00  0.00    -0.042 A  
HETATM   20  C   UNL     1      -8.566   8.016  70.230  1.00  0.00    -0.132 A  
HETATM   21  C   UNL     1      -8.346  10.035  68.939  1.00  0.00    -0.130 A  
HETATM   22  C   UNL     1      -7.580   8.486  71.110  1.00  0.00    -0.104 A  
ENDBRANCH  16  17
ENDBRANCH   8  16
BRANCH  10  23
HETATM   23  S   UNL     1      -8.465   7.366  65.959  1.00  0.00    -0.152 S  
HETATM   24  O   UNL     1      -8.173   6.981  64.598  1.00  0.00    -0.110 OA 
HETATM   25  H2  UNL     1      -6.769   8.745  67.043  1.00  0.00     0.000 HD 
HETATM   26  H1  UNL     1      -6.484   6.967  66.678  1.00  0.00     0.000 HD 
HETATM   27  N   UNL     1      -7.032   7.827  66.683  1.00  0.00    -0.070 N  
HETATM   28  O   UNL     1      -9.069   6.437  66.892  1.00  0.00    -0.126 OA 
ENDBRANCH  10  23
ENDBRANCH   5   7
ENDBRANCH   4   5
ENDBRANCH   3   4
ENDBRANCH   2   3
TORSDOF 7
ENDMDL
MODEL      106
REMARK 921   NORMALIZED FREE ENERGY PREDICTED BY IDOCK:   -4.33 KCAL/MOL
REMARK 922        TOTAL FREE ENERGY PREDICTED BY IDOCK:   -6.87 KCAL/MOL
REMARK 923 INTER-LIGAND FREE ENERGY PREDICTED BY IDOCK:   -5.92 KCAL/MOL
REMARK 924 INTRA-LIGAND FREE ENERGY PREDICTED BY IDOCK:   -0.95 KCAL/MOL
REMARK 927      BINDING AFFINITY PREDICTED BY RF-SCORE:    0.00 PKD
ROOT
HETATM    1  C   UNL     1     -10.127  10.366  64.749  1.00  0.00    -0.387 C  
HETATM    2  C   UNL     1      -8.667   9.974  64.615  1.00  0.00    -0.210 C  
ENDROOT
BRANCH   2   3
HETATM    3  C   UNL     1      -8.298   8.889  65.631  1.00  0.00    -0.144 C  
BRANCH   3   4
HETATM    4  C   UNL     1      -7.678   9.503  66.876  1.00  0.00    -0.098 C  
BRANCH   4   5
HETATM    5  N   UNL     1      -8.166   8.867  68.097  1.00  0.00    -0.113 NA 
HETATM    6  H   UNL     1      -7.671   8.065  68.489  1.00  0.00     0.000 HD 
BRANCH   5   7
HETATM    7  C   UNL     1      -9.306   9.358  68.727  1.00  0.00    -0.146 A  
HETATM    8  C   UNL     1     -10.079   8.605  69.638  1.00  0.00    -0.201 A  
HETATM    9  C   UNL     1     -10.982  12.750  68.828  1.00  0.00    -0.250 C  
HETATM   10  C   UNL     1     -11.166   9.236  70.286  1.00  0.00    -0.231 A  
HETATM   11  O   UNL     1     -12.263  13.149  68.924  1.00  0.00    -0.249 OA 
HETATM   12  O   UNL     1     -10.077  13.495  68.490  1.00  0.00    -0.234 OA 
HETATM   13  C   UNL     1     -11.499  10.584  70.045  1.00  0.00    -0.393 A  
HETATM   14  C   UNL     1     -10.756  11.313  69.127  1.00  0.00    -0.247 A  
HETATM   15  C   UNL     1      -9.680  10.698  68.490  1.00  0.00    -0.177 A  
BRANCH   8  16
HETATM   16  O   UNL     1      -9.950   7.238  69.779  1.00  0.00    -0.179 OA 
BRANCH  16  17
HETATM   17  C   UNL     1      -9.987   6.366  68.715  1.00  0.00    -0.147 A  
HETATM   18  C   UNL     1      -9.058   4.287  67.842  1.00  0.00    -0.161 A  
HETATM   19  C   UNL     1      -9.921   4.357  66.745  1.00  0.00    -0.223 A  
HETATM   20  C   UNL     1     -10.807   6.453  67.594  1.00  0.00    -0.425 A  
HETATM   21  C   UNL     1      -9.099   5.283  68.821  1.00  0.00    -0.134 A  
HETATM   22  C   UNL     1     -10.791   5.436  66.627  1.00  0.00    -0.220 A  
ENDBRANCH  16  17
ENDBRANCH   8  16
BRANCH  10  23
HETATM   23  S   UNL     1     -12.143   8.366  71.475  1.00  0.00    -0.313 S  
HETATM   24  O   UNL     1     -11.411   8.244  72.713  1.00  0.00    -0.381 OA 
HETATM   25  H2  UNL     1     -13.608  10.309  71.311  1.00  0.00     0.000 HD 
HETATM   26  H1  UNL     1     -13.993   8.896  72.421  1.00  0.00     0.000 HD 
HETATM   27  N   UNL     1     -13.430   9.398  71.735  1.00  0.00    -0.399 N  
HETATM   28  O   UNL     1     -12.723   7.208  70.825  1.00  0.00    -0.260 OA 
ENDBRANCH  10  23
ENDBRANCH   5   7
ENDBRANCH   4   5
ENDBRANCH   3   4
ENDBRANCH   2   3
TORSDOF 7
ENDMDL
MODEL      107
REMARK 921   NORMALIZED FREE ENERGY PREDICTED BY IDOCK:   -4.33 KCAL/MOL
REMARK 922        TOTAL FREE ENERGY PREDICTED BY IDOCK:   -6.86 KCAL/MOL
REMARK 923 INTER-LIGAND FREE ENERGY PREDICTED BY IDOCK:   -6.35 KCAL/MOL
REMARK 924 INTRA-LIGAND FREE ENERGY PREDICTED BY IDOCK:   -0.51 KCAL/MOL
REMARK 927      BINDING AFFINITY PREDICTED BY RF-SCORE:    0.00 PKD
ROOT
HETATM    1  C   UNL     1     -10.729   5.889  68.753  1.00  0.00    -0.354 C  
HETATM    2  C   UNL     1     -10.948   6.306  67.311  1.00  0.00    -0.455 C  
ENDROOT
BRANCH   2   3
HETATM    3  C   UNL     1      -9.959   7.402  66.903  1.00  0.00    -0.307 C  
BRANCH   3   4
HETATM    4  C   UNL     1     -10.614   8.772  66.969  1.00  0.00    -0.213 C  
BRANCH   4   5
HETATM    5  N   UNL     1      -9.815   9.721  67.740  1.00  0.00    -0.155 NA 
HETATM    6  H   UNL     1      -8.798   9.634  67.762  1.00  0.00     0.000 HD 
BRANCH   5   7
HETATM    7  C   UNL     1     -10.442  10.743  68.446  1.00  0.00    -0.183 A  
HETATM    8  C   UNL     1     -10.287  12.113  68.138  1.00  0.00    -0.207 A  
HETATM    9  C   UNL     1     -13.012  10.808  71.224  1.00  0.00    -0.402 C  
HETATM   10  C   UNL     1     -11.044  13.060  68.865  1.00  0.00    -0.262 A  
HETATM   11  O   UNL     1     -13.234  11.634  72.262  1.00  0.00    -0.434 OA 
HETATM   12  O   UNL     1     -13.515   9.700  71.136  1.00  0.00    -0.356 OA 
HETATM   13  C   UNL     1     -11.938  12.678  69.885  1.00  0.00    -0.365 A  
HETATM   14  C   UNL     1     -12.067  11.333  70.205  1.00  0.00    -0.459 A  
HETATM   15  C   UNL     1     -11.328  10.396  69.487  1.00  0.00    -0.325 A  
BRANCH   8  16
HETATM   16  O   UNL     1      -9.294  12.585  67.304  1.00  0.00    -0.179 OA 
BRANCH  16  17
HETATM   17  C   UNL     1      -8.034  12.916  67.747  1.00  0.00    -0.162 A  
HETATM   18  C   UNL     1      -6.190  12.183  69.163  1.00  0.00    -0.088 A  
HETATM   19  C   UNL     1      -5.425  13.272  68.739  1.00  0.00    -0.074 A  
HETATM   20  C   UNL     1      -7.282  14.026  67.369  1.00  0.00    -0.117 A  
HETATM   21  C   UNL     1      -7.482  12.006  68.663  1.00  0.00    -0.113 A  
HETATM   22  C   UNL     1      -5.972  14.185  67.844  1.00  0.00    -0.143 A  
ENDBRANCH  16  17
ENDBRANCH   8  16
BRANCH  10  23
HETATM   23  S   UNL     1     -10.934  14.785  68.497  1.00  0.00    -0.270 S  
HETATM   24  O   UNL     1     -11.048  14.989  67.072  1.00  0.00    -0.324 OA 
HETATM   25  H2  UNL     1     -13.026  14.922  69.744  1.00  0.00     0.000 HD 
HETATM   26  H1  UNL     1     -12.240  16.409  69.006  1.00  0.00     0.000 HD 
HETATM   27  N   UNL     1     -12.303  15.414  69.219  1.00  0.00    -0.171 N  
HETATM   28  O   UNL     1      -9.829  15.342  69.251  1.00  0.00    -0.229 OA 
ENDBRANCH  10  23
ENDBRANCH   5   7
ENDBRANCH   4   5
ENDBRANCH   3   4
ENDBRANCH   2   3
TORSDOF 7
ENDMDL
MODEL      108
REMARK 921   NORMALIZED FREE ENERGY PREDICTED BY IDOCK:   -4.30 KCAL/MOL
REMARK 922        TOTAL FREE ENERGY PREDICTED BY IDOCK:   -6.83 KCAL/MOL
REMARK 923 INTER-LIGAND FREE ENERGY PREDICTED BY IDOCK:   -6.05 KCAL/MOL
REMARK 924 INTRA-LIGAND FREE ENERGY PREDICTED BY IDOCK:   -0.78 KCAL/MOL
REMARK 927      BINDING AFFINITY PREDICTED BY RF-SCORE:    0.00 PKD
ROOT
HETATM    1  C   UNL     1     -10.058  10.917  64.461  1.00  0.00    -0.404 C  
HETATM    2  C   UNL     1      -9.036   9.798  64.392  1.00  0.00    -0.284 C  
ENDROOT
BRANCH   2   3
HETATM    3  C   UNL     1      -9.166   8.864  65.599  1.00  0.00    -0.268 C  
BRANCH   3   4
HETATM    4  C   UNL     1      -8.404   9.418  66.793  1.00  0.00    -0.123 C  
BRANCH   4   5
HETATM    5  N   UNL     1      -9.002   9.003  68.060  1.00  0.00    -0.133 NA 
HETATM    6  H   UNL     1      -8.698   8.139  68.510  1.00  0.00     0.000 HD 
BRANCH   5   7
HETATM    7  C   UNL     1      -9.988   9.788  68.652  1.00  0.00    -0.167 A  
HETATM    8  C   UNL     1     -10.876   9.310  69.640  1.00  0.00    -0.212 A  
HETATM    9  C   UNL     1     -10.880  13.460  68.446  1.00  0.00    -0.264 C  
HETATM   10  C   UNL     1     -11.779  10.221  70.237  1.00  0.00    -0.306 A  
HETATM   11  O   UNL     1     -12.039  14.138  68.517  1.00  0.00    -0.342 OA 
HETATM   12  O   UNL     1      -9.845  13.954  68.028  1.00  0.00    -0.220 OA 
HETATM   13  C   UNL     1     -11.817  11.581  69.871  1.00  0.00    -0.430 A  
HETATM   14  C   UNL     1     -10.963  12.042  68.879  1.00  0.00    -0.277 A  
HETATM   15  C   UNL     1     -10.068  11.149  68.292  1.00  0.00    -0.196 A  
BRANCH   8  16
HETATM   16  O   UNL     1     -11.044   7.967  69.910  1.00  0.00    -0.222 OA 
BRANCH  16  17
HETATM   17  C   UNL     1     -10.255   7.274  70.800  1.00  0.00    -0.197 A  
HETATM   18  C   UNL     1      -9.996   5.142  71.954  1.00  0.00    -0.239 A  
HETATM   19  C   UNL     1      -8.787   5.580  72.501  1.00  0.00    -0.130 A  
HETATM   20  C   UNL     1      -9.075   7.719  71.390  1.00  0.00    -0.154 A  
HETATM   21  C   UNL     1     -10.718   5.984  71.104  1.00  0.00    -0.323 A  
HETATM   22  C   UNL     1      -8.332   6.863  72.216  1.00  0.00    -0.106 A  
ENDBRANCH  16  17
ENDBRANCH   8  16
BRANCH  10  23
HETATM   23  S   UNL     1     -12.883   9.700  71.514  1.00  0.00    -0.422 S  
HETATM   24  O   UNL     1     -12.136   9.070  72.578  1.00  0.00    -0.284 OA 
HETATM   25  H2  UNL     1     -13.283  12.090  71.789  1.00  0.00     0.000 HD 
HETATM   26  H1  UNL     1     -14.132  10.840  72.834  1.00  0.00     0.000 HD 
HETATM   27  N   UNL     1     -13.495  11.140  72.096  1.00  0.00    -0.272 N  
HETATM   28  O   UNL     1     -14.014   9.039  70.895  1.00  0.00    -0.075 OA 
ENDBRANCH  10  23
ENDBRANCH   5   7
ENDBRANCH   4   5
ENDBRANCH   3   4
ENDBRANCH   2   3
TORSDOF 7
ENDMDL
MODEL      109
REMARK 921   NORMALIZED FREE ENERGY PREDICTED BY IDOCK:   -4.29 KCAL/MOL
REMARK 922        TOTAL FREE ENERGY PREDICTED BY IDOCK:   -6.81 KCAL/MOL
REMARK 923 INTER-LIGAND FREE ENERGY PREDICTED BY IDOCK:   -6.00 KCAL/MOL
REMARK 924 INTRA-LIGAND FREE ENERGY PREDICTED BY IDOCK:   -0.81 KCAL/MOL
REMARK 927      BINDING AFFINITY PREDICTED BY RF-SCORE:    0.00 PKD
ROOT
HETATM    1  C   UNL     1      -7.849   9.035  65.982  1.00  0.00    -0.102 C  
HETATM    2  C   UNL     1      -7.794  10.153  64.957  1.00  0.00    -0.140 C  
ENDROOT
BRANCH   2   3
HETATM    3  C   UNL     1      -9.007  10.100  64.024  1.00  0.00    -0.265 C  
BRANCH   3   4
HETATM    4  C   UNL     1     -10.175  10.875  64.613  1.00  0.00    -0.345 C  
BRANCH   4   5
HETATM    5  N   UNL     1      -9.727  12.037  65.377  1.00  0.00    -0.342 NA 
HETATM    6  H   UNL     1      -9.096  12.717  64.951  1.00  0.00     0.000 HD 
BRANCH   5   7
HETATM    7  C   UNL     1     -10.163  12.216  66.687  1.00  0.00    -0.201 A  
HETATM    8  C   UNL     1     -10.549  13.467  67.216  1.00  0.00    -0.255 A  
HETATM    9  C   UNL     1     -10.916   9.844  69.538  1.00  0.00    -0.242 C  
HETATM   10  C   UNL     1     -11.060  13.515  68.534  1.00  0.00    -0.272 A  
HETATM   11  O   UNL     1     -10.800   9.934  70.875  1.00  0.00    -0.319 OA 
HETATM   12  O   UNL     1     -11.084   8.785  68.956  1.00  0.00    -0.001 OA 
HETATM   13  C   UNL     1     -11.190  12.358  69.328  1.00  0.00    -0.264 A  
HETATM   14  C   UNL     1     -10.782  11.134  68.816  1.00  0.00    -0.236 A  
HETATM   15  C   UNL     1     -10.283  11.080  67.516  1.00  0.00    -0.219 A  
BRANCH   8  16
HETATM   16  O   UNL     1     -10.269  14.664  66.590  1.00  0.00    -0.265 OA 
BRANCH  16  17
HETATM   17  C   UNL     1      -9.053  15.301  66.693  1.00  0.00    -0.282 A  
HETATM   18  C   UNL     1      -7.899  17.414  66.308  1.00  0.00    -0.330 A  
HETATM   19  C   UNL     1      -6.739  16.890  66.882  1.00  0.00    -0.252 A  
HETATM   20  C   UNL     1      -7.877  14.772  67.218  1.00  0.00    -0.223 A  
HETATM   21  C   UNL     1      -9.049  16.624  66.222  1.00  0.00    -0.333 A  
HETATM   22  C   UNL     1      -6.733  15.575  67.336  1.00  0.00    -0.200 A  
ENDBRANCH  16  17
ENDBRANCH   8  16
BRANCH  10  23
HETATM   23  S   UNL     1     -11.608  15.040  69.240  1.00  0.00    -0.336 S  
HETATM   24  O   UNL     1     -12.252  15.844  68.227  1.00  0.00     0.068 OA 
HETATM   25  H2  UNL     1     -13.093  13.607  70.541  1.00  0.00     0.000 HD 
HETATM   26  H1  UNL     1     -13.091  15.434  70.739  1.00  0.00     0.000 HD 
HETATM   27  N   UNL     1     -12.775  14.554  70.332  1.00  0.00    -0.350 N  
HETATM   28  O   UNL     1     -10.536  15.573  70.056  1.00  0.00    -0.289 OA 
ENDBRANCH  10  23
ENDBRANCH   5   7
ENDBRANCH   4   5
ENDBRANCH   3   4
ENDBRANCH   2   3
TORSDOF 7
ENDMDL
MODEL      110
REMARK 921   NORMALIZED FREE ENERGY PREDICTED BY IDOCK:   -4.29 KCAL/MOL
REMARK 922        TOTAL FREE ENERGY PREDICTED BY IDOCK:   -6.81 KCAL/MOL
REMARK 923 INTER-LIGAND FREE ENERGY PREDICTED BY IDOCK:   -6.04 KCAL/MOL
REMARK 924 INTRA-LIGAND FREE ENERGY PREDICTED BY IDOCK:   -0.77 KCAL/MOL
REMARK 927      BINDING AFFINITY PREDICTED BY RF-SCORE:    0.00 PKD
ROOT
HETATM    1  C   UNL     1      -9.082   7.272  69.201  1.00  0.00    -0.137 C  
HETATM    2  C   UNL     1      -8.325   8.326  69.989  1.00  0.00    -0.121 C  
ENDROOT
BRANCH   2   3
HETATM    3  C   UNL     1      -9.206   9.553  70.246  1.00  0.00    -0.303 C  
BRANCH   3   4
HETATM    4  C   UNL     1      -9.959   9.949  68.986  1.00  0.00    -0.187 C  
BRANCH   4   5
HETATM    5  N   UNL     1      -9.085  10.595  68.010  1.00  0.00    -0.144 NA 
HETATM    6  H   UNL     1      -8.635  10.041  67.281  1.00  0.00     0.000 HD 
BRANCH   5   7
HETATM    7  C   UNL     1      -8.866  11.969  68.077  1.00  0.00    -0.179 A  
HETATM    8  C   UNL     1      -9.864  12.931  67.804  1.00  0.00    -0.221 A  
HETATM    9  C   UNL     1      -5.943  14.101  69.186  1.00  0.00    -0.093 C  
HETATM   10  C   UNL     1      -9.555  14.298  67.990  1.00  0.00    -0.223 A  
HETATM   11  O   UNL     1      -5.464  15.294  68.791  1.00  0.00    -0.088 OA 
HETATM   12  O   UNL     1      -5.308  13.327  69.882  1.00  0.00    -0.084 OA 
HETATM   13  C   UNL     1      -8.285  14.723  68.433  1.00  0.00    -0.154 A  
HETATM   14  C   UNL     1      -7.298  13.777  68.671  1.00  0.00    -0.117 A  
HETATM   15  C   UNL     1      -7.600  12.428  68.495  1.00  0.00    -0.122 A  
BRANCH   8  16
HETATM   16  O   UNL     1     -11.055  12.619  67.180  1.00  0.00    -0.258 OA 
BRANCH  16  17
HETATM   17  C   UNL     1     -11.149  12.345  65.835  1.00  0.00    -0.313 A  
HETATM   18  C   UNL     1     -12.643  12.428  63.909  1.00  0.00    -0.528 A  
HETATM   19  C   UNL     1     -11.607  11.989  63.081  1.00  0.00    -0.265 A  
HETATM   20  C   UNL     1     -10.138  11.860  65.010  1.00  0.00    -0.297 A  
HETATM   21  C   UNL     1     -12.410  12.610  65.275  1.00  0.00    -0.528 A  
HETATM   22  C   UNL     1     -10.361  11.710  63.633  1.00  0.00    -0.466 A  
ENDBRANCH  16  17
ENDBRANCH   8  16
BRANCH  10  23
HETATM   23  S   UNL     1     -10.771  15.550  67.716  1.00  0.00    -0.303 S  
HETATM   24  O   UNL     1     -11.904  15.329  68.584  1.00  0.00    -0.346 OA 
HETATM   25  H2  UNL     1      -9.056  17.047  68.591  1.00  0.00     0.000 HD 
HETATM   26  H1  UNL     1     -10.702  17.666  68.059  1.00  0.00     0.000 HD 
HETATM   27  N   UNL     1     -10.000  16.944  68.217  1.00  0.00    -0.269 N  
HETATM   28  O   UNL     1     -10.940  15.713  66.286  1.00  0.00    -0.295 OA 
ENDBRANCH  10  23
ENDBRANCH   5   7
ENDBRANCH   4   5
ENDBRANCH   3   4
ENDBRANCH   2   3
TORSDOF 7
ENDMDL
MODEL      111
REMARK 921   NORMALIZED FREE ENERGY PREDICTED BY IDOCK:   -4.27 KCAL/MOL
REMARK 922        TOTAL FREE ENERGY PREDICTED BY IDOCK:   -6.78 KCAL/MOL
REMARK 923 INTER-LIGAND FREE ENERGY PREDICTED BY IDOCK:   -6.43 KCAL/MOL
REMARK 924 INTRA-LIGAND FREE ENERGY PREDICTED BY IDOCK:   -0.35 KCAL/MOL
REMARK 927      BINDING AFFINITY PREDICTED BY RF-SCORE:    0.00 PKD
ROOT
HETATM    1  C   UNL     1      -6.921   7.429  68.151  1.00  0.00    -0.075 C  
HETATM    2  C   UNL     1      -7.856   6.237  68.075  1.00  0.00    -0.104 C  
ENDROOT
BRANCH   2   3
HETATM    3  C   UNL     1      -9.227   6.579  68.668  1.00  0.00    -0.127 C  
BRANCH   3   4
HETATM    4  C   UNL     1     -10.257   6.774  67.567  1.00  0.00    -0.190 C  
BRANCH   4   5
HETATM    5  N   UNL     1     -10.998   8.022  67.730  1.00  0.00    -0.497 NA 
HETATM    6  H   UNL     1     -11.822   8.052  68.331  1.00  0.00     0.000 HD 
BRANCH   5   7
HETATM    7  C   UNL     1     -10.578   9.171  67.065  1.00  0.00    -0.195 A  
HETATM    8  C   UNL     1     -10.822  10.479  67.538  1.00  0.00    -0.301 A  
HETATM    9  C   UNL     1      -8.440   9.785  64.003  1.00  0.00    -0.182 C  
HETATM   10  C   UNL     1     -10.271  11.570  66.826  1.00  0.00    -0.219 A  
HETATM   11  O   UNL     1      -8.446  10.725  63.041  1.00  0.00    -0.170 OA 
HETATM   12  O   UNL     1      -7.823   8.737  63.904  1.00  0.00    -0.125 OA 
HETATM   13  C   UNL     1      -9.494  11.387  65.664  1.00  0.00    -0.253 A  
HETATM   14  C   UNL     1      -9.280  10.102  65.185  1.00  0.00    -0.262 A  
HETATM   15  C   UNL     1      -9.816   9.024  65.886  1.00  0.00    -0.257 A  
BRANCH   8  16
HETATM   16  O   UNL     1     -11.731  10.756  68.539  1.00  0.00    -0.383 OA 
BRANCH  16  17
HETATM   17  C   UNL     1     -11.644  10.221  69.803  1.00  0.00    -0.227 A  
HETATM   18  C   UNL     1     -12.936   9.635  71.786  1.00  0.00    -0.514 A  
HETATM   19  C   UNL     1     -11.797   9.077  72.370  1.00  0.00    -0.212 A  
HETATM   20  C   UNL     1     -10.503   9.707  70.414  1.00  0.00    -0.352 A  
HETATM   21  C   UNL     1     -12.858  10.196  70.508  1.00  0.00    -0.248 A  
HETATM   22  C   UNL     1     -10.588   9.114  71.682  1.00  0.00    -0.427 A  
ENDBRANCH  16  17
ENDBRANCH   8  16
BRANCH  10  23
HETATM   23  S   UNL     1     -10.496  13.229  67.391  1.00  0.00    -0.244 S  
HETATM   24  O   UNL     1      -9.783  14.140  66.527  1.00  0.00    -0.275 OA 
HETATM   25  H2  UNL     1     -12.831  12.840  66.804  1.00  0.00     0.000 HD 
HETATM   26  H1  UNL     1     -12.262  14.442  67.499  1.00  0.00     0.000 HD 
HETATM   27  N   UNL     1     -12.132  13.485  67.173  1.00  0.00    -0.368 N  
HETATM   28  O   UNL     1     -10.306  13.249  68.827  1.00  0.00    -0.221 OA 
ENDBRANCH  10  23
ENDBRANCH   5   7
ENDBRANCH   4   5
ENDBRANCH   3   4
ENDBRANCH   2   3
TORSDOF 7
ENDMDL
MODEL      112
REMARK 921   NORMALIZED FREE ENERGY PREDICTED BY IDOCK:   -4.26 KCAL/MOL
REMARK 922        TOTAL FREE ENERGY PREDICTED BY IDOCK:   -6.77 KCAL/MOL
REMARK 923 INTER-LIGAND FREE ENERGY PREDICTED BY IDOCK:   -6.43 KCAL/MOL
REMARK 924 INTRA-LIGAND FREE ENERGY PREDICTED BY IDOCK:   -0.34 KCAL/MOL
REMARK 927      BINDING AFFINITY PREDICTED BY RF-SCORE:    0.00 PKD
ROOT
HETATM    1  C   UNL     1     -12.714  14.063  65.538  1.00  0.00    -0.517 C  
HETATM    2  C   UNL     1     -11.655  14.088  64.451  1.00  0.00    -0.385 C  
ENDROOT
BRANCH   2   3
HETATM    3  C   UNL     1     -10.593  15.150  64.748  1.00  0.00    -0.305 C  
BRANCH   3   4
HETATM    4  C   UNL     1     -11.222  16.531  64.840  1.00  0.00    -0.133 C  
BRANCH   4   5
HETATM    5  N   UNL     1     -10.645  17.321  65.925  1.00  0.00    -0.376 NA 
HETATM    6  H   UNL     1     -10.582  18.336  65.841  1.00  0.00     0.000 HD 
BRANCH   5   7
HETATM    7  C   UNL     1     -10.184  16.686  67.075  1.00  0.00    -0.290 A  
HETATM    8  C   UNL     1      -8.817  16.591  67.417  1.00  0.00    -0.191 A  
HETATM    9  C   UNL     1     -11.896  15.133  70.072  1.00  0.00    -0.325 C  
HETATM   10  C   UNL     1      -8.468  16.002  68.655  1.00  0.00    -0.208 A  
HETATM   11  O   UNL     1     -11.601  14.094  70.873  1.00  0.00    -0.200 OA 
HETATM   12  O   UNL     1     -12.999  15.655  70.038  1.00  0.00    -0.167 OA 
HETATM   13  C   UNL     1      -9.442  15.507  69.547  1.00  0.00    -0.269 A  
HETATM   14  C   UNL     1     -10.782  15.576  69.195  1.00  0.00    -0.250 A  
HETATM   15  C   UNL     1     -11.131  16.160  67.979  1.00  0.00    -0.317 A  
BRANCH   8  16
HETATM   16  O   UNL     1      -7.800  16.861  66.524  1.00  0.00    -0.235 OA 
BRANCH  16  17
HETATM   17  C   UNL     1      -7.359  18.135  66.249  1.00  0.00    -0.267 A  
HETATM   18  C   UNL     1      -7.428  20.450  67.013  1.00  0.00    -0.356 A  
HETATM   19  C   UNL     1      -6.534  20.814  66.004  1.00  0.00    -0.269 A  
HETATM   20  C   UNL     1      -6.508  18.518  65.216  1.00  0.00    -0.230 A  
HETATM   21  C   UNL     1      -7.831  19.117  67.136  1.00  0.00    -0.269 A  
HETATM   22  C   UNL     1      -6.077  19.849  65.113  1.00  0.00    -0.272 A  
ENDBRANCH  16  17
ENDBRANCH   8  16
BRANCH  10  23
HETATM   23  S   UNL     1      -6.780  15.896  69.167  1.00  0.00    -0.176 S  
HETATM   24  O   UNL     1      -5.940  15.620  68.026  1.00  0.00    -0.120 OA 
HETATM   25  H2  UNL     1      -7.066  18.257  69.711  1.00  0.00     0.000 HD 
HETATM   26  H1  UNL     1      -5.472  17.385  69.987  1.00  0.00     0.000 HD 
HETATM   27  N   UNL     1      -6.446  17.447  69.691  1.00  0.00    -0.211 N  
HETATM   28  O   UNL     1      -6.719  15.080  70.363  1.00  0.00    -0.096 OA 
ENDBRANCH  10  23
ENDBRANCH   5   7
ENDBRANCH   4   5
ENDBRANCH   3   4
ENDBRANCH   2   3
TORSDOF 7
ENDMDL
MODEL      113
REMARK 921   NORMALIZED FREE ENERGY PREDICTED BY IDOCK:   -4.24 KCAL/MOL
REMARK 922        TOTAL FREE ENERGY PREDICTED BY IDOCK:   -6.74 KCAL/MOL
REMARK 923 INTER-LIGAND FREE ENERGY PREDICTED BY IDOCK:   -6.15 KCAL/MOL
REMARK 924 INTRA-LIGAND FREE ENERGY PREDICTED BY IDOCK:   -0.59 KCAL/MOL
REMARK 927      BINDING AFFINITY PREDICTED BY RF-SCORE:    0.00 PKD
ROOT
HETATM    1  C   UNL     1     -13.092   9.940  71.503  1.00  0.00    -0.516 C  
HETATM    2  C   UNL     1     -11.775  10.268  70.825  1.00  0.00    -0.453 C  
ENDROOT
BRANCH   2   3
HETATM    3  C   UNL     1     -12.011  10.994  69.496  1.00  0.00    -0.413 C  
BRANCH   3   4
HETATM    4  C   UNL     1     -11.112  10.431  68.407  1.00  0.00    -0.268 C  
BRANCH   4   5
HETATM    5  N   UNL     1     -11.118   8.970  68.397  1.00  0.00    -0.458 NA 
HETATM    6  H   UNL     1     -11.766   8.457  68.995  1.00  0.00     0.000 HD 
BRANCH   5   7
HETATM    7  C   UNL     1     -10.238   8.279  67.569  1.00  0.00    -0.243 A  
HETATM    8  C   UNL     1     -10.284   6.881  67.376  1.00  0.00    -0.203 A  
HETATM    9  C   UNL     1      -7.514   9.353  65.171  1.00  0.00    -0.105 C  
HETATM   10  C   UNL     1      -9.397   6.296  66.442  1.00  0.00    -0.151 A  
HETATM   11  O   UNL     1      -6.342   8.811  64.796  1.00  0.00    -0.065 OA 
HETATM   12  O   UNL     1      -7.811  10.515  64.947  1.00  0.00    -0.128 OA 
HETATM   13  C   UNL     1      -8.473   7.066  65.707  1.00  0.00    -0.154 A  
HETATM   14  C   UNL     1      -8.410   8.436  65.919  1.00  0.00    -0.137 A  
HETATM   15  C   UNL     1      -9.286   9.017  66.835  1.00  0.00    -0.179 A  
BRANCH   8  16
HETATM   16  O   UNL     1     -11.008   6.036  68.192  1.00  0.00    -0.300 OA 
BRANCH  16  17
HETATM   17  C   UNL     1     -10.920   6.058  69.566  1.00  0.00    -0.397 A  
HETATM   18  C   UNL     1      -9.425   5.651  71.449  1.00  0.00    -0.176 A  
HETATM   19  C   UNL     1     -10.407   6.106  72.332  1.00  0.00    -0.219 A  
HETATM   20  C   UNL     1     -11.909   6.462  70.458  1.00  0.00    -0.316 A  
HETATM   21  C   UNL     1      -9.681   5.635  70.075  1.00  0.00    -0.227 A  
HETATM   22  C   UNL     1     -11.642   6.510  71.834  1.00  0.00    -0.357 A  
ENDBRANCH  16  17
ENDBRANCH   8  16
BRANCH  10  23
HETATM   23  S   UNL     1      -9.437   4.560  66.117  1.00  0.00    -0.192 S  
HETATM   24  O   UNL     1      -9.568   3.833  67.358  1.00  0.00    -0.198 OA 
HETATM   25  H2  UNL     1     -11.532   5.080  64.981  1.00  0.00     0.000 HD 
HETATM   26  H1  UNL     1     -10.876   3.366  65.066  1.00  0.00     0.000 HD 
HETATM   27  N   UNL     1     -10.854   4.368  65.254  1.00  0.00    -0.188 N  
HETATM   28  O   UNL     1      -8.383   4.251  65.171  1.00  0.00    -0.110 OA 
ENDBRANCH  10  23
ENDBRANCH   5   7
ENDBRANCH   4   5
ENDBRANCH   3   4
ENDBRANCH   2   3
TORSDOF 7
ENDMDL
MODEL      114
REMARK 921   NORMALIZED FREE ENERGY PREDICTED BY IDOCK:   -4.22 KCAL/MOL
REMARK 922        TOTAL FREE ENERGY PREDICTED BY IDOCK:   -6.71 KCAL/MOL
REMARK 923 INTER-LIGAND FREE ENERGY PREDICTED BY IDOCK:   -5.69 KCAL/MOL
REMARK 924 INTRA-LIGAND FREE ENERGY PREDICTED BY IDOCK:   -1.03 KCAL/MOL
REMARK 927      BINDING AFFINITY PREDICTED BY RF-SCORE:    0.00 PKD
ROOT
HETATM    1  C   UNL     1      -6.033  14.617  70.334  1.00  0.00    -0.165 C  
HETATM    2  C   UNL     1      -7.240  15.134  69.575  1.00  0.00    -0.204 C  
ENDROOT
BRANCH   2   3
HETATM    3  C   UNL     1      -6.991  15.099  68.064  1.00  0.00    -0.144 C  
BRANCH   3   4
HETATM    4  C   UNL     1      -7.959  14.147  67.380  1.00  0.00    -0.184 C  
BRANCH   4   5
HETATM    5  N   UNL     1      -7.276  12.975  66.836  1.00  0.00    -0.328 NA 
HETATM    6  H   UNL     1      -6.610  13.081  66.071  1.00  0.00     0.000 HD 
BRANCH   5   7
HETATM    7  C   UNL     1      -7.537  11.714  67.364  1.00  0.00    -0.139 A  
HETATM    8  C   UNL     1      -8.093  10.654  66.614  1.00  0.00    -0.136 A  
HETATM    9  C   UNL     1      -6.822  10.077  70.701  1.00  0.00    -0.047 C  
HETATM   10  C   UNL     1      -8.231   9.388  67.230  1.00  0.00    -0.117 A  
HETATM   11  O   UNL     1      -7.469   9.160  71.442  1.00  0.00    -0.280 OA 
HETATM   12  O   UNL     1      -5.922  10.773  71.142  1.00  0.00    -0.342 OA 
HETATM   13  C   UNL     1      -7.836   9.160  68.564  1.00  0.00    -0.101 A  
HETATM   14  C   UNL     1      -7.316  10.210  69.307  1.00  0.00    -0.098 A  
HETATM   15  C   UNL     1      -7.173  11.457  68.703  1.00  0.00    -0.100 A  
BRANCH   8  16
HETATM   16  O   UNL     1      -8.688  10.839  65.383  1.00  0.00    -0.185 OA 
BRANCH  16  17
HETATM   17  C   UNL     1      -9.863  11.536  65.213  1.00  0.00    -0.250 A  
HETATM   18  C   UNL     1     -11.388  12.444  63.541  1.00  0.00    -0.553 A  
HETATM   19  C   UNL     1     -12.267  12.840  64.552  1.00  0.00    -0.500 A  
HETATM   20  C   UNL     1     -10.722  11.980  66.215  1.00  0.00    -0.302 A  
HETATM   21  C   UNL     1     -10.198  11.790  63.873  1.00  0.00    -0.411 A  
HETATM   22  C   UNL     1     -11.932  12.605  65.881  1.00  0.00    -0.497 A  
ENDBRANCH  16  17
ENDBRANCH   8  16
BRANCH  10  23
HETATM   23  S   UNL     1      -8.873   8.007  66.334  1.00  0.00    -0.165 S  
HETATM   24  O   UNL     1      -8.161   7.861  65.086  1.00  0.00    -0.131 OA 
HETATM   25  H2  UNL     1      -7.990   6.711  68.202  1.00  0.00     0.000 HD 
HETATM   26  H1  UNL     1      -8.851   5.911  66.790  1.00  0.00     0.000 HD 
HETATM   27  N   UNL     1      -8.481   6.708  67.307  1.00  0.00    -0.119 N  
HETATM   28  O   UNL     1     -10.320   8.074  66.371  1.00  0.00    -0.191 OA 
ENDBRANCH  10  23
ENDBRANCH   5   7
ENDBRANCH   4   5
ENDBRANCH   3   4
ENDBRANCH   2   3
TORSDOF 7
ENDMDL
MODEL      115
REMARK 921   NORMALIZED FREE ENERGY PREDICTED BY IDOCK:   -4.22 KCAL/MOL
REMARK 922        TOTAL FREE ENERGY PREDICTED BY IDOCK:   -6.71 KCAL/MOL
REMARK 923 INTER-LIGAND FREE ENERGY PREDICTED BY IDOCK:   -6.01 KCAL/MOL
REMARK 924 INTRA-LIGAND FREE ENERGY PREDICTED BY IDOCK:   -0.70 KCAL/MOL
REMARK 927      BINDING AFFINITY PREDICTED BY RF-SCORE:    0.00 PKD
ROOT
HETATM    1  C   UNL     1      -5.507  12.034  69.301  1.00  0.00    -0.065 C  
HETATM    2  C   UNL     1      -5.968  12.259  67.873  1.00  0.00    -0.083 C  
ENDROOT
BRANCH   2   3
HETATM    3  C   UNL     1      -6.912  13.462  67.787  1.00  0.00    -0.159 C  
BRANCH   3   4
HETATM    4  C   UNL     1      -8.036  13.340  68.804  1.00  0.00     0.034 C  
BRANCH   4   5
HETATM    5  N   UNL     1      -9.253  12.797  68.206  1.00  0.00    -0.251 NA 
HETATM    6  H   UNL     1      -9.652  11.926  68.560  1.00  0.00     0.000 HD 
BRANCH   5   7
HETATM    7  C   UNL     1      -9.869  13.469  67.154  1.00  0.00    -0.245 A  
HETATM    8  C   UNL     1     -10.555  12.815  66.107  1.00  0.00    -0.266 A  
HETATM    9  C   UNL     1     -10.478  17.124  66.386  1.00  0.00    -0.255 C  
HETATM   10  C   UNL     1     -11.220  13.603  65.138  1.00  0.00    -0.310 A  
HETATM   11  O   UNL     1     -10.543  17.833  65.245  1.00  0.00    -0.651 OA 
HETATM   12  O   UNL     1     -10.363  17.642  67.485  1.00  0.00    -0.337 OA 
HETATM   13  C   UNL     1     -11.213  15.012  65.189  1.00  0.00    -0.391 A  
HETATM   14  C   UNL     1     -10.515  15.651  66.203  1.00  0.00    -0.327 A  
HETATM   15  C   UNL     1      -9.863  14.879  67.163  1.00  0.00    -0.231 A  
BRANCH   8  16
HETATM   16  O   UNL     1     -10.443  11.461  65.868  1.00  0.00    -0.245 OA 
BRANCH  16  17
HETATM   17  C   UNL     1      -9.235  10.803  65.819  1.00  0.00    -0.189 A  
HETATM   18  C   UNL     1      -7.949   8.973  66.790  1.00  0.00    -0.107 A  
HETATM   19  C   UNL     1      -6.918   9.206  65.876  1.00  0.00    -0.088 A  
HETATM   20  C   UNL     1      -8.181  11.059  64.945  1.00  0.00     0.228 A  
HETATM   21  C   UNL     1      -9.100   9.764  66.754  1.00  0.00    -0.169 A  
HETATM   22  C   UNL     1      -7.040  10.244  64.958  1.00  0.00    -0.111 A  
ENDBRANCH  16  17
ENDBRANCH   8  16
BRANCH  10  23
HETATM   23  S   UNL     1     -12.137  12.849  63.829  1.00  0.00    -0.518 S  
HETATM   24  O   UNL     1     -12.597  13.862  62.908  1.00  0.00    -0.580 OA 
HETATM   25  H2  UNL     1      -9.999  11.817  63.270  1.00  0.00     0.000 HD 
HETATM   26  H1  UNL     1     -11.518  11.487  62.292  1.00  0.00     0.000 HD 
HETATM   27  N   UNL     1     -10.989  11.922  63.047  1.00  0.00    -0.156 N  
HETATM   28  O   UNL     1     -13.053  11.889  64.412  1.00  0.00    -0.535 OA 
ENDBRANCH  10  23
ENDBRANCH   5   7
ENDBRANCH   4   5
ENDBRANCH   3   4
ENDBRANCH   2   3
TORSDOF 7
ENDMDL
MODEL      116
REMARK 921   NORMALIZED FREE ENERGY PREDICTED BY IDOCK:   -4.22 KCAL/MOL
REMARK 922        TOTAL FREE ENERGY PREDICTED BY IDOCK:   -6.71 KCAL/MOL
REMARK 923 INTER-LIGAND FREE ENERGY PREDICTED BY IDOCK:   -5.73 KCAL/MOL
REMARK 924 INTRA-LIGAND FREE ENERGY PREDICTED BY IDOCK:   -0.98 KCAL/MOL
REMARK 927      BINDING AFFINITY PREDICTED BY RF-SCORE:    0.00 PKD
ROOT
HETATM    1  C   UNL     1     -13.243   7.170  71.027  1.00  0.00    -0.158 C  
HETATM    2  C   UNL     1     -11.763   7.343  71.316  1.00  0.00    -0.316 C  
ENDROOT
BRANCH   2   3
HETATM    3  C   UNL     1     -11.342   8.806  71.148  1.00  0.00    -0.345 C  
BRANCH   3   4
HETATM    4  C   UNL     1      -9.830   8.945  71.234  1.00  0.00    -0.291 C  
BRANCH   4   5
HETATM    5  N   UNL     1      -9.190   8.739  69.937  1.00  0.00    -0.153 NA 
HETATM    6  H   UNL     1      -8.889   7.804  69.659  1.00  0.00     0.000 HD 
BRANCH   5   7
HETATM    7  C   UNL     1      -8.992   9.819  69.082  1.00  0.00    -0.161 A  
HETATM    8  C   UNL     1      -9.830  10.106  67.982  1.00  0.00    -0.148 A  
HETATM    9  C   UNL     1      -6.587  12.741  69.072  1.00  0.00    -0.099 C  
HETATM   10  C   UNL     1      -9.587  11.280  67.233  1.00  0.00    -0.173 A  
HETATM   11  O   UNL     1      -5.991  13.448  68.096  1.00  0.00    -0.088 OA 
HETATM   12  O   UNL     1      -6.231  12.786  70.238  1.00  0.00    -0.107 OA 
HETATM   13  C   UNL     1      -8.535  12.164  67.551  1.00  0.00    -0.169 A  
HETATM   14  C   UNL     1      -7.695  11.864  68.615  1.00  0.00    -0.113 A  
HETATM   15  C   UNL     1      -7.935  10.710  69.358  1.00  0.00    -0.118 A  
BRANCH   8  16
HETATM   16  O   UNL     1     -10.746   9.202  67.482  1.00  0.00    -0.273 OA 
BRANCH  16  17
HETATM   17  C   UNL     1     -10.404   7.933  67.072  1.00  0.00    -0.341 A  
HETATM   18  C   UNL     1      -8.805   6.657  65.746  1.00  0.00    -0.093 A  
HETATM   19  C   UNL     1      -9.404   5.466  66.161  1.00  0.00    -0.167 A  
HETATM   20  C   UNL     1     -11.025   6.743  67.440  1.00  0.00    -0.407 A  
HETATM   21  C   UNL     1      -9.300   7.881  66.206  1.00  0.00    -0.225 A  
HETATM   22  C   UNL     1     -10.507   5.514  67.007  1.00  0.00    -0.336 A  
ENDBRANCH  16  17
ENDBRANCH   8  16
BRANCH  10  23
HETATM   23  S   UNL     1     -10.628  11.725  65.876  1.00  0.00    -0.280 S  
HETATM   24  O   UNL     1     -11.964  11.995  66.353  1.00  0.00    -0.611 OA 
HETATM   25  H2  UNL     1      -9.159  13.666  65.718  1.00  0.00     0.000 HD 
HETATM   26  H1  UNL     1     -10.567  13.421  64.565  1.00  0.00     0.000 HD 
HETATM   27  N   UNL     1      -9.967  13.165  65.348  1.00  0.00    -0.234 N  
HETATM   28  O   UNL     1     -10.389  10.789  64.796  1.00  0.00    -0.321 OA 
ENDBRANCH  10  23
ENDBRANCH   5   7
ENDBRANCH   4   5
ENDBRANCH   3   4
ENDBRANCH   2   3
TORSDOF 7
ENDMDL
MODEL      117
REMARK 921   NORMALIZED FREE ENERGY PREDICTED BY IDOCK:   -4.21 KCAL/MOL
REMARK 922        TOTAL FREE ENERGY PREDICTED BY IDOCK:   -6.70 KCAL/MOL
REMARK 923 INTER-LIGAND FREE ENERGY PREDICTED BY IDOCK:   -5.94 KCAL/MOL
REMARK 924 INTRA-LIGAND FREE ENERGY PREDICTED BY IDOCK:   -0.75 KCAL/MOL
REMARK 927      BINDING AFFINITY PREDICTED BY RF-SCORE:    0.00 PKD
ROOT
HETATM    1  C   UNL     1     -11.031  12.085  63.572  1.00  0.00    -0.514 C  
HETATM    2  C   UNL     1     -12.109  13.142  63.722  1.00  0.00    -0.563 C  
ENDROOT
BRANCH   2   3
HETATM    3  C   UNL     1     -12.486  13.334  65.194  1.00  0.00    -0.525 C  
BRANCH   3   4
HETATM    4  C   UNL     1     -11.990  12.168  66.034  1.00  0.00    -0.160 C  
BRANCH   4   5
HETATM    5  N   UNL     1     -11.570  12.597  67.366  1.00  0.00    -0.340 NA 
HETATM    6  H   UNL     1     -12.247  12.631  68.129  1.00  0.00     0.000 HD 
BRANCH   5   7
HETATM    7  C   UNL     1     -10.245  12.958  67.594  1.00  0.00    -0.220 A  
HETATM    8  C   UNL     1      -9.291  12.095  68.176  1.00  0.00    -0.204 A  
HETATM    9  C   UNL     1      -8.176  16.003  66.714  1.00  0.00    -0.272 C  
HETATM   10  C   UNL     1      -7.951  12.536  68.278  1.00  0.00    -0.153 A  
HETATM   11  O   UNL     1      -7.158  16.638  67.320  1.00  0.00    -0.143 OA 
HETATM   12  O   UNL     1      -8.817  16.494  65.799  1.00  0.00    -0.474 OA 
HETATM   13  C   UNL     1      -7.547  13.807  67.819  1.00  0.00    -0.173 A  
HETATM   14  C   UNL     1      -8.493  14.664  67.273  1.00  0.00    -0.234 A  
HETATM   15  C   UNL     1      -9.813  14.231  67.167  1.00  0.00    -0.252 A  
BRANCH   8  16
HETATM   16  O   UNL     1      -9.636  10.929  68.829  1.00  0.00    -0.180 OA 
BRANCH  16  17
HETATM   17  C   UNL     1      -9.747   9.714  68.192  1.00  0.00    -0.146 A  
HETATM   18  C   UNL     1      -9.395   8.566  66.069  1.00  0.00    -0.266 A  
HETATM   19  C   UNL     1      -9.763   7.354  66.659  1.00  0.00    -0.262 A  
HETATM   20  C   UNL     1     -10.160   8.511  68.757  1.00  0.00    -0.210 A  
HETATM   21  C   UNL     1      -9.382   9.735  66.836  1.00  0.00    -0.184 A  
HETATM   22  C   UNL     1     -10.140   7.331  67.998  1.00  0.00    -0.207 A  
ENDBRANCH  16  17
ENDBRANCH   8  16
BRANCH  10  23
HETATM   23  S   UNL     1      -6.698  11.488  68.951  1.00  0.00    -0.094 S  
HETATM   24  O   UNL     1      -6.360  10.457  67.998  1.00  0.00    -0.058 OA 
HETATM   25  H2  UNL     1      -5.322  13.499  68.849  1.00  0.00     0.000 HD 
HETATM   26  H1  UNL     1      -4.662  11.905  69.480  1.00  0.00     0.000 HD 
HETATM   27  N   UNL     1      -5.385  12.510  69.092  1.00  0.00    -0.067 N  
HETATM   28  O   UNL     1      -7.063  11.163  70.315  1.00  0.00    -0.046 OA 
ENDBRANCH  10  23
ENDBRANCH   5   7
ENDBRANCH   4   5
ENDBRANCH   3   4
ENDBRANCH   2   3
TORSDOF 7
ENDMDL
MODEL      118
REMARK 921   NORMALIZED FREE ENERGY PREDICTED BY IDOCK:   -4.19 KCAL/MOL
REMARK 922        TOTAL FREE ENERGY PREDICTED BY IDOCK:   -6.68 KCAL/MOL
REMARK 923 INTER-LIGAND FREE ENERGY PREDICTED BY IDOCK:   -6.30 KCAL/MOL
REMARK 924 INTRA-LIGAND FREE ENERGY PREDICTED BY IDOCK:   -0.38 KCAL/MOL
REMARK 927      BINDING AFFINITY PREDICTED BY RF-SCORE:    0.00 PKD
ROOT
HETATM    1  C   UNL     1      -8.433   8.414  65.630  1.00  0.00    -0.179 C  
HETATM    2  C   UNL     1      -8.640   9.755  64.951  1.00  0.00    -0.183 C  
ENDROOT
BRANCH   2   3
HETATM    3  C   UNL     1     -10.091  10.223  65.097  1.00  0.00    -0.355 C  
BRANCH   3   4
HETATM    4  C   UNL     1     -10.548  10.120  66.543  1.00  0.00    -0.109 C  
BRANCH   4   5
HETATM    5  N   UNL     1     -10.652  11.433  67.176  1.00  0.00    -0.230 NA 
HETATM    6  H   UNL     1     -10.381  12.271  66.662  1.00  0.00     0.000 HD 
BRANCH   5   7
HETATM    7  C   UNL     1     -11.122  11.538  68.482  1.00  0.00    -0.236 A  
HETATM    8  C   UNL     1     -11.550  12.752  69.062  1.00  0.00    -0.316 A  
HETATM    9  C   UNL     1     -11.882   9.014  71.199  1.00  0.00    -0.301 C  
HETATM   10  C   UNL     1     -12.093  12.725  70.367  1.00  0.00    -0.302 A  
HETATM   11  O   UNL     1     -11.798   9.043  72.540  1.00  0.00    -0.233 OA 
HETATM   12  O   UNL     1     -12.010   7.981  70.562  1.00  0.00    -0.118 OA 
HETATM   13  C   UNL     1     -12.212  11.528  71.102  1.00  0.00    -0.287 A  
HETATM   14  C   UNL     1     -11.763  10.340  70.541  1.00  0.00    -0.418 A  
HETATM   15  C   UNL     1     -11.233  10.361  69.253  1.00  0.00    -0.304 A  
BRANCH   8  16
HETATM   16  O   UNL     1     -11.286  13.985  68.500  1.00  0.00    -0.241 OA 
BRANCH  16  17
HETATM   17  C   UNL     1     -10.010  14.459  68.294  1.00  0.00    -0.232 A  
HETATM   18  C   UNL     1      -8.214  15.771  69.293  1.00  0.00    -0.247 A  
HETATM   19  C   UNL     1      -7.388  15.476  68.205  1.00  0.00    -0.117 A  
HETATM   20  C   UNL     1      -9.197  14.213  67.192  1.00  0.00    -0.237 A  
HETATM   21  C   UNL     1      -9.513  15.259  69.337  1.00  0.00    -0.231 A  
HETATM   22  C   UNL     1      -7.881  14.698  67.163  1.00  0.00    -0.155 A  
ENDBRANCH  16  17
ENDBRANCH   8  16
BRANCH  10  23
HETATM   23  S   UNL     1     -12.694  14.201  71.132  1.00  0.00    -0.379 S  
HETATM   24  O   UNL     1     -13.411  14.996  70.162  1.00  0.00    -0.012 OA 
HETATM   25  H2  UNL     1     -14.061  12.661  72.439  1.00  0.00     0.000 HD 
HETATM   26  H1  UNL     1     -14.145  14.479  72.687  1.00  0.00     0.000 HD 
HETATM   27  N   UNL     1     -13.798  13.627  72.246  1.00  0.00    -0.560 N  
HETATM   28  O   UNL     1     -11.624  14.768  71.928  1.00  0.00    -0.315 OA 
ENDBRANCH  10  23
ENDBRANCH   5   7
ENDBRANCH   4   5
ENDBRANCH   3   4
ENDBRANCH   2   3
TORSDOF 7
ENDMDL
MODEL      119
REMARK 921   NORMALIZED FREE ENERGY PREDICTED BY IDOCK:   -4.19 KCAL/MOL
REMARK 922        TOTAL FREE ENERGY PREDICTED BY IDOCK:   -6.67 KCAL/MOL
REMARK 923 INTER-LIGAND FREE ENERGY PREDICTED BY IDOCK:   -6.46 KCAL/MOL
REMARK 924 INTRA-LIGAND FREE ENERGY PREDICTED BY IDOCK:   -0.21 KCAL/MOL
REMARK 927      BINDING AFFINITY PREDICTED BY RF-SCORE:    0.00 PKD
ROOT
HETATM    1  C   UNL     1     -13.132  10.366  72.018  1.00  0.00    -0.521 C  
HETATM    2  C   UNL     1     -12.459  11.089  70.866  1.00  0.00    -0.509 C  
ENDROOT
BRANCH   2   3
HETATM    3  C   UNL     1     -11.175  10.368  70.443  1.00  0.00    -0.399 C  
BRANCH   3   4
HETATM    4  C   UNL     1     -11.133  10.181  68.935  1.00  0.00    -0.207 C  
BRANCH   4   5
HETATM    5  N   UNL     1     -10.165  11.074  68.303  1.00  0.00    -0.169 NA 
HETATM    6  H   UNL     1      -9.559  11.660  68.877  1.00  0.00     0.000 HD 
BRANCH   5   7
HETATM    7  C   UNL     1     -10.069  11.122  66.915  1.00  0.00    -0.214 A  
HETATM    8  C   UNL     1      -9.027  10.511  66.183  1.00  0.00    -0.160 A  
HETATM    9  C   UNL     1     -12.325  12.452  64.183  1.00  0.00    -0.467 C  
HETATM   10  C   UNL     1      -9.079  10.548  64.771  1.00  0.00    -0.211 A  
HETATM   11  O   UNL     1     -12.096  13.011  62.981  1.00  0.00    -0.448 OA 
HETATM   12  O   UNL     1     -13.408  12.501  64.744  1.00  0.00    -0.773 OA 
HETATM   13  C   UNL     1     -10.134  11.177  64.079  1.00  0.00    -0.392 A  
HETATM   14  C   UNL     1     -11.142  11.802  64.800  1.00  0.00    -0.356 A  
HETATM   15  C   UNL     1     -11.097  11.763  66.192  1.00  0.00    -0.358 A  
BRANCH   8  16
HETATM   16  O   UNL     1      -7.865  10.056  66.773  1.00  0.00    -0.108 OA 
BRANCH  16  17
HETATM   17  C   UNL     1      -7.714   8.772  67.245  1.00  0.00    -0.096 A  
HETATM   18  C   UNL     1      -8.888   6.674  67.653  1.00  0.00    -0.116 A  
HETATM   19  C   UNL     1      -7.690   6.075  68.049  1.00  0.00    -0.101 A  
HETATM   20  C   UNL     1      -6.535   8.180  67.689  1.00  0.00    -0.057 A  
HETATM   21  C   UNL     1      -8.895   8.012  67.248  1.00  0.00    -0.135 A  
HETATM   22  C   UNL     1      -6.520   6.829  68.063  1.00  0.00    -0.053 A  
ENDBRANCH  16  17
ENDBRANCH   8  16
BRANCH  10  23
HETATM   23  S   UNL     1      -7.834   9.760  63.795  1.00  0.00    -0.151 S  
HETATM   24  O   UNL     1      -8.261   8.427  63.442  1.00  0.00    -0.164 OA 
HETATM   25  H2  UNL     1      -8.373  11.497  62.169  1.00  0.00     0.000 HD 
HETATM   26  H1  UNL     1      -7.089  10.225  61.838  1.00  0.00     0.000 HD 
HETATM   27  N   UNL     1      -7.808  10.680  62.401  1.00  0.00    -0.169 N  
HETATM   28  O   UNL     1      -6.549   9.999  64.420  1.00  0.00    -0.121 OA 
ENDBRANCH  10  23
ENDBRANCH   5   7
ENDBRANCH   4   5
ENDBRANCH   3   4
ENDBRANCH   2   3
TORSDOF 7
ENDMDL
MODEL      120
REMARK 921   NORMALIZED FREE ENERGY PREDICTED BY IDOCK:   -4.17 KCAL/MOL
REMARK 922        TOTAL FREE ENERGY PREDICTED BY IDOCK:   -6.64 KCAL/MOL
REMARK 923 INTER-LIGAND FREE ENERGY PREDICTED BY IDOCK:   -6.25 KCAL/MOL
REMARK 924 INTRA-LIGAND FREE ENERGY PREDICTED BY IDOCK:   -0.38 KCAL/MOL
REMARK 927      BINDING AFFINITY PREDICTED BY RF-SCORE:    0.00 PKD
ROOT
HETATM    1  C   UNL     1     -13.118  11.050  71.854  1.00  0.00    -0.525 C  
HETATM    2  C   UNL     1     -13.092  12.524  71.495  1.00  0.00    -0.373 C  
ENDROOT
BRANCH   2   3
HETATM    3  C   UNL     1     -12.124  12.788  70.337  1.00  0.00    -0.382 C  
BRANCH   3   4
HETATM    4  C   UNL     1     -11.898  11.523  69.524  1.00  0.00    -0.351 C  
BRANCH   4   5
HETATM    5  N   UNL     1     -10.477  11.224  69.365  1.00  0.00    -0.425 NA 
HETATM    6  H   UNL     1      -9.810  11.981  69.212  1.00  0.00     0.000 HD 
BRANCH   5   7
HETATM    7  C   UNL     1     -10.035   9.906  69.424  1.00  0.00    -0.212 A  
HETATM    8  C   UNL     1     -10.145   8.998  68.347  1.00  0.00    -0.191 A  
HETATM    9  C   UNL     1      -8.126   7.900  72.004  1.00  0.00    -0.114 C  
HETATM   10  C   UNL     1      -9.580   7.709  68.488  1.00  0.00    -0.148 A  
HETATM   11  O   UNL     1      -8.146   6.607  72.374  1.00  0.00    -0.100 OA 
HETATM   12  O   UNL     1      -7.595   8.774  72.669  1.00  0.00    -0.353 OA 
HETATM   13  C   UNL     1      -8.919   7.308  69.667  1.00  0.00    -0.141 A  
HETATM   14  C   UNL     1      -8.838   8.192  70.734  1.00  0.00    -0.149 A  
HETATM   15  C   UNL     1      -9.388   9.465  70.597  1.00  0.00    -0.314 A  
BRANCH   8  16
HETATM   16  O   UNL     1     -10.943   9.234  67.247  1.00  0.00    -0.166 OA 
BRANCH  16  17
HETATM   17  C   UNL     1     -10.607  10.121  66.250  1.00  0.00    -0.051 A  
HETATM   18  C   UNL     1      -9.205  10.428  64.279  1.00  0.00    -0.295 A  
HETATM   19  C   UNL     1      -9.798  11.671  64.045  1.00  0.00    -0.283 A  
HETATM   20  C   UNL     1     -11.156  11.383  66.037  1.00  0.00    -0.235 A  
HETATM   21  C   UNL     1      -9.614   9.659  65.371  1.00  0.00    -0.361 A  
HETATM   22  C   UNL     1     -10.770  12.141  64.922  1.00  0.00    -0.336 A  
ENDBRANCH  16  17
ENDBRANCH   8  16
BRANCH  10  23
HETATM   23  S   UNL     1      -9.638   6.542  67.162  1.00  0.00    -0.143 S  
HETATM   24  O   UNL     1      -8.708   6.931  66.128  1.00  0.00    -0.137 OA 
HETATM   25  H2  UNL     1      -8.763   4.992  68.830  1.00  0.00     0.000 HD 
HETATM   26  H1  UNL     1      -9.103   4.466  67.102  1.00  0.00     0.000 HD 
HETATM   27  N   UNL     1      -9.070   5.139  67.868  1.00  0.00    -0.110 N  
HETATM   28  O   UNL     1     -11.029   6.268  66.860  1.00  0.00    -0.358 OA 
ENDBRANCH  10  23
ENDBRANCH   5   7
ENDBRANCH   4   5
ENDBRANCH   3   4
ENDBRANCH   2   3
TORSDOF 7
ENDMDL
MODEL      121
REMARK 921   NORMALIZED FREE ENERGY PREDICTED BY IDOCK:   -4.16 KCAL/MOL
REMARK 922        TOTAL FREE ENERGY PREDICTED BY IDOCK:   -6.64 KCAL/MOL
REMARK 923 INTER-LIGAND FREE ENERGY PREDICTED BY IDOCK:   -6.59 KCAL/MOL
REMARK 924 INTRA-LIGAND FREE ENERGY PREDICTED BY IDOCK:   -0.05 KCAL/MOL
REMARK 927      BINDING AFFINITY PREDICTED BY RF-SCORE:    0.00 PKD
ROOT
HETATM    1  C   UNL     1     -12.854  11.982  63.589  1.00  0.00    -0.472 C  
HETATM    2  C   UNL     1     -11.435  12.516  63.513  1.00  0.00    -0.570 C  
ENDROOT
BRANCH   2   3
HETATM    3  C   UNL     1     -11.010  13.130  64.850  1.00  0.00    -0.337 C  
BRANCH   3   4
HETATM    4  C   UNL     1     -12.200  13.256  65.788  1.00  0.00    -0.456 C  
BRANCH   4   5
HETATM    5  N   UNL     1     -11.854  12.884  67.158  1.00  0.00    -0.373 NA 
HETATM    6  H   UNL     1     -12.541  12.414  67.749  1.00  0.00     0.000 HD 
BRANCH   5   7
HETATM    7  C   UNL     1     -10.587  13.172  67.656  1.00  0.00    -0.228 A  
HETATM    8  C   UNL     1      -9.651  12.181  68.025  1.00  0.00    -0.204 A  
HETATM    9  C   UNL     1      -8.626  16.375  68.124  1.00  0.00    -0.193 C  
HETATM   10  C   UNL     1      -8.360  12.588  68.434  1.00  0.00    -0.132 A  
HETATM   11  O   UNL     1      -7.720  16.784  69.030  1.00  0.00    -0.240 OA 
HETATM   12  O   UNL     1      -9.191  17.138  67.358  1.00  0.00    -0.229 OA 
HETATM   13  C   UNL     1      -7.987  13.947  68.488  1.00  0.00    -0.137 A  
HETATM   14  C   UNL     1      -8.918  14.919  68.153  1.00  0.00    -0.176 A  
HETATM   15  C   UNL     1     -10.189  14.523  67.743  1.00  0.00    -0.226 A  
BRANCH   8  16
HETATM   16  O   UNL     1      -9.992  10.855  68.195  1.00  0.00    -0.165 OA 
BRANCH  16  17
HETATM   17  C   UNL     1     -10.627  10.380  69.320  1.00  0.00    -0.232 A  
HETATM   18  C   UNL     1     -10.611   8.600  70.986  1.00  0.00    -0.278 A  
HETATM   19  C   UNL     1     -11.649   9.230  71.677  1.00  0.00    -0.463 A  
HETATM   20  C   UNL     1     -11.694  10.974  69.988  1.00  0.00    -0.437 A  
HETATM   21  C   UNL     1     -10.101   9.178  69.820  1.00  0.00    -0.211 A  
HETATM   22  C   UNL     1     -12.183  10.413  71.177  1.00  0.00    -0.498 A  
ENDBRANCH  16  17
ENDBRANCH   8  16
BRANCH  10  23
HETATM   23  S   UNL     1      -7.125  11.398  68.861  1.00  0.00    -0.116 S  
HETATM   24  O   UNL     1      -7.439  10.805  70.140  1.00  0.00    -0.074 OA 
HETATM   25  H2  UNL     1      -7.974  10.199  66.914  1.00  0.00     0.000 HD 
HETATM   26  H1  UNL     1      -6.598   9.536  67.934  1.00  0.00     0.000 HD 
HETATM   27  N   UNL     1      -7.310  10.223  67.688  1.00  0.00    -0.088 N  
HETATM   28  O   UNL     1      -5.824  11.980  68.600  1.00  0.00    -0.052 OA 
ENDBRANCH  10  23
ENDBRANCH   5   7
ENDBRANCH   4   5
ENDBRANCH   3   4
ENDBRANCH   2   3
TORSDOF 7
ENDMDL
MODEL      122
REMARK 921   NORMALIZED FREE ENERGY PREDICTED BY IDOCK:   -4.16 KCAL/MOL
REMARK 922        TOTAL FREE ENERGY PREDICTED BY IDOCK:   -6.63 KCAL/MOL
REMARK 923 INTER-LIGAND FREE ENERGY PREDICTED BY IDOCK:   -5.82 KCAL/MOL
REMARK 924 INTRA-LIGAND FREE ENERGY PREDICTED BY IDOCK:   -0.82 KCAL/MOL
REMARK 927      BINDING AFFINITY PREDICTED BY RF-SCORE:    0.00 PKD
ROOT
HETATM    1  C   UNL     1      -9.447   2.898  70.458  1.00  0.00    -0.210 C  
HETATM    2  C   UNL     1      -9.892   3.340  71.840  1.00  0.00    -0.238 C  
ENDROOT
BRANCH   2   3
HETATM    3  C   UNL     1      -9.854   4.866  71.964  1.00  0.00    -0.232 C  
BRANCH   3   4
HETATM    4  C   UNL     1      -8.585   5.426  71.341  1.00  0.00    -0.130 C  
BRANCH   4   5
HETATM    5  N   UNL     1      -8.722   6.841  71.004  1.00  0.00    -0.137 NA 
HETATM    6  H   UNL     1      -8.614   7.552  71.727  1.00  0.00     0.000 HD 
BRANCH   5   7
HETATM    7  C   UNL     1      -9.001   7.217  69.693  1.00  0.00    -0.141 A  
HETATM    8  C   UNL     1      -9.488   8.493  69.334  1.00  0.00    -0.161 A  
HETATM    9  C   UNL     1      -8.496   5.552  66.331  1.00  0.00    -0.119 C  
HETATM   10  C   UNL     1      -9.650   8.795  67.962  1.00  0.00    -0.142 A  
HETATM   11  O   UNL     1      -9.180   5.574  65.174  1.00  0.00    -0.047 OA 
HETATM   12  O   UNL     1      -7.639   4.720  66.581  1.00  0.00    -0.085 OA 
HETATM   13  C   UNL     1      -9.345   7.861  66.951  1.00  0.00    -0.209 A  
HETATM   14  C   UNL     1      -8.894   6.598  67.307  1.00  0.00    -0.116 A  
HETATM   15  C   UNL     1      -8.727   6.298  68.658  1.00  0.00    -0.120 A  
BRANCH   8  16
HETATM   16  O   UNL     1      -9.998   9.386  70.255  1.00  0.00    -0.203 OA 
BRANCH  16  17
HETATM   17  C   UNL     1     -11.215   9.213  70.874  1.00  0.00    -0.295 A  
HETATM   18  C   UNL     1     -13.138  10.394  71.799  1.00  0.00    -0.567 A  
HETATM   19  C   UNL     1     -13.772   9.175  72.048  1.00  0.00    -0.508 A  
HETATM   20  C   UNL     1     -11.835   8.003  71.173  1.00  0.00    -0.307 A  
HETATM   21  C   UNL     1     -11.871  10.409  71.209  1.00  0.00    -0.381 A  
HETATM   22  C   UNL     1     -13.121   7.987  71.732  1.00  0.00    -0.360 A  
ENDBRANCH  16  17
ENDBRANCH   8  16
BRANCH  10  23
HETATM   23  S   UNL     1     -10.208  10.390  67.443  1.00  0.00    -0.228 S  
HETATM   24  O   UNL     1      -9.260  11.397  67.857  1.00  0.00    -0.155 OA 
HETATM   25  H2  UNL     1      -9.871   9.493  65.200  1.00  0.00     0.000 HD 
HETATM   26  H1  UNL     1     -10.477  11.205  65.478  1.00  0.00     0.000 HD 
HETATM   27  N   UNL     1     -10.156  10.285  65.777  1.00  0.00    -0.263 N  
HETATM   28  O   UNL     1     -11.616  10.504  67.763  1.00  0.00    -0.462 OA 
ENDBRANCH  10  23
ENDBRANCH   5   7
ENDBRANCH   4   5
ENDBRANCH   3   4
ENDBRANCH   2   3
TORSDOF 7
ENDMDL
MODEL      123
REMARK 921   NORMALIZED FREE ENERGY PREDICTED BY IDOCK:   -4.14 KCAL/MOL
REMARK 922        TOTAL FREE ENERGY PREDICTED BY IDOCK:   -6.61 KCAL/MOL
REMARK 923 INTER-LIGAND FREE ENERGY PREDICTED BY IDOCK:   -6.17 KCAL/MOL
REMARK 924 INTRA-LIGAND FREE ENERGY PREDICTED BY IDOCK:   -0.43 KCAL/MOL
REMARK 927      BINDING AFFINITY PREDICTED BY RF-SCORE:    0.00 PKD
ROOT
HETATM    1  C   UNL     1     -11.887  14.470  68.412  1.00  0.00    -0.351 C  
HETATM    2  C   UNL     1     -12.147  14.704  69.889  1.00  0.00    -0.385 C  
ENDROOT
BRANCH   2   3
HETATM    3  C   UNL     1     -11.873  13.434  70.700  1.00  0.00    -0.163 C  
BRANCH   3   4
HETATM    4  C   UNL     1     -12.127  12.192  69.860  1.00  0.00    -0.253 C  
BRANCH   4   5
HETATM    5  N   UNL     1     -11.283  11.073  70.273  1.00  0.00    -0.472 NA 
HETATM    6  H   UNL     1     -11.002  10.979  71.249  1.00  0.00     0.000 HD 
BRANCH   5   7
HETATM    7  C   UNL     1     -10.865  10.136  69.333  1.00  0.00    -0.241 A  
HETATM    8  C   UNL     1     -10.705   8.762  69.619  1.00  0.00    -0.208 A  
HETATM    9  C   UNL     1     -10.171  10.292  65.615  1.00  0.00    -0.231 C  
HETATM   10  C   UNL     1     -10.361   7.887  68.563  1.00  0.00    -0.200 A  
HETATM   11  O   UNL     1      -9.302   9.660  64.807  1.00  0.00    -0.250 OA 
HETATM   12  O   UNL     1     -10.783  11.293  65.280  1.00  0.00    -0.281 OA 
HETATM   13  C   UNL     1     -10.170   8.346  67.244  1.00  0.00    -0.349 A  
HETATM   14  C   UNL     1     -10.299   9.701  66.972  1.00  0.00    -0.315 A  
HETATM   15  C   UNL     1     -10.644  10.567  68.008  1.00  0.00    -0.251 A  
BRANCH   8  16
HETATM   16  O   UNL     1     -10.673   8.264  70.905  1.00  0.00    -0.211 OA 
BRANCH  16  17
HETATM   17  C   UNL     1      -9.546   8.290  71.694  1.00  0.00    -0.198 A  
HETATM   18  C   UNL     1      -7.148   8.735  71.687  1.00  0.00    -0.091 A  
HETATM   19  C   UNL     1      -7.102   8.533  73.068  1.00  0.00    -0.055 A  
HETATM   20  C   UNL     1      -9.480   8.042  73.062  1.00  0.00    -0.345 A  
HETATM   21  C   UNL     1      -8.365   8.620  71.009  1.00  0.00    -0.193 A  
HETATM   22  C   UNL     1      -8.266   8.190  73.749  1.00  0.00    -0.303 A  
ENDBRANCH  16  17
ENDBRANCH   8  16
BRANCH  10  23
HETATM   23  S   UNL     1     -10.195   6.150  68.842  1.00  0.00    -0.210 S  
HETATM   24  O   UNL     1     -11.204   5.706  69.775  1.00  0.00    -0.274 OA 
HETATM   25  H2  UNL     1     -10.797   5.974  66.485  1.00  0.00     0.000 HD 
HETATM   26  H1  UNL     1     -10.451   4.489  67.509  1.00  0.00     0.000 HD 
HETATM   27  N   UNL     1     -10.547   5.491  67.348  1.00  0.00    -0.225 N  
HETATM   28  O   UNL     1      -8.792   5.856  69.054  1.00  0.00    -0.119 OA 
ENDBRANCH  10  23
ENDBRANCH   5   7
ENDBRANCH   4   5
ENDBRANCH   3   4
ENDBRANCH   2   3
TORSDOF 7
ENDMDL
MODEL      124
REMARK 921   NORMALIZED FREE ENERGY PREDICTED BY IDOCK:   -4.14 KCAL/MOL
REMARK 922        TOTAL FREE ENERGY PREDICTED BY IDOCK:   -6.61 KCAL/MOL
REMARK 923 INTER-LIGAND FREE ENERGY PREDICTED BY IDOCK:   -5.72 KCAL/MOL
REMARK 924 INTRA-LIGAND FREE ENERGY PREDICTED BY IDOCK:   -0.88 KCAL/MOL
REMARK 927      BINDING AFFINITY PREDICTED BY RF-SCORE:    0.00 PKD
ROOT
HETATM    1  C   UNL     1     -12.225  12.545  64.055  1.00  0.00    -0.566 C  
HETATM    2  C   UNL     1     -10.988  12.230  63.234  1.00  0.00    -0.373 C  
ENDROOT
BRANCH   2   3
HETATM    3  C   UNL     1     -10.287  10.975  63.763  1.00  0.00    -0.427 C  
BRANCH   3   4
HETATM    4  C   UNL     1     -10.558  10.790  65.247  1.00  0.00    -0.160 C  
BRANCH   4   5
HETATM    5  N   UNL     1      -9.462  10.095  65.919  1.00  0.00    -0.182 NA 
HETATM    6  H   UNL     1      -8.501  10.237  65.608  1.00  0.00     0.000 HD 
BRANCH   5   7
HETATM    7  C   UNL     1      -9.732   9.240  66.983  1.00  0.00    -0.185 A  
HETATM    8  C   UNL     1      -9.949   9.686  68.306  1.00  0.00    -0.155 A  
HETATM    9  C   UNL     1     -10.361   5.517  67.253  1.00  0.00    -0.236 C  
HETATM   10  C   UNL     1     -10.304   8.735  69.291  1.00  0.00    -0.214 A  
HETATM   11  O   UNL     1     -10.090   4.597  68.195  1.00  0.00    -0.101 OA 
HETATM   12  O   UNL     1     -10.683   5.227  66.112  1.00  0.00    -0.266 OA 
HETATM   13  C   UNL     1     -10.443   7.365  68.991  1.00  0.00    -0.217 A  
HETATM   14  C   UNL     1     -10.200   6.925  67.697  1.00  0.00    -0.235 A  
HETATM   15  C   UNL     1      -9.856   7.859  66.721  1.00  0.00    -0.318 A  
BRANCH   8  16
HETATM   16  O   UNL     1      -9.640  10.963  68.726  1.00  0.00    -0.180 OA 
BRANCH  16  17
HETATM   17  C   UNL     1      -8.367  11.484  68.678  1.00  0.00    -0.123 A  
HETATM   18  C   UNL     1      -7.048  13.392  67.926  1.00  0.00    -0.137 A  
HETATM   19  C   UNL     1      -5.909  12.844  68.522  1.00  0.00    -0.063 A  
HETATM   20  C   UNL     1      -7.216  10.923  69.224  1.00  0.00    -0.128 A  
HETATM   21  C   UNL     1      -8.268  12.716  68.012  1.00  0.00    -0.167 A  
HETATM   22  C   UNL     1      -5.998  11.616  69.169  1.00  0.00    -0.064 A  
ENDBRANCH  16  17
ENDBRANCH   8  16
BRANCH  10  23
HETATM   23  S   UNL     1     -10.639   9.232  70.953  1.00  0.00    -0.322 S  
HETATM   24  O   UNL     1     -11.591  10.318  70.957  1.00  0.00    -0.351 OA 
HETATM   25  H2  UNL     1     -11.597   6.998  71.156  1.00  0.00     0.000 HD 
HETATM   26  H1  UNL     1     -11.578   8.176  72.567  1.00  0.00     0.000 HD 
HETATM   27  N   UNL     1     -11.386   7.889  71.607  1.00  0.00    -0.251 N  
HETATM   28  O   UNL     1      -9.377   9.334  71.659  1.00  0.00    -0.301 OA 
ENDBRANCH  10  23
ENDBRANCH   5   7
ENDBRANCH   4   5
ENDBRANCH   3   4
ENDBRANCH   2   3
TORSDOF 7
ENDMDL
MODEL      125
REMARK 921   NORMALIZED FREE ENERGY PREDICTED BY IDOCK:   -4.14 KCAL/MOL
REMARK 922        TOTAL FREE ENERGY PREDICTED BY IDOCK:   -6.60 KCAL/MOL
REMARK 923 INTER-LIGAND FREE ENERGY PREDICTED BY IDOCK:   -5.64 KCAL/MOL
REMARK 924 INTRA-LIGAND FREE ENERGY PREDICTED BY IDOCK:   -0.96 KCAL/MOL
REMARK 927      BINDING AFFINITY PREDICTED BY RF-SCORE:    0.00 PKD
ROOT
HETATM    1  C   UNL     1      -7.194  10.134  65.124  1.00  0.00    -0.141 C  
HETATM    2  C   UNL     1      -6.828   8.701  65.465  1.00  0.00    -0.075 C  
ENDROOT
BRANCH   2   3
HETATM    3  C   UNL     1      -7.925   7.734  65.012  1.00  0.00    -0.134 C  
BRANCH   3   4
HETATM    4  C   UNL     1      -8.527   7.005  66.204  1.00  0.00    -0.135 C  
BRANCH   4   5
HETATM    5  N   UNL     1      -9.960   7.259  66.330  1.00  0.00    -0.445 NA 
HETATM    6  H   UNL     1     -10.628   6.687  65.812  1.00  0.00     0.000 HD 
BRANCH   5   7
HETATM    7  C   UNL     1     -10.412   8.281  67.160  1.00  0.00    -0.316 A  
HETATM    8  C   UNL     1     -10.702   8.102  68.530  1.00  0.00    -0.014 A  
HETATM    9  C   UNL     1     -10.914  12.003  66.687  1.00  0.00    -0.287 C  
HETATM   10  C   UNL     1     -11.070   9.232  69.297  1.00  0.00    -0.009 A  
HETATM   11  O   UNL     1     -11.795  12.889  67.183  1.00  0.00    -0.365 OA 
HETATM   12  O   UNL     1     -10.203  12.239  65.725  1.00  0.00    -0.244 OA 
HETATM   13  C   UNL     1     -11.158  10.521  68.733  1.00  0.00    -0.315 A  
HETATM   14  C   UNL     1     -10.901  10.689  67.380  1.00  0.00    -0.353 A  
HETATM   15  C   UNL     1     -10.533   9.579  66.621  1.00  0.00    -0.241 A  
BRANCH   8  16
HETATM   16  O   UNL     1     -10.838   6.858  69.111  1.00  0.00    -0.233 OA 
BRANCH  16  17
HETATM   17  C   UNL     1      -9.844   6.262  69.854  1.00  0.00    -0.167 A  
HETATM   18  C   UNL     1      -9.372   4.451  71.417  1.00  0.00    -0.206 A  
HETATM   19  C   UNL     1      -8.014   4.777  71.391  1.00  0.00    -0.101 A  
HETATM   20  C   UNL     1      -8.496   6.610  69.874  1.00  0.00    -0.139 A  
HETATM   21  C   UNL     1     -10.277   5.187  70.647  1.00  0.00    -0.326 A  
HETATM   22  C   UNL     1      -7.583   5.851  70.620  1.00  0.00    -0.092 A  
ENDBRANCH  16  17
ENDBRANCH   8  16
BRANCH  10  23
HETATM   23  S   UNL     1     -11.398   9.087  71.028  1.00  0.00    -0.319 S  
HETATM   24  O   UNL     1     -10.153   9.050  71.759  1.00  0.00    -0.326 OA 
HETATM   25  H2  UNL     1     -12.391  11.299  70.763  1.00  0.00     0.000 HD 
HETATM   26  H1  UNL     1     -12.355  10.442  72.388  1.00  0.00     0.000 HD 
HETATM   27  N   UNL     1     -12.166  10.526  71.389  1.00  0.00    -0.350 N  
HETATM   28  O   UNL     1     -12.412   8.069  71.214  1.00  0.00    -0.304 OA 
ENDBRANCH  10  23
ENDBRANCH   5   7
ENDBRANCH   4   5
ENDBRANCH   3   4
ENDBRANCH   2   3
TORSDOF 7
ENDMDL
MODEL      126
REMARK 921   NORMALIZED FREE ENERGY PREDICTED BY IDOCK:   -4.12 KCAL/MOL
REMARK 922        TOTAL FREE ENERGY PREDICTED BY IDOCK:   -6.57 KCAL/MOL
REMARK 923 INTER-LIGAND FREE ENERGY PREDICTED BY IDOCK:   -5.92 KCAL/MOL
REMARK 924 INTRA-LIGAND FREE ENERGY PREDICTED BY IDOCK:   -0.65 KCAL/MOL
REMARK 927      BINDING AFFINITY PREDICTED BY RF-SCORE:    0.00 PKD
ROOT
HETATM    1  C   UNL     1      -8.500   8.322  73.207  1.00  0.00    -0.267 C  
HETATM    2  C   UNL     1      -9.347   7.214  72.609  1.00  0.00    -0.165 C  
ENDROOT
BRANCH   2   3
HETATM    3  C   UNL     1     -10.748   7.726  72.260  1.00  0.00    -0.325 C  
BRANCH   3   4
HETATM    4  C   UNL     1     -10.714   9.211  71.935  1.00  0.00    -0.264 C  
BRANCH   4   5
HETATM    5  N   UNL     1     -11.473   9.521  70.726  1.00  0.00    -0.288 NA 
HETATM    6  H   UNL     1     -12.154   8.853  70.364  1.00  0.00     0.000 HD 
BRANCH   5   7
HETATM    7  C   UNL     1     -11.266  10.730  70.068  1.00  0.00    -0.291 A  
HETATM    8  C   UNL     1     -10.392  10.880  68.968  1.00  0.00    -0.211 A  
HETATM    9  C   UNL     1     -12.838  14.162  70.347  1.00  0.00    -0.197 C  
HETATM   10  C   UNL     1     -10.328  12.136  68.321  1.00  0.00    -0.212 A  
HETATM   11  O   UNL     1     -12.370  15.412  70.183  1.00  0.00    -0.356 OA 
HETATM   12  O   UNL     1     -13.899  13.915  70.897  1.00  0.00     0.013 OA 
HETATM   13  C   UNL     1     -11.104  13.234  68.743  1.00  0.00    -0.303 A  
HETATM   14  C   UNL     1     -11.940  13.092  69.842  1.00  0.00    -0.387 A  
HETATM   15  C   UNL     1     -12.011  11.855  70.480  1.00  0.00    -0.360 A  
BRANCH   8  16
HETATM   16  O   UNL     1      -9.457   9.927  68.619  1.00  0.00    -0.146 OA 
BRANCH  16  17
HETATM   17  C   UNL     1      -9.792   8.649  68.235  1.00  0.00    -0.165 A  
HETATM   18  C   UNL     1      -9.401   6.287  68.699  1.00  0.00    -0.122 A  
HETATM   19  C   UNL     1     -10.360   5.936  67.747  1.00  0.00    -0.262 A  
HETATM   20  C   UNL     1     -10.710   8.288  67.253  1.00  0.00    -0.241 A  
HETATM   21  C   UNL     1      -9.126   7.636  68.944  1.00  0.00    -0.140 A  
HETATM   22  C   UNL     1     -11.011   6.936  67.031  1.00  0.00    -0.404 A  
ENDBRANCH  16  17
ENDBRANCH   8  16
BRANCH  10  23
HETATM   23  S   UNL     1      -9.294  12.377  66.909  1.00  0.00    -0.217 S  
HETATM   24  O   UNL     1      -9.491  13.706  66.379  1.00  0.00    -0.273 OA 
HETATM   25  H2  UNL     1      -7.477  12.151  68.521  1.00  0.00     0.000 HD 
HETATM   26  H1  UNL     1      -7.156  12.440  66.735  1.00  0.00     0.000 HD 
HETATM   27  N   UNL     1      -7.753  12.301  67.550  1.00  0.00    -0.148 N  
HETATM   28  O   UNL     1      -9.400  11.206  66.062  1.00  0.00    -0.192 OA 
ENDBRANCH  10  23
ENDBRANCH   5   7
ENDBRANCH   4   5
ENDBRANCH   3   4
ENDBRANCH   2   3
TORSDOF 7
ENDMDL
MODEL      127
REMARK 921   NORMALIZED FREE ENERGY PREDICTED BY IDOCK:   -4.09 KCAL/MOL
REMARK 922        TOTAL FREE ENERGY PREDICTED BY IDOCK:   -6.53 KCAL/MOL
REMARK 923 INTER-LIGAND FREE ENERGY PREDICTED BY IDOCK:   -5.72 KCAL/MOL
REMARK 924 INTRA-LIGAND FREE ENERGY PREDICTED BY IDOCK:   -0.81 KCAL/MOL
REMARK 927      BINDING AFFINITY PREDICTED BY RF-SCORE:    0.00 PKD
ROOT
HETATM    1  C   UNL     1     -13.304  10.292  71.933  1.00  0.00    -0.487 C  
HETATM    2  C   UNL     1     -13.158  11.744  71.516  1.00  0.00    -0.389 C  
ENDROOT
BRANCH   2   3
HETATM    3  C   UNL     1     -12.061  11.901  70.459  1.00  0.00    -0.422 C  
BRANCH   3   4
HETATM    4  C   UNL     1     -12.158  10.802  69.413  1.00  0.00    -0.244 C  
BRANCH   4   5
HETATM    5  N   UNL     1     -10.875  10.136  69.202  1.00  0.00    -0.216 NA 
HETATM    6  H   UNL     1     -10.055  10.680  68.933  1.00  0.00     0.000 HD 
BRANCH   5   7
HETATM    7  C   UNL     1     -10.773   8.758  69.370  1.00  0.00    -0.169 A  
HETATM    8  C   UNL     1     -10.397   7.872  68.336  1.00  0.00    -0.199 A  
HETATM    9  C   UNL     1     -11.052   6.461  72.365  1.00  0.00    -0.268 C  
HETATM   10  C   UNL     1     -10.239   6.501  68.644  1.00  0.00    -0.172 A  
HETATM   11  O   UNL     1     -11.496   5.203  72.530  1.00  0.00    -0.184 OA 
HETATM   12  O   UNL     1     -10.862   7.226  73.296  1.00  0.00    -0.350 OA 
HETATM   13  C   UNL     1     -10.450   5.998  69.944  1.00  0.00    -0.313 A  
HETATM   14  C   UNL     1     -10.848   6.866  70.951  1.00  0.00    -0.277 A  
HETATM   15  C   UNL     1     -10.999   8.219  70.654  1.00  0.00    -0.257 A  
BRANCH   8  16
HETATM   16  O   UNL     1     -10.368   8.241  67.007  1.00  0.00    -0.280 OA 
BRANCH  16  17
HETATM   17  C   UNL     1      -9.412   9.078  66.479  1.00  0.00    -0.206 A  
HETATM   18  C   UNL     1      -8.950  10.644  64.667  1.00  0.00    -0.216 A  
HETATM   19  C   UNL     1      -7.706  10.936  65.232  1.00  0.00     0.161 A  
HETATM   20  C   UNL     1      -8.150   9.339  67.005  1.00  0.00    -0.112 A  
HETATM   21  C   UNL     1      -9.797   9.725  65.293  1.00  0.00    -0.335 A  
HETATM   22  C   UNL     1      -7.313  10.286  66.397  1.00  0.00    -0.114 A  
ENDBRANCH  16  17
ENDBRANCH   8  16
BRANCH  10  23
HETATM   23  S   UNL     1      -9.721   5.347  67.410  1.00  0.00    -0.151 S  
HETATM   24  O   UNL     1      -8.349   5.607  67.043  1.00  0.00    -0.108 OA 
HETATM   25  H2  UNL     1     -10.038   3.701  69.181  1.00  0.00     0.000 HD 
HETATM   26  H1  UNL     1      -9.474   3.218  67.501  1.00  0.00     0.000 HD 
HETATM   27  N   UNL     1      -9.773   3.884  68.213  1.00  0.00    -0.104 N  
HETATM   28  O   UNL     1     -10.764   5.256  66.408  1.00  0.00    -0.307 OA 
ENDBRANCH  10  23
ENDBRANCH   5   7
ENDBRANCH   4   5
ENDBRANCH   3   4
ENDBRANCH   2   3
TORSDOF 7
ENDMDL
MODEL      128
REMARK 921   NORMALIZED FREE ENERGY PREDICTED BY IDOCK:   -4.06 KCAL/MOL
REMARK 922        TOTAL FREE ENERGY PREDICTED BY IDOCK:   -6.49 KCAL/MOL
REMARK 923 INTER-LIGAND FREE ENERGY PREDICTED BY IDOCK:   -5.36 KCAL/MOL
REMARK 924 INTRA-LIGAND FREE ENERGY PREDICTED BY IDOCK:   -1.13 KCAL/MOL
REMARK 927      BINDING AFFINITY PREDICTED BY RF-SCORE:    0.00 PKD
ROOT
HETATM    1  C   UNL     1      -5.419  13.491  70.529  1.00  0.00    -0.145 C  
HETATM    2  C   UNL     1      -6.700  14.158  70.065  1.00  0.00     0.002 C  
ENDROOT
BRANCH   2   3
HETATM    3  C   UNL     1      -6.674  14.398  68.552  1.00  0.00    -0.097 C  
BRANCH   3   4
HETATM    4  C   UNL     1      -8.043  14.826  68.050  1.00  0.00    -0.139 C  
BRANCH   4   5
HETATM    5  N   UNL     1      -9.009  13.732  68.101  1.00  0.00    -0.185 NA 
HETATM    6  H   UNL     1      -9.387  13.425  68.998  1.00  0.00     0.000 HD 
BRANCH   5   7
HETATM    7  C   UNL     1      -9.415  13.109  66.924  1.00  0.00    -0.244 A  
HETATM    8  C   UNL     1      -8.767  11.980  66.377  1.00  0.00    -0.088 A  
HETATM    9  C   UNL     1     -12.367  13.574  64.602  1.00  0.00    -0.372 C  
HETATM   10  C   UNL     1      -9.320  11.375  65.224  1.00  0.00    -0.171 A  
HETATM   11  O   UNL     1     -12.534  13.433  63.275  1.00  0.00    -0.739 OA 
HETATM   12  O   UNL     1     -13.166  14.158  65.315  1.00  0.00    -0.760 OA 
HETATM   13  C   UNL     1     -10.489  11.867  64.610  1.00  0.00    -0.340 A  
HETATM   14  C   UNL     1     -11.107  12.994  65.133  1.00  0.00    -0.317 A  
HETATM   15  C   UNL     1     -10.569  13.591  66.272  1.00  0.00    -0.288 A  
BRANCH   8  16
HETATM   16  O   UNL     1      -7.519  11.559  66.789  1.00  0.00    -0.144 OA 
BRANCH  16  17
HETATM   17  C   UNL     1      -7.305  10.875  67.964  1.00  0.00    -0.088 A  
HETATM   18  C   UNL     1      -5.579   9.968  69.428  1.00  0.00    -0.038 A  
HETATM   19  C   UNL     1      -6.556   9.593  70.354  1.00  0.00    -0.096 A  
HETATM   20  C   UNL     1      -8.274  10.452  68.870  1.00  0.00    -0.132 A  
HETATM   21  C   UNL     1      -5.955  10.610  68.245  1.00  0.00    -0.046 A  
HETATM   22  C   UNL     1      -7.896   9.838  70.073  1.00  0.00    -0.188 A  
ENDBRANCH  16  17
ENDBRANCH   8  16
BRANCH  10  23
HETATM   23  S   UNL     1      -8.587   9.930  64.518  1.00  0.00    -0.203 S  
HETATM   24  O   UNL     1      -7.149  10.052  64.536  1.00  0.00    -0.133 OA 
HETATM   25  H2  UNL     1      -9.568   8.803  66.446  1.00  0.00     0.000 HD 
HETATM   26  H1  UNL     1      -8.595   7.890  65.183  1.00  0.00     0.000 HD 
HETATM   27  N   UNL     1      -9.017   8.724  65.591  1.00  0.00    -0.201 N  
HETATM   28  O   UNL     1      -9.300   9.610  63.297  1.00  0.00    -0.207 OA 
ENDBRANCH  10  23
ENDBRANCH   5   7
ENDBRANCH   4   5
ENDBRANCH   3   4
ENDBRANCH   2   3
TORSDOF 7
ENDMDL
MODEL      129
REMARK 921   NORMALIZED FREE ENERGY PREDICTED BY IDOCK:   -4.06 KCAL/MOL
REMARK 922        TOTAL FREE ENERGY PREDICTED BY IDOCK:   -6.49 KCAL/MOL
REMARK 923 INTER-LIGAND FREE ENERGY PREDICTED BY IDOCK:   -6.23 KCAL/MOL
REMARK 924 INTRA-LIGAND FREE ENERGY PREDICTED BY IDOCK:   -0.26 KCAL/MOL
REMARK 927      BINDING AFFINITY PREDICTED BY RF-SCORE:    0.00 PKD
ROOT
HETATM    1  C   UNL     1      -6.002  12.064  70.072  1.00  0.00    -0.159 C  
HETATM    2  C   UNL     1      -6.403  12.510  68.678  1.00  0.00    -0.073 C  
ENDROOT
BRANCH   2   3
HETATM    3  C   UNL     1      -6.420  11.325  67.708  1.00  0.00    -0.060 C  
BRANCH   3   4
HETATM    4  C   UNL     1      -6.948  10.075  68.394  1.00  0.00    -0.067 C  
BRANCH   4   5
HETATM    5  N   UNL     1      -8.226   9.645  67.834  1.00  0.00    -0.106 NA 
HETATM    6  H   UNL     1      -8.304   8.737  67.373  1.00  0.00     0.000 HD 
BRANCH   5   7
HETATM    7  C   UNL     1      -9.340  10.474  67.930  1.00  0.00    -0.143 A  
HETATM    8  C   UNL     1      -9.817  11.265  66.861  1.00  0.00    -0.193 A  
HETATM    9  C   UNL     1     -11.934  11.069  70.621  1.00  0.00    -0.365 C  
HETATM   10  C   UNL     1     -11.011  12.002  67.045  1.00  0.00    -0.274 A  
HETATM   11  O   UNL     1     -12.639  12.148  71.006  1.00  0.00    -0.362 OA 
HETATM   12  O   UNL     1     -11.839  10.060  71.298  1.00  0.00    -0.354 OA 
HETATM   13  C   UNL     1     -11.728  11.971  68.258  1.00  0.00    -0.396 A  
HETATM   14  C   UNL     1     -11.241  11.217  69.315  1.00  0.00    -0.331 A  
HETATM   15  C   UNL     1     -10.069  10.484  69.137  1.00  0.00    -0.240 A  
BRANCH   8  16
HETATM   16  O   UNL     1      -9.078  11.510  65.722  1.00  0.00    -0.209 OA 
BRANCH  16  17
HETATM   17  C   UNL     1      -8.898  10.578  64.726  1.00  0.00    -0.196 A  
HETATM   18  C   UNL     1      -9.491  10.012  62.430  1.00  0.00    -0.224 A  
HETATM   19  C   UNL     1      -8.638   8.907  62.477  1.00  0.00    -0.195 A  
HETATM   20  C   UNL     1      -8.089   9.446  64.780  1.00  0.00    -0.131 A  
HETATM   21  C   UNL     1      -9.613  10.843  63.546  1.00  0.00    -0.354 A  
HETATM   22  C   UNL     1      -7.941   8.631  63.649  1.00  0.00    -0.160 A  
ENDBRANCH  16  17
ENDBRANCH   8  16
BRANCH  10  23
HETATM   23  S   UNL     1     -11.689  12.972  65.733  1.00  0.00    -0.404 S  
HETATM   24  O   UNL     1     -12.650  12.188  64.992  1.00  0.00    -0.514 OA 
HETATM   25  H2  UNL     1     -12.610  14.316  67.548  1.00  0.00     0.000 HD 
HETATM   26  H1  UNL     1     -12.910  14.735  65.784  1.00  0.00     0.000 HD 
HETATM   27  N   UNL     1     -12.518  14.176  66.542  1.00  0.00    -0.385 N  
HETATM   28  O   UNL     1     -10.601  13.657  65.064  1.00  0.00    -0.337 OA 
ENDBRANCH  10  23
ENDBRANCH   5   7
ENDBRANCH   4   5
ENDBRANCH   3   4
ENDBRANCH   2   3
TORSDOF 7
ENDMDL
MODEL      130
REMARK 921   NORMALIZED FREE ENERGY PREDICTED BY IDOCK:   -4.00 KCAL/MOL
REMARK 922        TOTAL FREE ENERGY PREDICTED BY IDOCK:   -6.40 KCAL/MOL
REMARK 923 INTER-LIGAND FREE ENERGY PREDICTED BY IDOCK:   -4.98 KCAL/MOL
REMARK 924 INTRA-LIGAND FREE ENERGY PREDICTED BY IDOCK:   -1.42 KCAL/MOL
REMARK 927      BINDING AFFINITY PREDICTED BY RF-SCORE:    0.00 PKD
ROOT
HETATM    1  C   UNL     1      -5.529  10.787  65.686  1.00  0.00    -0.141 C  
HETATM    2  C   UNL     1      -6.511   9.980  64.858  1.00  0.00    -0.125 C  
ENDROOT
BRANCH   2   3
HETATM    3  C   UNL     1      -7.954  10.397  65.160  1.00  0.00    -0.134 C  
BRANCH   3   4
HETATM    4  C   UNL     1      -8.897   9.211  65.027  1.00  0.00    -0.189 C  
BRANCH   4   5
HETATM    5  N   UNL     1     -10.048   9.329  65.919  1.00  0.00    -0.367 NA 
HETATM    6  H   UNL     1     -10.776  10.017  65.725  1.00  0.00     0.000 HD 
BRANCH   5   7
HETATM    7  C   UNL     1     -10.150   8.500  67.033  1.00  0.00    -0.277 A  
HETATM    8  C   UNL     1     -10.538   8.957  68.311  1.00  0.00    -0.152 A  
HETATM    9  C   UNL     1      -9.843   4.764  67.549  1.00  0.00    -0.162 C  
HETATM   10  C   UNL     1     -10.694   8.010  69.350  1.00  0.00    -0.159 A  
HETATM   11  O   UNL     1      -9.398   4.001  68.563  1.00  0.00    -0.139 OA 
HETATM   12  O   UNL     1     -10.023   4.332  66.422  1.00  0.00    -0.221 OA 
HETATM   13  C   UNL     1     -10.471   6.634  69.145  1.00  0.00    -0.250 A  
HETATM   14  C   UNL     1     -10.061   6.191  67.895  1.00  0.00    -0.179 A  
HETATM   15  C   UNL     1      -9.911   7.120  66.867  1.00  0.00    -0.293 A  
BRANCH   8  16
HETATM   16  O   UNL     1     -10.580  10.295  68.648  1.00  0.00    -0.186 OA 
BRANCH  16  17
HETATM   17  C   UNL     1      -9.487  11.127  68.559  1.00  0.00    -0.193 A  
HETATM   18  C   UNL     1      -7.143  11.373  69.184  1.00  0.00    -0.115 A  
HETATM   19  C   UNL     1      -7.069  12.562  68.454  1.00  0.00    -0.107 A  
HETATM   20  C   UNL     1      -9.416  12.339  67.876  1.00  0.00    -0.200 A  
HETATM   21  C   UNL     1      -8.344  10.660  69.228  1.00  0.00    -0.112 A  
HETATM   22  C   UNL     1      -8.202  13.037  67.803  1.00  0.00    -0.168 A  
ENDBRANCH  16  17
ENDBRANCH   8  16
BRANCH  10  23
HETATM   23  S   UNL     1     -11.226   8.508  70.960  1.00  0.00    -0.276 S  
HETATM   24  O   UNL     1     -12.432   9.295  70.855  1.00  0.00    -0.244 OA 
HETATM   25  H2  UNL     1     -11.564   6.117  71.306  1.00  0.00     0.000 HD 
HETATM   26  H1  UNL     1     -11.925   7.347  72.623  1.00  0.00     0.000 HD 
HETATM   27  N   UNL     1     -11.618   7.059  71.694  1.00  0.00    -0.270 N  
HETATM   28  O   UNL     1     -10.072   8.992  71.690  1.00  0.00    -0.316 OA 
ENDBRANCH  10  23
ENDBRANCH   5   7
ENDBRANCH   4   5
ENDBRANCH   3   4
ENDBRANCH   2   3
TORSDOF 7
ENDMDL
MODEL      131
REMARK 921   NORMALIZED FREE ENERGY PREDICTED BY IDOCK:   -3.99 KCAL/MOL
REMARK 922        TOTAL FREE ENERGY PREDICTED BY IDOCK:   -6.39 KCAL/MOL
REMARK 923 INTER-LIGAND FREE ENERGY PREDICTED BY IDOCK:   -5.76 KCAL/MOL
REMARK 924 INTRA-LIGAND FREE ENERGY PREDICTED BY IDOCK:   -0.63 KCAL/MOL
REMARK 927      BINDING AFFINITY PREDICTED BY RF-SCORE:    0.00 PKD
ROOT
HETATM    1  C   UNL     1     -11.617  14.306  66.748  1.00  0.00    -0.407 C  
HETATM    2  C   UNL     1     -11.328  13.061  67.567  1.00  0.00    -0.346 C  
ENDROOT
BRANCH   2   3
HETATM    3  C   UNL     1     -11.421  11.802  66.700  1.00  0.00    -0.337 C  
BRANCH   3   4
HETATM    4  C   UNL     1     -10.422  10.753  67.163  1.00  0.00    -0.237 C  
BRANCH   4   5
HETATM    5  N   UNL     1      -9.812  11.110  68.441  1.00  0.00    -0.179 NA 
HETATM    6  H   UNL     1      -9.212  11.932  68.510  1.00  0.00     0.000 HD 
BRANCH   5   7
HETATM    7  C   UNL     1     -10.051  10.326  69.567  1.00  0.00    -0.235 A  
HETATM    8  C   UNL     1      -9.054   9.561  70.210  1.00  0.00    -0.253 A  
HETATM    9  C   UNL     1     -13.055   9.826  71.815  1.00  0.00    -0.431 C  
HETATM   10  C   UNL     1      -9.391   8.873  71.399  1.00  0.00    -0.268 A  
HETATM   11  O   UNL     1     -13.530   8.777  72.508  1.00  0.00    -0.397 OA 
HETATM   12  O   UNL     1     -13.714  10.828  71.591  1.00  0.00    -0.066 OA 
HETATM   13  C   UNL     1     -10.686   8.927  71.952  1.00  0.00    -0.426 A  
HETATM   14  C   UNL     1     -11.672   9.657  71.302  1.00  0.00    -0.458 A  
HETATM   15  C   UNL     1     -11.343  10.341  70.133  1.00  0.00    -0.388 A  
BRANCH   8  16
HETATM   16  O   UNL     1      -7.829   9.290  69.635  1.00  0.00    -0.077 OA 
BRANCH  16  17
HETATM   17  C   UNL     1      -7.575   8.149  68.910  1.00  0.00    -0.098 A  
HETATM   18  C   UNL     1      -8.578   6.497  67.422  1.00  0.00    -0.118 A  
HETATM   19  C   UNL     1      -7.333   5.885  67.256  1.00  0.00    -0.077 A  
HETATM   20  C   UNL     1      -6.349   7.501  68.777  1.00  0.00    -0.039 A  
HETATM   21  C   UNL     1      -8.692   7.625  68.239  1.00  0.00    -0.123 A  
HETATM   22  C   UNL     1      -6.226   6.390  67.930  1.00  0.00    -0.028 A  
ENDBRANCH  16  17
ENDBRANCH   8  16
BRANCH  10  23
HETATM   23  S   UNL     1      -8.178   7.938  72.281  1.00  0.00    -0.141 S  
HETATM   24  O   UNL     1      -6.983   8.729  72.456  1.00  0.00    -0.279 OA 
HETATM   25  H2  UNL     1      -9.789   8.058  74.110  1.00  0.00     0.000 HD 
HETATM   26  H1  UNL     1      -8.181   7.188  74.291  1.00  0.00     0.000 HD 
HETATM   27  N   UNL     1      -8.881   7.727  73.782  1.00  0.00    -0.249 N  
HETATM   28  O   UNL     1      -8.124   6.608  71.708  1.00  0.00    -0.103 OA 
ENDBRANCH  10  23
ENDBRANCH   5   7
ENDBRANCH   4   5
ENDBRANCH   3   4
ENDBRANCH   2   3
TORSDOF 7
ENDMDL
MODEL      132
REMARK 921   NORMALIZED FREE ENERGY PREDICTED BY IDOCK:   -3.99 KCAL/MOL
REMARK 922        TOTAL FREE ENERGY PREDICTED BY IDOCK:   -6.39 KCAL/MOL
REMARK 923 INTER-LIGAND FREE ENERGY PREDICTED BY IDOCK:   -6.08 KCAL/MOL
REMARK 924 INTRA-LIGAND FREE ENERGY PREDICTED BY IDOCK:   -0.31 KCAL/MOL
REMARK 927      BINDING AFFINITY PREDICTED BY RF-SCORE:    0.00 PKD
ROOT
HETATM    1  C   UNL     1      -9.920   4.442  66.178  1.00  0.00    -0.256 C  
HETATM    2  C   UNL     1     -10.058   4.613  67.679  1.00  0.00    -0.111 C  
ENDROOT
BRANCH   2   3
HETATM    3  C   UNL     1      -9.975   6.092  68.071  1.00  0.00    -0.162 C  
BRANCH   3   4
HETATM    4  C   UNL     1     -10.460   6.978  66.935  1.00  0.00    -0.286 C  
BRANCH   4   5
HETATM    5  N   UNL     1      -9.563   8.108  66.705  1.00  0.00    -0.199 NA 
HETATM    6  H   UNL     1      -8.553   7.964  66.687  1.00  0.00     0.000 HD 
BRANCH   5   7
HETATM    7  C   UNL     1     -10.088   9.382  66.511  1.00  0.00    -0.262 A  
HETATM    8  C   UNL     1     -10.611  10.178  67.554  1.00  0.00    -0.273 A  
HETATM    9  C   UNL     1     -10.294  11.698  63.524  1.00  0.00    -0.441 C  
HETATM   10  C   UNL     1     -11.036  11.493  67.254  1.00  0.00    -0.293 A  
HETATM   11  O   UNL     1     -11.194  12.612  63.120  1.00  0.00    -0.362 OA 
HETATM   12  O   UNL     1      -9.422  11.256  62.794  1.00  0.00    -0.352 OA 
HETATM   13  C   UNL     1     -10.957  12.025  65.951  1.00  0.00    -0.342 A  
HETATM   14  C   UNL     1     -10.470  11.231  64.923  1.00  0.00    -0.375 A  
HETATM   15  C   UNL     1     -10.044   9.937  65.214  1.00  0.00    -0.227 A  
BRANCH   8  16
HETATM   16  O   UNL     1     -10.911   9.673  68.803  1.00  0.00    -0.219 OA 
BRANCH  16  17
HETATM   17  C   UNL     1      -9.950   9.338  69.729  1.00  0.00    -0.199 A  
HETATM   18  C   UNL     1      -7.632   9.714  70.385  1.00  0.00    -0.176 A  
HETATM   19  C   UNL     1      -7.821   8.926  71.523  1.00  0.00    -0.107 A  
HETATM   20  C   UNL     1     -10.114   8.514  70.839  1.00  0.00    -0.246 A  
HETATM   21  C   UNL     1      -8.693   9.922  69.500  1.00  0.00    -0.200 A  
HETATM   22  C   UNL     1      -9.059   8.333  71.746  1.00  0.00    -0.255 A  
ENDBRANCH  16  17
ENDBRANCH   8  16
BRANCH  10  23
HETATM   23  S   UNL     1     -11.654  12.558  68.522  1.00  0.00    -0.341 S  
HETATM   24  O   UNL     1     -12.283  11.773  69.557  1.00  0.00    -0.258 OA 
HETATM   25  H2  UNL     1      -9.296  13.071  68.882  1.00  0.00     0.000 HD 
HETATM   26  H1  UNL     1     -10.621  13.849  69.889  1.00  0.00     0.000 HD 
HETATM   27  N   UNL     1     -10.265  13.234  69.158  1.00  0.00     0.103 N  
HETATM   28  O   UNL     1     -12.346  13.663  67.889  1.00  0.00    -0.238 OA 
ENDBRANCH  10  23
ENDBRANCH   5   7
ENDBRANCH   4   5
ENDBRANCH   3   4
ENDBRANCH   2   3
TORSDOF 7
ENDMDL
MODEL      133
REMARK 921   NORMALIZED FREE ENERGY PREDICTED BY IDOCK:   -3.97 KCAL/MOL
REMARK 922        TOTAL FREE ENERGY PREDICTED BY IDOCK:   -6.36 KCAL/MOL
REMARK 923 INTER-LIGAND FREE ENERGY PREDICTED BY IDOCK:   -5.67 KCAL/MOL
REMARK 924 INTRA-LIGAND FREE ENERGY PREDICTED BY IDOCK:   -0.69 KCAL/MOL
REMARK 927      BINDING AFFINITY PREDICTED BY RF-SCORE:    0.00 PKD
ROOT
HETATM    1  C   UNL     1     -12.740  13.316  65.392  1.00  0.00    -0.460 C  
HETATM    2  C   UNL     1     -12.099  14.194  64.333  1.00  0.00    -0.486 C  
ENDROOT
BRANCH   2   3
HETATM    3  C   UNL     1     -10.616  14.424  64.639  1.00  0.00    -0.331 C  
BRANCH   3   4
HETATM    4  C   UNL     1     -10.424  15.690  65.458  1.00  0.00    -0.404 C  
BRANCH   4   5
HETATM    5  N   UNL     1      -9.048  16.177  65.395  1.00  0.00    -0.102 NA 
HETATM    6  H   UNL     1      -8.583  16.279  64.493  1.00  0.00     0.000 HD 
BRANCH   5   7
HETATM    7  C   UNL     1      -8.373  16.502  66.568  1.00  0.00    -0.292 A  
HETATM    8  C   UNL     1      -7.742  15.546  67.395  1.00  0.00    -0.194 A  
HETATM    9  C   UNL     1      -7.450  19.772  68.234  1.00  0.00    -0.311 C  
HETATM   10  C   UNL     1      -7.009  15.999  68.516  1.00  0.00    -0.131 A  
HETATM   11  O   UNL     1      -7.320  20.155  69.517  1.00  0.00    -0.093 OA 
HETATM   12  O   UNL     1      -7.524  20.563  67.308  1.00  0.00    -0.306 OA 
HETATM   13  C   UNL     1      -6.894  17.369  68.829  1.00  0.00    -0.228 A  
HETATM   14  C   UNL     1      -7.539  18.304  68.031  1.00  0.00    -0.257 A  
HETATM   15  C   UNL     1      -8.258  17.862  66.923  1.00  0.00    -0.256 A  
BRANCH   8  16
HETATM   16  O   UNL     1      -7.970  14.190  67.280  1.00  0.00    -0.184 OA 
BRANCH  16  17
HETATM   17  C   UNL     1      -9.097  13.571  67.771  1.00  0.00    -0.207 A  
HETATM   18  C   UNL     1     -10.162  11.405  68.113  1.00  0.00    -0.200 A  
HETATM   19  C   UNL     1     -11.220  12.026  68.782  1.00  0.00    -0.316 A  
HETATM   20  C   UNL     1     -10.180  14.185  68.394  1.00  0.00    -0.247 A  
HETATM   21  C   UNL     1      -9.106  12.175  67.619  1.00  0.00    -0.181 A  
HETATM   22  C   UNL     1     -11.223  13.410  68.921  1.00  0.00    -0.320 A  
ENDBRANCH  16  17
ENDBRANCH   8  16
BRANCH  10  23
HETATM   23  S   UNL     1      -6.154  14.860  69.563  1.00  0.00    -0.123 S  
HETATM   24  O   UNL     1      -7.102  13.976  70.199  1.00  0.00     0.173 OA 
HETATM   25  H2  UNL     1      -5.203  14.046  67.469  1.00  0.00     0.000 HD 
HETATM   26  H1  UNL     1      -4.758  13.303  69.089  1.00  0.00     0.000 HD 
HETATM   27  N   UNL     1      -5.251  13.960  68.485  1.00  0.00    -0.086 N  
HETATM   28  O   UNL     1      -5.178  15.600  70.337  1.00  0.00    -0.133 OA 
ENDBRANCH  10  23
ENDBRANCH   5   7
ENDBRANCH   4   5
ENDBRANCH   3   4
ENDBRANCH   2   3
TORSDOF 7
ENDMDL
MODEL      134
REMARK 921   NORMALIZED FREE ENERGY PREDICTED BY IDOCK:   -3.95 KCAL/MOL
REMARK 922        TOTAL FREE ENERGY PREDICTED BY IDOCK:   -6.33 KCAL/MOL
REMARK 923 INTER-LIGAND FREE ENERGY PREDICTED BY IDOCK:   -5.64 KCAL/MOL
REMARK 924 INTRA-LIGAND FREE ENERGY PREDICTED BY IDOCK:   -0.69 KCAL/MOL
REMARK 927      BINDING AFFINITY PREDICTED BY RF-SCORE:    0.00 PKD
ROOT
HETATM    1  C   UNL     1      -7.549   4.344  66.843  1.00  0.00    -0.085 C  
HETATM    2  C   UNL     1      -6.210   4.819  67.377  1.00  0.00    -0.039 C  
ENDROOT
BRANCH   2   3
HETATM    3  C   UNL     1      -6.309   6.254  67.904  1.00  0.00    -0.033 C  
BRANCH   3   4
HETATM    4  C   UNL     1      -7.536   6.952  67.338  1.00  0.00    -0.097 C  
BRANCH   4   5
HETATM    5  N   UNL     1      -7.655   8.323  67.827  1.00  0.00    -0.100 NA 
HETATM    6  H   UNL     1      -7.062   8.647  68.592  1.00  0.00     0.000 HD 
BRANCH   5   7
HETATM    7  C   UNL     1      -8.580   9.188  67.248  1.00  0.00    -0.118 A  
HETATM    8  C   UNL     1      -9.463   9.998  67.995  1.00  0.00    -0.137 A  
HETATM    9  C   UNL     1      -9.283  10.262  63.688  1.00  0.00    -0.280 C  
HETATM   10  C   UNL     1     -10.299  10.905  67.303  1.00  0.00    -0.216 A  
HETATM   11  O   UNL     1     -10.403  10.609  63.028  1.00  0.00    -0.140 OA 
HETATM   12  O   UNL     1      -8.237   9.987  63.124  1.00  0.00    -0.142 OA 
HETATM   13  C   UNL     1     -10.277  11.018  65.898  1.00  0.00    -0.309 A  
HETATM   14  C   UNL     1      -9.429  10.199  65.165  1.00  0.00    -0.319 A  
HETATM   15  C   UNL     1      -8.599   9.308  65.843  1.00  0.00    -0.163 A  
BRANCH   8  16
HETATM   16  O   UNL     1      -9.694   9.811  69.343  1.00  0.00    -0.179 OA 
BRANCH  16  17
HETATM   17  C   UNL     1     -10.447   8.772  69.840  1.00  0.00    -0.221 A  
HETATM   18  C   UNL     1     -11.954   8.120  71.643  1.00  0.00    -0.340 A  
HETATM   19  C   UNL     1     -12.153   6.879  71.033  1.00  0.00    -0.429 A  
HETATM   20  C   UNL     1     -10.613   7.514  69.267  1.00  0.00    -0.215 A  
HETATM   21  C   UNL     1     -11.111   9.060  71.043  1.00  0.00    -0.356 A  
HETATM   22  C   UNL     1     -11.486   6.583  69.849  1.00  0.00    -0.467 A  
ENDBRANCH  16  17
ENDBRANCH   8  16
BRANCH  10  23
HETATM   23  S   UNL     1     -11.391  11.984  68.179  1.00  0.00    -0.317 S  
HETATM   24  O   UNL     1     -10.630  12.846  69.052  1.00  0.00    -0.167 OA 
HETATM   25  H2  UNL     1     -11.861  12.888  65.962  1.00  0.00     0.000 HD 
HETATM   26  H1  UNL     1     -12.677  13.548  67.471  1.00  0.00     0.000 HD 
HETATM   27  N   UNL     1     -12.047  12.926  66.965  1.00  0.00    -0.312 N  
HETATM   28  O   UNL     1     -12.502  11.197  68.677  1.00  0.00    -0.463 OA 
ENDBRANCH  10  23
ENDBRANCH   5   7
ENDBRANCH   4   5
ENDBRANCH   3   4
ENDBRANCH   2   3
TORSDOF 7
ENDMDL
MODEL      135
REMARK 921   NORMALIZED FREE ENERGY PREDICTED BY IDOCK:   -3.95 KCAL/MOL
REMARK 922        TOTAL FREE ENERGY PREDICTED BY IDOCK:   -6.33 KCAL/MOL
REMARK 923 INTER-LIGAND FREE ENERGY PREDICTED BY IDOCK:   -5.72 KCAL/MOL
REMARK 924 INTRA-LIGAND FREE ENERGY PREDICTED BY IDOCK:   -0.61 KCAL/MOL
REMARK 927      BINDING AFFINITY PREDICTED BY RF-SCORE:    0.00 PKD
ROOT
HETATM    1  C   UNL     1      -6.074  10.557  65.998  1.00  0.00    -0.119 C  
HETATM    2  C   UNL     1      -6.569   9.974  64.687  1.00  0.00    -0.128 C  
ENDROOT
BRANCH   2   3
HETATM    3  C   UNL     1      -8.024  10.374  64.425  1.00  0.00    -0.085 C  
BRANCH   3   4
HETATM    4  C   UNL     1      -8.957   9.196  64.657  1.00  0.00    -0.110 C  
BRANCH   4   5
HETATM    5  N   UNL     1     -10.137   9.581  65.427  1.00  0.00    -0.337 NA 
HETATM    6  H   UNL     1     -10.957   9.959  64.952  1.00  0.00     0.000 HD 
BRANCH   5   7
HETATM    7  C   UNL     1     -10.142   9.430  66.811  1.00  0.00    -0.256 A  
HETATM    8  C   UNL     1     -11.030  10.118  67.667  1.00  0.00    -0.268 A  
HETATM    9  C   UNL     1      -8.289   7.153  69.200  1.00  0.00    -0.129 C  
HETATM   10  C   UNL     1     -11.005   9.820  69.050  1.00  0.00    -0.163 A  
HETATM   11  O   UNL     1      -7.837   7.300  70.458  1.00  0.00    -0.095 OA 
HETATM   12  O   UNL     1      -7.933   6.245  68.467  1.00  0.00    -0.103 OA 
HETATM   13  C   UNL     1     -10.121   8.864  69.592  1.00  0.00    -0.202 A  
HETATM   14  C   UNL     1      -9.230   8.211  68.752  1.00  0.00    -0.144 A  
HETATM   15  C   UNL     1      -9.255   8.498  67.389  1.00  0.00    -0.163 A  
BRANCH   8  16
HETATM   16  O   UNL     1     -11.778  11.202  67.256  1.00  0.00    -0.540 OA 
BRANCH  16  17
HETATM   17  C   UNL     1     -11.256  12.239  66.517  1.00  0.00    -0.324 A  
HETATM   18  C   UNL     1     -11.714  13.764  64.670  1.00  0.00    -0.417 A  
HETATM   19  C   UNL     1     -10.504  14.422  64.908  1.00  0.00    -0.448 A  
HETATM   20  C   UNL     1     -10.030  12.869  66.713  1.00  0.00    -0.243 A  
HETATM   21  C   UNL     1     -12.087  12.685  65.476  1.00  0.00    -0.515 A  
HETATM   22  C   UNL     1      -9.671  13.973  65.927  1.00  0.00    -0.250 A  
ENDBRANCH  16  17
ENDBRANCH   8  16
BRANCH  10  23
HETATM   23  S   UNL     1     -12.123  10.607  70.169  1.00  0.00    -0.335 S  
HETATM   24  O   UNL     1     -11.838  10.187  71.521  1.00  0.00    -0.362 OA 
HETATM   25  H2  UNL     1     -11.001  12.650  69.449  1.00  0.00     0.000 HD 
HETATM   26  H1  UNL     1     -12.364  12.676  70.680  1.00  0.00     0.000 HD 
HETATM   27  N   UNL     1     -11.719  12.222  70.034  1.00  0.00    -0.285 N  
HETATM   28  O   UNL     1     -13.460  10.513  69.617  1.00  0.00     0.300 OA 
ENDBRANCH  10  23
ENDBRANCH   5   7
ENDBRANCH   4   5
ENDBRANCH   3   4
ENDBRANCH   2   3
TORSDOF 7
ENDMDL
MODEL      136
REMARK 921   NORMALIZED FREE ENERGY PREDICTED BY IDOCK:   -3.94 KCAL/MOL
REMARK 922        TOTAL FREE ENERGY PREDICTED BY IDOCK:   -6.32 KCAL/MOL
REMARK 923 INTER-LIGAND FREE ENERGY PREDICTED BY IDOCK:   -5.97 KCAL/MOL
REMARK 924 INTRA-LIGAND FREE ENERGY PREDICTED BY IDOCK:   -0.35 KCAL/MOL
REMARK 927      BINDING AFFINITY PREDICTED BY RF-SCORE:    0.00 PKD
ROOT
HETATM    1  C   UNL     1     -12.992  13.915  65.612  1.00  0.00    -0.361 C  
HETATM    2  C   UNL     1     -12.240  14.652  64.519  1.00  0.00    -0.473 C  
ENDROOT
BRANCH   2   3
HETATM    3  C   UNL     1     -10.747  14.744  64.850  1.00  0.00    -0.438 C  
BRANCH   3   4
HETATM    4  C   UNL     1     -10.489  15.835  65.877  1.00  0.00    -0.352 C  
BRANCH   4   5
HETATM    5  N   UNL     1      -9.176  16.449  65.701  1.00  0.00    -0.438 NA 
HETATM    6  H   UNL     1      -8.961  16.960  64.844  1.00  0.00     0.000 HD 
BRANCH   5   7
HETATM    7  C   UNL     1      -8.217  16.337  66.704  1.00  0.00    -0.281 A  
HETATM    8  C   UNL     1      -7.573  17.447  67.295  1.00  0.00    -0.192 A  
HETATM    9  C   UNL     1      -6.867  13.431  68.718  1.00  0.00    -0.101 C  
HETATM   10  C   UNL     1      -6.682  17.219  68.369  1.00  0.00    -0.181 A  
HETATM   11  O   UNL     1      -5.663  13.150  69.248  1.00  0.00    -0.076 OA 
HETATM   12  O   UNL     1      -7.748  12.597  68.590  1.00  0.00    -0.125 OA 
HETATM   13  C   UNL     1      -6.418  15.924  68.859  1.00  0.00    -0.122 A  
HETATM   14  C   UNL     1      -7.030  14.833  68.258  1.00  0.00    -0.119 A  
HETATM   15  C   UNL     1      -7.913  15.053  67.203  1.00  0.00    -0.238 A  
BRANCH   8  16
HETATM   16  O   UNL     1      -7.617  18.715  66.751  1.00  0.00    -0.219 OA 
BRANCH  16  17
HETATM   17  C   UNL     1      -6.851  19.098  65.674  1.00  0.00    -0.274 A  
HETATM   18  C   UNL     1      -6.273  20.985  64.242  1.00  0.00    -0.318 A  
HETATM   19  C   UNL     1      -5.332  20.197  63.576  1.00  0.00    -0.265 A  
HETATM   20  C   UNL     1      -5.946  18.307  64.971  1.00  0.00    -0.114 A  
HETATM   21  C   UNL     1      -7.020  20.438  65.288  1.00  0.00    -0.240 A  
HETATM   22  C   UNL     1      -5.171  18.865  63.944  1.00  0.00    -0.248 A  
ENDBRANCH  16  17
ENDBRANCH   8  16
BRANCH  10  23
HETATM   23  S   UNL     1      -5.881  18.567  69.185  1.00  0.00    -0.235 S  
HETATM   24  O   UNL     1      -5.165  19.367  68.219  1.00  0.00    -0.181 OA 
HETATM   25  H2  UNL     1      -8.159  19.294  69.664  1.00  0.00     0.000 HD 
HETATM   26  H1  UNL     1      -6.697  20.252  70.231  1.00  0.00     0.000 HD 
HETATM   27  N   UNL     1      -7.160  19.474  69.761  1.00  0.00    -0.161 N  
HETATM   28  O   UNL     1      -5.226  18.054  70.372  1.00  0.00    -0.222 OA 
ENDBRANCH  10  23
ENDBRANCH   5   7
ENDBRANCH   4   5
ENDBRANCH   3   4
ENDBRANCH   2   3
TORSDOF 7
ENDMDL
MODEL      137
REMARK 921   NORMALIZED FREE ENERGY PREDICTED BY IDOCK:   -3.93 KCAL/MOL
REMARK 922        TOTAL FREE ENERGY PREDICTED BY IDOCK:   -6.31 KCAL/MOL
REMARK 923 INTER-LIGAND FREE ENERGY PREDICTED BY IDOCK:   -6.55 KCAL/MOL
REMARK 924 INTRA-LIGAND FREE ENERGY PREDICTED BY IDOCK:    0.24 KCAL/MOL
REMARK 927      BINDING AFFINITY PREDICTED BY RF-SCORE:    0.00 PKD
ROOT
HETATM    1  C   UNL     1     -13.847  13.931  72.220  1.00  0.00    -0.669 C  
HETATM    2  C   UNL     1     -13.371  15.365  72.073  1.00  0.00    -0.545 C  
ENDROOT
BRANCH   2   3
HETATM    3  C   UNL     1     -12.626  15.560  70.748  1.00  0.00    -0.505 C  
BRANCH   3   4
HETATM    4  C   UNL     1     -11.142  15.277  70.917  1.00  0.00    -0.301 C  
BRANCH   4   5
HETATM    5  N   UNL     1     -10.483  15.045  69.635  1.00  0.00    -0.345 NA 
HETATM    6  H   UNL     1     -10.659  14.184  69.118  1.00  0.00     0.000 HD 
BRANCH   5   7
HETATM    7  C   UNL     1      -9.614  16.003  69.119  1.00  0.00    -0.257 A  
HETATM    8  C   UNL     1      -8.225  15.794  68.968  1.00  0.00    -0.234 A  
HETATM    9  C   UNL     1     -10.109  19.421  67.572  1.00  0.00    -0.398 C  
HETATM   10  C   UNL     1      -7.452  16.804  68.349  1.00  0.00    -0.202 A  
HETATM   11  O   UNL     1      -9.380  20.551  67.568  1.00  0.00    -0.380 OA 
HETATM   12  O   UNL     1     -11.280  19.384  67.233  1.00  0.00    -0.362 OA 
HETATM   13  C   UNL     1      -8.026  18.005  67.886  1.00  0.00    -0.241 A  
HETATM   14  C   UNL     1      -9.386  18.220  68.061  1.00  0.00    -0.293 A  
HETATM   15  C   UNL     1     -10.153  17.225  68.665  1.00  0.00    -0.341 A  
BRANCH   8  16
HETATM   16  O   UNL     1      -7.555  14.748  69.569  1.00  0.00    -0.158 OA 
BRANCH  16  17
HETATM   17  C   UNL     1      -7.261  13.571  68.920  1.00  0.00    -0.070 A  
HETATM   18  C   UNL     1      -7.795  12.215  66.965  1.00  0.00    -0.123 A  
HETATM   19  C   UNL     1      -6.800  11.302  67.321  1.00  0.00    -0.108 A  
HETATM   20  C   UNL     1      -6.307  12.629  69.293  1.00  0.00    -0.109 A  
HETATM   21  C   UNL     1      -8.016  13.345  67.758  1.00  0.00    -0.167 A  
HETATM   22  C   UNL     1      -6.060  11.513  68.480  1.00  0.00    -0.049 A  
ENDBRANCH  16  17
ENDBRANCH   8  16
BRANCH  10  23
HETATM   23  S   UNL     1      -5.718  16.587  68.085  1.00  0.00    -0.124 S  
HETATM   24  O   UNL     1      -5.135  17.825  67.623  1.00  0.00    -0.125 OA 
HETATM   25  H2  UNL     1      -5.655  16.235  70.498  1.00  0.00     0.000 HD 
HETATM   26  H1  UNL     1      -4.136  16.158  69.468  1.00  0.00     0.000 HD 
HETATM   27  N   UNL     1      -5.136  16.283  69.621  1.00  0.00    -0.117 N  
HETATM   28  O   UNL     1      -5.521  15.346  67.362  1.00  0.00    -0.331 OA 
ENDBRANCH  10  23
ENDBRANCH   5   7
ENDBRANCH   4   5
ENDBRANCH   3   4
ENDBRANCH   2   3
TORSDOF 7
ENDMDL
MODEL      138
REMARK 921   NORMALIZED FREE ENERGY PREDICTED BY IDOCK:   -3.93 KCAL/MOL
REMARK 922        TOTAL FREE ENERGY PREDICTED BY IDOCK:   -6.31 KCAL/MOL
REMARK 923 INTER-LIGAND FREE ENERGY PREDICTED BY IDOCK:   -5.59 KCAL/MOL
REMARK 924 INTRA-LIGAND FREE ENERGY PREDICTED BY IDOCK:   -0.72 KCAL/MOL
REMARK 927      BINDING AFFINITY PREDICTED BY RF-SCORE:    0.00 PKD
ROOT
HETATM    1  C   UNL     1     -11.816  14.653  66.390  1.00  0.00    -0.304 C  
HETATM    2  C   UNL     1     -11.752  13.400  67.243  1.00  0.00    -0.424 C  
ENDROOT
BRANCH   2   3
HETATM    3  C   UNL     1     -11.772  12.142  66.368  1.00  0.00    -0.394 C  
BRANCH   3   4
HETATM    4  C   UNL     1     -10.689  11.167  66.801  1.00  0.00    -0.276 C  
BRANCH   4   5
HETATM    5  N   UNL     1     -10.048  11.582  68.046  1.00  0.00    -0.181 NA 
HETATM    6  H   UNL     1      -9.652  12.519  68.130  1.00  0.00     0.000 HD 
BRANCH   5   7
HETATM    7  C   UNL     1      -9.979  10.698  69.119  1.00  0.00    -0.211 A  
HETATM    8  C   UNL     1      -8.787  10.061  69.529  1.00  0.00    -0.195 A  
HETATM    9  C   UNL     1     -12.460   9.579  71.749  1.00  0.00    -0.401 C  
HETATM   10  C   UNL     1      -8.816   9.252  70.689  1.00  0.00    -0.237 A  
HETATM   11  O   UNL     1     -12.653   8.423  72.409  1.00  0.00    -0.354 OA 
HETATM   12  O   UNL     1     -13.287  10.475  71.722  1.00  0.00    -0.394 OA 
HETATM   13  C   UNL     1      -9.995   9.062  71.438  1.00  0.00    -0.388 A  
HETATM   14  C   UNL     1     -11.172   9.666  71.016  1.00  0.00    -0.445 A  
HETATM   15  C   UNL     1     -11.146  10.469  69.878  1.00  0.00    -0.371 A  
BRANCH   8  16
HETATM   16  O   UNL     1      -7.649  10.028  68.749  1.00  0.00    -0.077 OA 
BRANCH  16  17
HETATM   17  C   UNL     1      -7.606   9.439  67.506  1.00  0.00    -0.091 A  
HETATM   18  C   UNL     1      -6.818   9.729  65.217  1.00  0.00    -0.103 A  
HETATM   19  C   UNL     1      -7.268   8.447  64.895  1.00  0.00    -0.084 A  
HETATM   20  C   UNL     1      -8.096   8.182  67.162  1.00  0.00    -0.116 A  
HETATM   21  C   UNL     1      -6.981  10.216  66.517  1.00  0.00    -0.102 A  
HETATM   22  C   UNL     1      -7.902   7.680  65.867  1.00  0.00    -0.103 A  
ENDBRANCH  16  17
ENDBRANCH   8  16
BRANCH  10  23
HETATM   23  S   UNL     1      -7.350   8.466  71.285  1.00  0.00    -0.095 S  
HETATM   24  O   UNL     1      -6.998   7.366  70.418  1.00  0.00    -0.054 OA 
HETATM   25  H2  UNL     1      -6.297  10.601  70.749  1.00  0.00     0.000 HD 
HETATM   26  H1  UNL     1      -5.341   9.199  71.455  1.00  0.00     0.000 HD 
HETATM   27  N   UNL     1      -6.187   9.653  71.111  1.00  0.00    -0.073 N  
HETATM   28  O   UNL     1      -7.482   8.284  72.716  1.00  0.00    -0.120 OA 
ENDBRANCH  10  23
ENDBRANCH   5   7
ENDBRANCH   4   5
ENDBRANCH   3   4
ENDBRANCH   2   3
TORSDOF 7
ENDMDL
MODEL      139
REMARK 921   NORMALIZED FREE ENERGY PREDICTED BY IDOCK:   -3.92 KCAL/MOL
REMARK 922        TOTAL FREE ENERGY PREDICTED BY IDOCK:   -6.29 KCAL/MOL
REMARK 923 INTER-LIGAND FREE ENERGY PREDICTED BY IDOCK:   -5.60 KCAL/MOL
REMARK 924 INTRA-LIGAND FREE ENERGY PREDICTED BY IDOCK:   -0.69 KCAL/MOL
REMARK 927      BINDING AFFINITY PREDICTED BY RF-SCORE:    0.00 PKD
ROOT
HETATM    1  C   UNL     1     -10.871   5.859  67.612  1.00  0.00    -0.331 C  
HETATM    2  C   UNL     1      -9.509   5.381  68.081  1.00  0.00    -0.142 C  
ENDROOT
BRANCH   2   3
HETATM    3  C   UNL     1      -8.539   6.557  68.230  1.00  0.00    -0.115 C  
BRANCH   3   4
HETATM    4  C   UNL     1      -9.187   7.852  67.769  1.00  0.00    -0.137 C  
BRANCH   4   5
HETATM    5  N   UNL     1      -8.926   8.951  68.695  1.00  0.00    -0.137 NA 
HETATM    6  H   UNL     1      -7.967   9.178  68.963  1.00  0.00     0.000 HD 
BRANCH   5   7
HETATM    7  C   UNL     1      -9.987   9.690  69.211  1.00  0.00    -0.191 A  
HETATM    8  C   UNL     1     -10.899   9.184  70.163  1.00  0.00    -0.240 A  
HETATM    9  C   UNL     1     -11.079  13.297  68.855  1.00  0.00    -0.261 C  
HETATM   10  C   UNL     1     -11.885  10.054  70.684  1.00  0.00    -0.325 A  
HETATM   11  O   UNL     1     -12.278  13.905  68.845  1.00  0.00    -0.354 OA 
HETATM   12  O   UNL     1     -10.054  13.841  68.480  1.00  0.00    -0.230 OA 
HETATM   13  C   UNL     1     -11.983  11.401  70.279  1.00  0.00    -0.460 A  
HETATM   14  C   UNL     1     -11.103  11.887  69.322  1.00  0.00    -0.264 A  
HETATM   15  C   UNL     1     -10.127  11.036  68.810  1.00  0.00    -0.214 A  
BRANCH   8  16
HETATM   16  O   UNL     1     -11.003   7.841  70.461  1.00  0.00    -0.239 OA 
BRANCH  16  17
HETATM   17  C   UNL     1     -10.133   7.188  71.304  1.00  0.00    -0.189 A  
HETATM   18  C   UNL     1      -9.548   5.007  72.224  1.00  0.00    -0.184 A  
HETATM   19  C   UNL     1      -8.447   5.571  72.873  1.00  0.00    -0.119 A  
HETATM   20  C   UNL     1      -9.062   7.749  71.995  1.00  0.00    -0.180 A  
HETATM   21  C   UNL     1     -10.379   5.812  71.441  1.00  0.00    -0.279 A  
HETATM   22  C   UNL     1      -8.208   6.936  72.754  1.00  0.00    -0.116 A  
ENDBRANCH  16  17
ENDBRANCH   8  16
BRANCH  10  23
HETATM   23  S   UNL     1     -13.026   9.499  71.915  1.00  0.00    -0.446 S  
HETATM   24  O   UNL     1     -13.886  10.589  72.310  1.00  0.00    -0.070 OA 
HETATM   25  H2  UNL     1     -13.881   8.088  70.118  1.00  0.00     0.000 HD 
HETATM   26  H1  UNL     1     -14.612   8.060  71.803  1.00  0.00     0.000 HD 
HETATM   27  N   UNL     1     -13.954   8.380  71.093  1.00  0.00    -0.137 N  
HETATM   28  O   UNL     1     -12.294   8.724  72.896  1.00  0.00    -0.236 OA 
ENDBRANCH  10  23
ENDBRANCH   5   7
ENDBRANCH   4   5
ENDBRANCH   3   4
ENDBRANCH   2   3
TORSDOF 7
ENDMDL
MODEL      140
REMARK 921   NORMALIZED FREE ENERGY PREDICTED BY IDOCK:   -3.86 KCAL/MOL
REMARK 922        TOTAL FREE ENERGY PREDICTED BY IDOCK:   -6.20 KCAL/MOL
REMARK 923 INTER-LIGAND FREE ENERGY PREDICTED BY IDOCK:   -5.98 KCAL/MOL
REMARK 924 INTRA-LIGAND FREE ENERGY PREDICTED BY IDOCK:   -0.22 KCAL/MOL
REMARK 927      BINDING AFFINITY PREDICTED BY RF-SCORE:    0.00 PKD
ROOT
HETATM    1  C   UNL     1      -9.427   3.728  69.977  1.00  0.00    -0.264 C  
HETATM    2  C   UNL     1      -9.082   5.029  69.275  1.00  0.00    -0.142 C  
ENDROOT
BRANCH   2   3
HETATM    3  C   UNL     1      -9.421   6.233  70.160  1.00  0.00    -0.172 C  
BRANCH   3   4
HETATM    4  C   UNL     1     -10.189   7.282  69.372  1.00  0.00    -0.192 C  
BRANCH   4   5
HETATM    5  N   UNL     1      -9.556   8.596  69.455  1.00  0.00    -0.165 NA 
HETATM    6  H   UNL     1      -8.543   8.671  69.551  1.00  0.00     0.000 HD 
BRANCH   5   7
HETATM    7  C   UNL     1     -10.338   9.747  69.401  1.00  0.00    -0.217 A  
HETATM    8  C   UNL     1     -10.335  10.641  68.308  1.00  0.00    -0.177 A  
HETATM    9  C   UNL     1     -13.031  11.185  71.638  1.00  0.00    -0.443 C  
HETATM   10  C   UNL     1     -11.237  11.731  68.322  1.00  0.00    -0.255 A  
HETATM   11  O   UNL     1     -13.404  12.439  71.952  1.00  0.00    -0.468 OA 
HETATM   12  O   UNL     1     -13.391  10.206  72.271  1.00  0.00    -0.415 OA 
HETATM   13  C   UNL     1     -12.128  11.948  69.393  1.00  0.00    -0.277 A  
HETATM   14  C   UNL     1     -12.108  11.085  70.479  1.00  0.00    -0.470 A  
HETATM   15  C   UNL     1     -11.226  10.006  70.466  1.00  0.00    -0.408 A  
BRANCH   8  16
HETATM   16  O   UNL     1      -9.367  10.619  67.325  1.00  0.00    -0.150 OA 
BRANCH  16  17
HETATM   17  C   UNL     1      -8.131  11.207  67.473  1.00  0.00    -0.119 A  
HETATM   18  C   UNL     1      -5.917  11.414  66.473  1.00  0.00    -0.130 A  
HETATM   19  C   UNL     1      -5.557  12.343  67.452  1.00  0.00    -0.126 A  
HETATM   20  C   UNL     1      -7.746  12.096  68.473  1.00  0.00    -0.119 A  
HETATM   21  C   UNL     1      -7.199  10.857  66.483  1.00  0.00    -0.142 A  
HETATM   22  C   UNL     1      -6.471  12.681  68.444  1.00  0.00    -0.078 A  
ENDBRANCH  16  17
ENDBRANCH   8  16
BRANCH  10  23
HETATM   23  S   UNL     1     -11.320  12.858  66.964  1.00  0.00    -0.327 S  
HETATM   24  O   UNL     1     -10.092  13.613  66.880  1.00  0.00    -0.251 OA 
HETATM   25  H2  UNL     1     -11.396  10.827  65.616  1.00  0.00     0.000 HD 
HETATM   26  H1  UNL     1     -11.445  12.497  64.853  1.00  0.00     0.000 HD 
HETATM   27  N   UNL     1     -11.397  11.847  65.637  1.00  0.00    -0.313 N  
HETATM   28  O   UNL     1     -12.609  13.519  67.001  1.00  0.00    -0.161 OA 
ENDBRANCH  10  23
ENDBRANCH   5   7
ENDBRANCH   4   5
ENDBRANCH   3   4
ENDBRANCH   2   3
TORSDOF 7
ENDMDL
MODEL      141
REMARK 921   NORMALIZED FREE ENERGY PREDICTED BY IDOCK:   -3.85 KCAL/MOL
REMARK 922        TOTAL FREE ENERGY PREDICTED BY IDOCK:   -6.19 KCAL/MOL
REMARK 923 INTER-LIGAND FREE ENERGY PREDICTED BY IDOCK:   -6.01 KCAL/MOL
REMARK 924 INTRA-LIGAND FREE ENERGY PREDICTED BY IDOCK:   -0.18 KCAL/MOL
REMARK 927      BINDING AFFINITY PREDICTED BY RF-SCORE:    0.00 PKD
ROOT
HETATM    1  C   UNL     1      -7.115   7.510  72.799  1.00  0.00    -0.076 C  
HETATM    2  C   UNL     1      -7.188   6.039  72.434  1.00  0.00    -0.086 C  
ENDROOT
BRANCH   2   3
HETATM    3  C   UNL     1      -8.467   5.734  71.648  1.00  0.00    -0.128 C  
BRANCH   3   4
HETATM    4  C   UNL     1      -9.408   6.928  71.664  1.00  0.00    -0.154 C  
BRANCH   4   5
HETATM    5  N   UNL     1      -9.887   7.262  70.325  1.00  0.00    -0.179 NA 
HETATM    6  H   UNL     1      -9.759   6.602  69.558  1.00  0.00     0.000 HD 
BRANCH   5   7
HETATM    7  C   UNL     1     -10.519   8.481  70.099  1.00  0.00    -0.220 A  
HETATM    8  C   UNL     1     -10.312   9.264  68.942  1.00  0.00    -0.214 A  
HETATM    9  C   UNL     1     -13.214  10.409  71.929  1.00  0.00    -0.429 C  
HETATM   10  C   UNL     1     -11.076  10.442  68.776  1.00  0.00    -0.250 A  
HETATM   11  O   UNL     1     -13.462  11.719  72.100  1.00  0.00    -0.446 OA 
HETATM   12  O   UNL     1     -13.742   9.539  72.601  1.00  0.00    -0.382 OA 
HETATM   13  C   UNL     1     -12.028  10.856  69.730  1.00  0.00    -0.423 A  
HETATM   14  C   UNL     1     -12.208  10.100  70.880  1.00  0.00    -0.455 A  
HETATM   15  C   UNL     1     -11.462   8.935  71.045  1.00  0.00    -0.351 A  
BRANCH   8  16
HETATM   16  O   UNL     1      -9.268   9.045  68.066  1.00  0.00    -0.135 OA 
BRANCH  16  17
HETATM   17  C   UNL     1      -9.001   7.816  67.508  1.00  0.00    -0.123 A  
HETATM   18  C   UNL     1      -7.313   6.066  67.317  1.00  0.00    -0.077 A  
HETATM   19  C   UNL     1      -8.208   5.276  66.592  1.00  0.00    -0.108 A  
HETATM   20  C   UNL     1      -9.868   7.042  66.741  1.00  0.00    -0.250 A  
HETATM   21  C   UNL     1      -7.713   7.324  67.776  1.00  0.00    -0.112 A  
HETATM   22  C   UNL     1      -9.480   5.765  66.310  1.00  0.00    -0.166 A  
ENDBRANCH  16  17
ENDBRANCH   8  16
BRANCH  10  23
HETATM   23  S   UNL     1     -10.903  11.441  67.329  1.00  0.00    -0.278 S  
HETATM   24  O   UNL     1     -12.026  12.342  67.219  1.00  0.00    -0.546 OA 
HETATM   25  H2  UNL     1      -8.953  12.334  68.491  1.00  0.00     0.000 HD 
HETATM   26  H1  UNL     1      -9.441  12.927  66.822  1.00  0.00     0.000 HD 
HETATM   27  N   UNL     1      -9.541  12.351  67.657  1.00  0.00    -0.188 N  
HETATM   28  O   UNL     1     -10.516  10.581  66.228  1.00  0.00    -0.235 OA 
ENDBRANCH  10  23
ENDBRANCH   5   7
ENDBRANCH   4   5
ENDBRANCH   3   4
ENDBRANCH   2   3
TORSDOF 7
ENDMDL
MODEL      142
REMARK 921   NORMALIZED FREE ENERGY PREDICTED BY IDOCK:   -3.85 KCAL/MOL
REMARK 922        TOTAL FREE ENERGY PREDICTED BY IDOCK:   -6.19 KCAL/MOL
REMARK 923 INTER-LIGAND FREE ENERGY PREDICTED BY IDOCK:   -5.53 KCAL/MOL
REMARK 924 INTRA-LIGAND FREE ENERGY PREDICTED BY IDOCK:   -0.65 KCAL/MOL
REMARK 927      BINDING AFFINITY PREDICTED BY RF-SCORE:    0.00 PKD
ROOT
HETATM    1  C   UNL     1     -10.033  10.041  65.370  1.00  0.00    -0.364 C  
HETATM    2  C   UNL     1     -10.282  10.444  66.812  1.00  0.00    -0.282 C  
ENDROOT
BRANCH   2   3
HETATM    3  C   UNL     1     -10.775   9.249  67.635  1.00  0.00    -0.276 C  
BRANCH   3   4
HETATM    4  C   UNL     1     -10.381   7.939  66.973  1.00  0.00    -0.341 C  
BRANCH   4   5
HETATM    5  N   UNL     1     -11.239   6.835  67.397  1.00  0.00    -0.673 NA 
HETATM    6  H   UNL     1     -12.115   6.651  66.907  1.00  0.00     0.000 HD 
BRANCH   5   7
HETATM    7  C   UNL     1     -10.859   6.034  68.470  1.00  0.00    -0.286 A  
HETATM    8  C   UNL     1     -10.028   4.899  68.340  1.00  0.00    -0.115 A  
HETATM    9  C   UNL     1     -11.346   6.276  72.215  1.00  0.00    -0.294 C  
HETATM   10  C   UNL     1      -9.633   4.211  69.511  1.00  0.00    -0.204 A  
HETATM   11  O   UNL     1     -11.505   5.364  73.190  1.00  0.00    -0.292 OA 
HETATM   12  O   UNL     1     -11.590   7.462  72.368  1.00  0.00    -0.283 OA 
HETATM   13  C   UNL     1     -10.047   4.624  70.794  1.00  0.00    -0.264 A  
HETATM   14  C   UNL     1     -10.886   5.722  70.917  1.00  0.00    -0.326 A  
HETATM   15  C   UNL     1     -11.273   6.406  69.766  1.00  0.00    -0.484 A  
BRANCH   8  16
HETATM   16  O   UNL     1      -9.746   4.312  67.123  1.00  0.00    -0.196 OA 
BRANCH  16  17
HETATM   17  C   UNL     1      -8.930   4.892  66.179  1.00  0.00    -0.125 A  
HETATM   18  C   UNL     1      -6.882   6.181  65.873  1.00  0.00    -0.057 A  
HETATM   19  C   UNL     1      -7.023   6.082  64.487  1.00  0.00    -0.051 A  
HETATM   20  C   UNL     1      -9.087   4.843  64.797  1.00  0.00    -0.098 A  
HETATM   21  C   UNL     1      -7.828   5.582  66.710  1.00  0.00    -0.101 A  
HETATM   22  C   UNL     1      -8.121   5.414  63.956  1.00  0.00    -0.123 A  
ENDBRANCH  16  17
ENDBRANCH   8  16
BRANCH  10  23
HETATM   23  S   UNL     1      -8.555   2.814  69.423  1.00  0.00    -0.076 S  
HETATM   24  O   UNL     1      -7.250   3.232  68.969  1.00  0.00    -0.048 OA 
HETATM   25  H2  UNL     1      -8.853   2.757  71.844  1.00  0.00     0.000 HD 
HETATM   26  H1  UNL     1      -7.797   1.534  70.969  1.00  0.00     0.000 HD 
HETATM   27  N   UNL     1      -8.419   2.340  71.019  1.00  0.00    -0.053 N  
HETATM   28  O   UNL     1      -9.268   1.731  68.775  1.00  0.00    -0.122 OA 
ENDBRANCH  10  23
ENDBRANCH   5   7
ENDBRANCH   4   5
ENDBRANCH   3   4
ENDBRANCH   2   3
TORSDOF 7
ENDMDL
MODEL      143
REMARK 921   NORMALIZED FREE ENERGY PREDICTED BY IDOCK:   -3.85 KCAL/MOL
REMARK 922        TOTAL FREE ENERGY PREDICTED BY IDOCK:   -6.18 KCAL/MOL
REMARK 923 INTER-LIGAND FREE ENERGY PREDICTED BY IDOCK:   -5.35 KCAL/MOL
REMARK 924 INTRA-LIGAND FREE ENERGY PREDICTED BY IDOCK:   -0.84 KCAL/MOL
REMARK 927      BINDING AFFINITY PREDICTED BY RF-SCORE:    0.00 PKD
ROOT
HETATM    1  C   UNL     1      -5.189   9.888  68.242  1.00  0.00    -0.036 C  
HETATM    2  C   UNL     1      -5.730   8.744  67.405  1.00  0.00    -0.039 C  
ENDROOT
BRANCH   2   3
HETATM    3  C   UNL     1      -7.026   8.192  68.007  1.00  0.00    -0.077 C  
BRANCH   3   4
HETATM    4  C   UNL     1      -8.195   8.406  67.058  1.00  0.00    -0.107 C  
BRANCH   4   5
HETATM    5  N   UNL     1      -9.429   7.817  67.573  1.00  0.00    -0.138 NA 
HETATM    6  H   UNL     1      -9.712   6.883  67.276  1.00  0.00     0.000 HD 
BRANCH   5   7
HETATM    7  C   UNL     1     -10.217   8.533  68.471  1.00  0.00    -0.198 A  
HETATM    8  C   UNL     1     -10.846   7.950  69.593  1.00  0.00    -0.176 A  
HETATM    9  C   UNL     1     -11.037  12.205  68.879  1.00  0.00    -0.243 C  
HETATM   10  C   UNL     1     -11.549   8.790  70.487  1.00  0.00    -0.147 A  
HETATM   11  O   UNL     1     -12.125  12.870  69.307  1.00  0.00    -0.268 OA 
HETATM   12  O   UNL     1     -10.126  12.742  68.272  1.00  0.00    -0.229 OA 
HETATM   13  C   UNL     1     -11.642  10.182  70.287  1.00  0.00    -0.379 A  
HETATM   14  C   UNL     1     -11.048  10.748  69.168  1.00  0.00    -0.304 A  
HETATM   15  C   UNL     1     -10.349   9.925  68.287  1.00  0.00    -0.232 A  
BRANCH   8  16
HETATM   16  O   UNL     1     -10.976   6.585  69.753  1.00  0.00    -0.273 OA 
BRANCH  16  17
HETATM   17  C   UNL     1      -9.926   5.764  70.096  1.00  0.00    -0.198 A  
HETATM   18  C   UNL     1      -7.885   5.629  71.423  1.00  0.00    -0.111 A  
HETATM   19  C   UNL     1      -7.730   4.290  71.056  1.00  0.00    -0.066 A  
HETATM   20  C   UNL     1      -9.736   4.444  69.696  1.00  0.00    -0.289 A  
HETATM   21  C   UNL     1      -8.981   6.356  70.949  1.00  0.00    -0.144 A  
HETATM   22  C   UNL     1      -8.655   3.704  70.198  1.00  0.00    -0.105 A  
ENDBRANCH  16  17
ENDBRANCH   8  16
BRANCH  10  23
HETATM   23  S   UNL     1     -12.317   8.132  71.937  1.00  0.00    -0.349 S  
HETATM   24  O   UNL     1     -11.320   7.903  72.956  1.00  0.00    -0.408 OA 
HETATM   25  H2  UNL     1     -13.424  10.304  72.023  1.00  0.00     0.000 HD 
HETATM   26  H1  UNL     1     -13.741   9.004  73.283  1.00  0.00     0.000 HD 
HETATM   27  N   UNL     1     -13.298   9.384  72.446  1.00  0.00    -0.455 N  
HETATM   28  O   UNL     1     -13.233   7.085  71.530  1.00  0.00    -0.375 OA 
ENDBRANCH  10  23
ENDBRANCH   5   7
ENDBRANCH   4   5
ENDBRANCH   3   4
ENDBRANCH   2   3
TORSDOF 7
ENDMDL
MODEL      144
REMARK 921   NORMALIZED FREE ENERGY PREDICTED BY IDOCK:   -3.84 KCAL/MOL
REMARK 922        TOTAL FREE ENERGY PREDICTED BY IDOCK:   -6.17 KCAL/MOL
REMARK 923 INTER-LIGAND FREE ENERGY PREDICTED BY IDOCK:   -5.75 KCAL/MOL
REMARK 924 INTRA-LIGAND FREE ENERGY PREDICTED BY IDOCK:   -0.42 KCAL/MOL
REMARK 927      BINDING AFFINITY PREDICTED BY RF-SCORE:    0.00 PKD
ROOT
HETATM    1  C   UNL     1      -9.194   5.736  65.909  1.00  0.00    -0.128 C  
HETATM    2  C   UNL     1      -8.496   7.042  66.244  1.00  0.00    -0.134 C  
ENDROOT
BRANCH   2   3
HETATM    3  C   UNL     1      -9.467   8.222  66.144  1.00  0.00    -0.241 C  
BRANCH   3   4
HETATM    4  C   UNL     1     -10.667   8.011  67.053  1.00  0.00    -0.193 C  
BRANCH   4   5
HETATM    5  N   UNL     1     -10.789   9.072  68.050  1.00  0.00    -0.472 NA 
HETATM    6  H   UNL     1     -11.559   9.739  67.996  1.00  0.00     0.000 HD 
BRANCH   5   7
HETATM    7  C   UNL     1      -9.851   9.172  69.074  1.00  0.00    -0.174 A  
HETATM    8  C   UNL     1      -9.812   8.300  70.183  1.00  0.00    -0.184 A  
HETATM    9  C   UNL     1      -6.793  11.337  69.617  1.00  0.00    -0.095 C  
HETATM   10  C   UNL     1      -8.759   8.440  71.118  1.00  0.00    -0.159 A  
HETATM   11  O   UNL     1      -6.212  11.862  70.710  1.00  0.00    -0.261 OA 
HETATM   12  O   UNL     1      -6.532  11.703  68.483  1.00  0.00    -0.051 OA 
HETATM   13  C   UNL     1      -7.758   9.422  70.974  1.00  0.00    -0.031 A  
HETATM   14  C   UNL     1      -7.816  10.297  69.898  1.00  0.00    -0.119 A  
HETATM   15  C   UNL     1      -8.847  10.159  68.972  1.00  0.00    -0.166 A  
BRANCH   8  16
HETATM   16  O   UNL     1     -10.852   7.453  70.507  1.00  0.00    -0.233 OA 
BRANCH  16  17
HETATM   17  C   UNL     1     -12.021   7.886  71.090  1.00  0.00    -0.285 A  
HETATM   18  C   UNL     1     -13.217   9.862  71.870  1.00  0.00    -0.558 A  
HETATM   19  C   UNL     1     -14.332   9.075  72.167  1.00  0.00    -0.350 A  
HETATM   20  C   UNL     1     -13.119   7.103  71.437  1.00  0.00    -0.408 A  
HETATM   21  C   UNL     1     -12.073   9.269  71.329  1.00  0.00    -0.412 A  
HETATM   22  C   UNL     1     -14.280   7.703  71.948  1.00  0.00    -0.492 A  
ENDBRANCH  16  17
ENDBRANCH   8  16
BRANCH  10  23
HETATM   23  S   UNL     1      -8.623   7.349  72.502  1.00  0.00    -0.117 S  
HETATM   24  O   UNL     1      -9.024   6.017  72.115  1.00  0.00    -0.142 OA 
HETATM   25  H2  UNL     1      -6.237   7.822  72.312  1.00  0.00     0.000 HD 
HETATM   26  H1  UNL     1      -6.902   6.697  73.604  1.00  0.00     0.000 HD 
HETATM   27  N   UNL     1      -6.981   7.326  72.806  1.00  0.00    -0.067 N  
HETATM   28  O   UNL     1      -9.204   8.005  73.656  1.00  0.00    -0.275 OA 
ENDBRANCH  10  23
ENDBRANCH   5   7
ENDBRANCH   4   5
ENDBRANCH   3   4
ENDBRANCH   2   3
TORSDOF 7
ENDMDL
MODEL      145
REMARK 921   NORMALIZED FREE ENERGY PREDICTED BY IDOCK:   -3.82 KCAL/MOL
REMARK 922        TOTAL FREE ENERGY PREDICTED BY IDOCK:   -6.14 KCAL/MOL
REMARK 923 INTER-LIGAND FREE ENERGY PREDICTED BY IDOCK:   -5.51 KCAL/MOL
REMARK 924 INTRA-LIGAND FREE ENERGY PREDICTED BY IDOCK:   -0.63 KCAL/MOL
REMARK 927      BINDING AFFINITY PREDICTED BY RF-SCORE:    0.00 PKD
ROOT
HETATM    1  C   UNL     1      -8.662   4.440  63.677  1.00  0.00    -0.129 C  
HETATM    2  C   UNL     1      -8.556   4.474  65.190  1.00  0.00    -0.131 C  
ENDROOT
BRANCH   2   3
HETATM    3  C   UNL     1      -9.943   4.393  65.837  1.00  0.00    -0.255 C  
BRANCH   3   4
HETATM    4  C   UNL     1      -9.935   5.042  67.212  1.00  0.00    -0.186 C  
BRANCH   4   5
HETATM    5  N   UNL     1     -11.051   5.969  67.383  1.00  0.00    -0.482 NA 
HETATM    6  H   UNL     1     -11.879   5.886  66.792  1.00  0.00     0.000 HD 
BRANCH   5   7
HETATM    7  C   UNL     1     -10.984   6.964  68.353  1.00  0.00    -0.132 A  
HETATM    8  C   UNL     1     -10.887   8.341  68.053  1.00  0.00     0.059 A  
HETATM    9  C   UNL     1     -11.273   6.961  72.127  1.00  0.00    -0.258 C  
HETATM   10  C   UNL     1     -10.915   9.270  69.119  1.00  0.00    -0.060 A  
HETATM   11  O   UNL     1     -10.710   7.698  73.101  1.00  0.00    -0.365 OA 
HETATM   12  O   UNL     1     -11.853   5.910  72.341  1.00  0.00    -0.311 OA 
HETATM   13  C   UNL     1     -11.033   8.861  70.463  1.00  0.00    -0.280 A  
HETATM   14  C   UNL     1     -11.099   7.507  70.757  1.00  0.00    -0.280 A  
HETATM   15  C   UNL     1     -11.077   6.588  69.710  1.00  0.00    -0.430 A  
BRANCH   8  16
HETATM   16  O   UNL     1     -10.567   8.812  66.796  1.00  0.00    -0.258 OA 
BRANCH  16  17
HETATM   17  C   UNL     1      -9.281   8.844  66.309  1.00  0.00    -0.207 A  
HETATM   18  C   UNL     1      -6.968   8.263  66.819  1.00  0.00    -0.070 A  
HETATM   19  C   UNL     1      -6.578   8.676  65.543  1.00  0.00    -0.063 A  
HETATM   20  C   UNL     1      -8.874   9.300  65.058  1.00  0.00    -0.238 A  
HETATM   21  C   UNL     1      -8.312   8.341  67.193  1.00  0.00    -0.123 A  
HETATM   22  C   UNL     1      -7.531   9.189  64.669  1.00  0.00    -0.104 A  
ENDBRANCH  16  17
ENDBRANCH   8  16
BRANCH  10  23
HETATM   23  S   UNL     1     -10.848  11.009  68.809  1.00  0.00    -0.229 S  
HETATM   24  O   UNL     1     -11.668  11.334  67.666  1.00  0.00    -0.564 OA 
HETATM   25  H2  UNL     1     -11.956  11.177  70.976  1.00  0.00     0.000 HD 
HETATM   26  H1  UNL     1     -11.531  12.666  69.987  1.00  0.00     0.000 HD 
HETATM   27  N   UNL     1     -11.570  11.663  70.166  1.00  0.00    -0.263 N  
HETATM   28  O   UNL     1      -9.464  11.430  68.888  1.00  0.00    -0.155 OA 
ENDBRANCH  10  23
ENDBRANCH   5   7
ENDBRANCH   4   5
ENDBRANCH   3   4
ENDBRANCH   2   3
TORSDOF 7
ENDMDL
MODEL      146
REMARK 921   NORMALIZED FREE ENERGY PREDICTED BY IDOCK:   -3.81 KCAL/MOL
REMARK 922        TOTAL FREE ENERGY PREDICTED BY IDOCK:   -6.14 KCAL/MOL
REMARK 923 INTER-LIGAND FREE ENERGY PREDICTED BY IDOCK:   -6.68 KCAL/MOL
REMARK 924 INTRA-LIGAND FREE ENERGY PREDICTED BY IDOCK:    0.54 KCAL/MOL
REMARK 927      BINDING AFFINITY PREDICTED BY RF-SCORE:    0.00 PKD
ROOT
HETATM    1  C   UNL     1     -11.824  16.383  72.213  1.00  0.00    -0.531 C  
HETATM    2  C   UNL     1     -12.507  15.113  71.740  1.00  0.00    -0.415 C  
ENDROOT
BRANCH   2   3
HETATM    3  C   UNL     1     -11.834  14.569  70.476  1.00  0.00    -0.372 C  
BRANCH   3   4
HETATM    4  C   UNL     1     -12.066  13.072  70.343  1.00  0.00    -0.314 C  
BRANCH   4   5
HETATM    5  N   UNL     1     -12.409  12.694  68.974  1.00  0.00     0.055 NA 
HETATM    6  H   UNL     1     -13.324  12.292  68.769  1.00  0.00     0.000 HD 
BRANCH   5   7
HETATM    7  C   UNL     1     -11.485  12.884  67.950  1.00  0.00    -0.318 A  
HETATM    8  C   UNL     1     -10.878  11.825  67.241  1.00  0.00    -0.253 A  
HETATM    9  C   UNL     1     -10.165  15.943  66.154  1.00  0.00    -0.324 C  
HETATM   10  C   UNL     1     -10.021  12.137  66.160  1.00  0.00    -0.233 A  
HETATM   11  O   UNL     1      -8.977  16.257  65.607  1.00  0.00    -0.403 OA 
HETATM   12  O   UNL     1     -11.030  16.772  66.386  1.00  0.00    -0.058 OA 
HETATM   13  C   UNL     1      -9.757  13.467  65.777  1.00  0.00    -0.156 A  
HETATM   14  C   UNL     1     -10.332  14.507  66.494  1.00  0.00    -0.283 A  
HETATM   15  C   UNL     1     -11.181  14.205  67.556  1.00  0.00    -0.323 A  
BRANCH   8  16
HETATM   16  O   UNL     1     -10.920  10.514  67.672  1.00  0.00    -0.279 OA 
BRANCH  16  17
HETATM   17  C   UNL     1     -10.406  10.102  68.879  1.00  0.00    -0.206 A  
HETATM   18  C   UNL     1     -11.003   9.400  71.137  1.00  0.00    -0.430 A  
HETATM   19  C   UNL     1      -9.659   9.141  71.417  1.00  0.00    -0.316 A  
HETATM   20  C   UNL     1      -9.064   9.890  69.185  1.00  0.00    -0.175 A  
HETATM   21  C   UNL     1     -11.370   9.870  69.873  1.00  0.00    -0.273 A  
HETATM   22  C   UNL     1      -8.698   9.385  70.441  1.00  0.00    -0.278 A  
ENDBRANCH  16  17
ENDBRANCH   8  16
BRANCH  10  23
HETATM   23  S   UNL     1      -9.269  10.858  65.199  1.00  0.00    -0.210 S  
HETATM   24  O   UNL     1      -9.047  11.326  63.851  1.00  0.00    -0.116 OA 
HETATM   25  H2  UNL     1      -7.398  11.161  66.734  1.00  0.00     0.000 HD 
HETATM   26  H1  UNL     1      -7.346   9.925  65.375  1.00  0.00     0.000 HD 
HETATM   27  N   UNL     1      -7.780  10.663  65.930  1.00  0.00    -0.155 N  
HETATM   28  O   UNL     1      -9.975   9.620  65.460  1.00  0.00    -0.311 OA 
ENDBRANCH  10  23
ENDBRANCH   5   7
ENDBRANCH   4   5
ENDBRANCH   3   4
ENDBRANCH   2   3
TORSDOF 7
ENDMDL
MODEL      147
REMARK 921   NORMALIZED FREE ENERGY PREDICTED BY IDOCK:   -3.79 KCAL/MOL
REMARK 922        TOTAL FREE ENERGY PREDICTED BY IDOCK:   -6.11 KCAL/MOL
REMARK 923 INTER-LIGAND FREE ENERGY PREDICTED BY IDOCK:   -6.33 KCAL/MOL
REMARK 924 INTRA-LIGAND FREE ENERGY PREDICTED BY IDOCK:    0.21 KCAL/MOL
REMARK 927      BINDING AFFINITY PREDICTED BY RF-SCORE:    0.00 PKD
ROOT
HETATM    1  C   UNL     1      -6.177   7.152  69.403  1.00  0.00    -0.035 C  
HETATM    2  C   UNL     1      -7.517   7.118  68.691  1.00  0.00    -0.102 C  
ENDROOT
BRANCH   2   3
HETATM    3  C   UNL     1      -8.116   8.524  68.586  1.00  0.00    -0.121 C  
BRANCH   3   4
HETATM    4  C   UNL     1      -8.667   8.773  67.191  1.00  0.00    -0.120 C  
BRANCH   4   5
HETATM    5  N   UNL     1     -10.109   9.005  67.209  1.00  0.00    -0.214 NA 
HETATM    6  H   UNL     1     -10.698   8.615  66.472  1.00  0.00     0.000 HD 
BRANCH   5   7
HETATM    7  C   UNL     1     -10.678   9.757  68.233  1.00  0.00    -0.233 A  
HETATM    8  C   UNL     1     -10.837  11.159  68.174  1.00  0.00    -0.219 A  
HETATM    9  C   UNL     1     -12.367   8.870  71.501  1.00  0.00    -0.324 C  
HETATM   10  C   UNL     1     -11.510  11.809  69.235  1.00  0.00    -0.306 A  
HETATM   11  O   UNL     1     -12.429   9.467  72.705  1.00  0.00    -0.174 OA 
HETATM   12  O   UNL     1     -12.688   7.707  71.319  1.00  0.00    -0.321 OA 
HETATM   13  C   UNL     1     -12.018  11.100  70.342  1.00  0.00    -0.469 A  
HETATM   14  C   UNL     1     -11.835   9.726  70.411  1.00  0.00    -0.264 A  
HETATM   15  C   UNL     1     -11.177   9.081  69.366  1.00  0.00     0.102 A  
BRANCH   8  16
HETATM   16  O   UNL     1     -10.200  11.947  67.237  1.00  0.00    -0.198 OA 
BRANCH  16  17
HETATM   17  C   UNL     1     -10.656  12.100  65.948  1.00  0.00    -0.258 A  
HETATM   18  C   UNL     1     -10.038  11.865  63.601  1.00  0.00    -0.450 A  
HETATM   19  C   UNL     1     -11.336  12.214  63.220  1.00  0.00    -0.410 A  
HETATM   20  C   UNL     1     -11.932  12.495  65.556  1.00  0.00    -0.500 A  
HETATM   21  C   UNL     1      -9.706  11.804  64.957  1.00  0.00    -0.212 A  
HETATM   22  C   UNL     1     -12.276  12.524  64.197  1.00  0.00    -0.552 A  
ENDBRANCH  16  17
ENDBRANCH   8  16
BRANCH  10  23
HETATM   23  S   UNL     1     -11.788  13.553  69.200  1.00  0.00    -0.339 S  
HETATM   24  O   UNL     1     -12.276  13.996  70.485  1.00  0.00    -0.320 OA 
HETATM   25  H2  UNL     1      -9.370  13.673  68.902  1.00  0.00     0.000 HD 
HETATM   26  H1  UNL     1     -10.412  15.184  68.969  1.00  0.00     0.000 HD 
HETATM   27  N   UNL     1     -10.252  14.177  68.989  1.00  0.00    -0.175 N  
HETATM   28  O   UNL     1     -12.490  13.877  67.975  1.00  0.00    -0.111 OA 
ENDBRANCH  10  23
ENDBRANCH   5   7
ENDBRANCH   4   5
ENDBRANCH   3   4
ENDBRANCH   2   3
TORSDOF 7
ENDMDL
MODEL      148
REMARK 921   NORMALIZED FREE ENERGY PREDICTED BY IDOCK:   -3.79 KCAL/MOL
REMARK 922        TOTAL FREE ENERGY PREDICTED BY IDOCK:   -6.11 KCAL/MOL
REMARK 923 INTER-LIGAND FREE ENERGY PREDICTED BY IDOCK:   -6.33 KCAL/MOL
REMARK 924 INTRA-LIGAND FREE ENERGY PREDICTED BY IDOCK:    0.22 KCAL/MOL
REMARK 927      BINDING AFFINITY PREDICTED BY RF-SCORE:    0.00 PKD
ROOT
HETATM    1  C   UNL     1     -12.435  14.091  64.661  1.00  0.00    -0.366 C  
HETATM    2  C   UNL     1     -12.559  12.581  64.563  1.00  0.00    -0.503 C  
ENDROOT
BRANCH   2   3
HETATM    3  C   UNL     1     -11.463  12.001  63.663  1.00  0.00    -0.556 C  
BRANCH   3   4
HETATM    4  C   UNL     1     -10.631  10.978  64.419  1.00  0.00    -0.325 C  
BRANCH   4   5
HETATM    5  N   UNL     1     -10.696  11.183  65.864  1.00  0.00    -0.233 NA 
HETATM    6  H   UNL     1     -11.400  11.805  66.260  1.00  0.00     0.000 HD 
BRANCH   5   7
HETATM    7  C   UNL     1      -9.796  10.527  66.699  1.00  0.00    -0.199 A  
HETATM    8  C   UNL     1     -10.162   9.932  67.926  1.00  0.00    -0.193 A  
HETATM    9  C   UNL     1      -6.146   9.579  66.379  1.00  0.00    -0.060 C  
HETATM   10  C   UNL     1      -9.182   9.214  68.650  1.00  0.00    -0.136 A  
HETATM   11  O   UNL     1      -5.136   9.469  67.260  1.00  0.00    -0.035 OA 
HETATM   12  O   UNL     1      -5.974   9.618  65.172  1.00  0.00    -0.066 OA 
HETATM   13  C   UNL     1      -7.858   9.081  68.184  1.00  0.00    -0.100 A  
HETATM   14  C   UNL     1      -7.494   9.690  66.992  1.00  0.00    -0.091 A  
HETATM   15  C   UNL     1      -8.458  10.394  66.273  1.00  0.00    -0.145 A  
BRANCH   8  16
HETATM   16  O   UNL     1     -11.368  10.182  68.549  1.00  0.00    -0.208 OA 
BRANCH  16  17
HETATM   17  C   UNL     1     -11.674  11.386  69.141  1.00  0.00    -0.342 A  
HETATM   18  C   UNL     1     -11.852  13.785  68.744  1.00  0.00    -0.398 A  
HETATM   19  C   UNL     1     -12.337  13.968  70.041  1.00  0.00    -0.397 A  
HETATM   20  C   UNL     1     -12.110  11.585  70.448  1.00  0.00    -0.471 A  
HETATM   21  C   UNL     1     -11.530  12.500  68.299  1.00  0.00    -0.355 A  
HETATM   22  C   UNL     1     -12.466  12.870  70.885  1.00  0.00    -0.383 A  
ENDBRANCH  16  17
ENDBRANCH   8  16
BRANCH  10  23
HETATM   23  S   UNL     1      -9.586   8.403  70.167  1.00  0.00    -0.166 S  
HETATM   24  O   UNL     1      -9.728   9.381  71.221  1.00  0.00    -0.262 OA 
HETATM   25  H2  UNL     1     -11.647   7.810  69.004  1.00  0.00     0.000 HD 
HETATM   26  H1  UNL     1     -11.327   7.286  70.736  1.00  0.00     0.000 HD 
HETATM   27  N   UNL     1     -11.094   7.753  69.860  1.00  0.00    -0.192 N  
HETATM   28  O   UNL     1      -8.712   7.257  70.317  1.00  0.00    -0.144 OA 
ENDBRANCH  10  23
ENDBRANCH   5   7
ENDBRANCH   4   5
ENDBRANCH   3   4
ENDBRANCH   2   3
TORSDOF 7
ENDMDL
MODEL      149
REMARK 921   NORMALIZED FREE ENERGY PREDICTED BY IDOCK:   -3.79 KCAL/MOL
REMARK 922        TOTAL FREE ENERGY PREDICTED BY IDOCK:   -6.10 KCAL/MOL
REMARK 923 INTER-LIGAND FREE ENERGY PREDICTED BY IDOCK:   -5.66 KCAL/MOL
REMARK 924 INTRA-LIGAND FREE ENERGY PREDICTED BY IDOCK:   -0.44 KCAL/MOL
REMARK 927      BINDING AFFINITY PREDICTED BY RF-SCORE:    0.00 PKD
ROOT
HETATM    1  C   UNL     1      -6.742  11.125  66.982  1.00  0.00    -0.115 C  
HETATM    2  C   UNL     1      -6.902  10.082  68.073  1.00  0.00    -0.068 C  
ENDROOT
BRANCH   2   3
HETATM    3  C   UNL     1      -7.618  10.672  69.292  1.00  0.00    -0.138 C  
BRANCH   3   4
HETATM    4  C   UNL     1      -9.054  11.039  68.948  1.00  0.00    -0.123 C  
BRANCH   4   5
HETATM    5  N   UNL     1      -9.876   9.855  68.711  1.00  0.00    -0.165 NA 
HETATM    6  H   UNL     1     -10.027   9.520  67.759  1.00  0.00     0.000 HD 
BRANCH   5   7
HETATM    7  C   UNL     1     -10.451   9.183  69.786  1.00  0.00    -0.223 A  
HETATM    8  C   UNL     1      -9.913   8.005  70.348  1.00  0.00    -0.188 A  
HETATM    9  C   UNL     1     -13.371   9.931  72.076  1.00  0.00    -0.432 C  
HETATM   10  C   UNL     1     -10.532   7.457  71.495  1.00  0.00    -0.201 A  
HETATM   11  O   UNL     1     -14.274   9.160  72.708  1.00  0.00    -0.552 OA 
HETATM   12  O   UNL     1     -13.503  11.136  71.940  1.00  0.00    -0.345 OA 
HETATM   13  C   UNL     1     -11.666   8.051  72.086  1.00  0.00    -0.399 A  
HETATM   14  C   UNL     1     -12.210   9.192  71.515  1.00  0.00    -0.422 A  
HETATM   15  C   UNL     1     -11.600   9.738  70.387  1.00  0.00    -0.327 A  
BRANCH   8  16
HETATM   16  O   UNL     1      -8.939   7.253  69.721  1.00  0.00    -0.142 OA 
BRANCH  16  17
HETATM   17  C   UNL     1      -9.148   6.592  68.533  1.00  0.00    -0.127 A  
HETATM   18  C   UNL     1     -10.865   5.854  66.966  1.00  0.00    -0.379 A  
HETATM   19  C   UNL     1      -9.877   5.385  66.097  1.00  0.00    -0.161 A  
HETATM   20  C   UNL     1      -8.174   6.076  67.683  1.00  0.00    -0.109 A  
HETATM   21  C   UNL     1     -10.499   6.459  68.172  1.00  0.00    -0.267 A  
HETATM   22  C   UNL     1      -8.539   5.500  66.457  1.00  0.00    -0.118 A  
ENDBRANCH  16  17
ENDBRANCH   8  16
BRANCH  10  23
HETATM   23  S   UNL     1      -9.880   6.013  72.277  1.00  0.00    -0.159 S  
HETATM   24  O   UNL     1      -9.981   4.885  71.382  1.00  0.00    -0.180 OA 
HETATM   25  H2  UNL     1      -7.769   7.233  72.192  1.00  0.00     0.000 HD 
HETATM   26  H1  UNL     1      -7.885   5.548  72.915  1.00  0.00     0.000 HD 
HETATM   27  N   UNL     1      -8.261   6.381  72.464  1.00  0.00    -0.106 N  
HETATM   28  O   UNL     1     -10.403   5.953  73.627  1.00  0.00    -0.210 OA 
ENDBRANCH  10  23
ENDBRANCH   5   7
ENDBRANCH   4   5
ENDBRANCH   3   4
ENDBRANCH   2   3
TORSDOF 7
ENDMDL
MODEL      150
REMARK 921   NORMALIZED FREE ENERGY PREDICTED BY IDOCK:   -3.78 KCAL/MOL
REMARK 922        TOTAL FREE ENERGY PREDICTED BY IDOCK:   -6.10 KCAL/MOL
REMARK 923 INTER-LIGAND FREE ENERGY PREDICTED BY IDOCK:   -5.68 KCAL/MOL
REMARK 924 INTRA-LIGAND FREE ENERGY PREDICTED BY IDOCK:   -0.42 KCAL/MOL
REMARK 927      BINDING AFFINITY PREDICTED BY RF-SCORE:    0.00 PKD
ROOT
HETATM    1  C   UNL     1      -8.418   2.415  72.556  1.00  0.00    -0.063 C  
HETATM    2  C   UNL     1      -9.857   2.876  72.420  1.00  0.00    -0.228 C  
ENDROOT
BRANCH   2   3
HETATM    3  C   UNL     1     -10.234   3.833  73.555  1.00  0.00    -0.213 C  
BRANCH   3   4
HETATM    4  C   UNL     1     -10.172   5.278  73.085  1.00  0.00    -0.185 C  
BRANCH   4   5
HETATM    5  N   UNL     1     -10.969   5.493  71.879  1.00  0.00    -0.230 NA 
HETATM    6  H   UNL     1     -11.970   5.297  71.887  1.00  0.00     0.000 HD 
BRANCH   5   7
HETATM    7  C   UNL     1     -10.360   5.967  70.721  1.00  0.00    -0.232 A  
HETATM    8  C   UNL     1      -9.758   7.241  70.622  1.00  0.00    -0.175 A  
HETATM    9  C   UNL     1      -9.573   4.418  67.358  1.00  0.00    -0.181 C  
HETATM   10  C   UNL     1      -9.090   7.583  69.423  1.00  0.00    -0.142 A  
HETATM   11  O   UNL     1      -9.515   4.902  66.105  1.00  0.00    -0.142 OA 
HETATM   12  O   UNL     1      -9.611   3.224  67.609  1.00  0.00    -0.206 OA 
HETATM   13  C   UNL     1      -9.013   6.693  68.332  1.00  0.00    -0.123 A  
HETATM   14  C   UNL     1      -9.629   5.453  68.421  1.00  0.00    -0.166 A  
HETATM   15  C   UNL     1     -10.284   5.110  69.603  1.00  0.00    -0.337 A  
BRANCH   8  16
HETATM   16  O   UNL     1      -9.959   8.239  71.554  1.00  0.00    -0.175 OA 
BRANCH  16  17
HETATM   17  C   UNL     1     -11.159   8.893  71.708  1.00  0.00    -0.363 A  
HETATM   18  C   UNL     1     -12.461  10.819  70.969  1.00  0.00    -0.522 A  
HETATM   19  C   UNL     1     -13.547  10.383  71.733  1.00  0.00    -0.246 A  
HETATM   20  C   UNL     1     -12.229   8.496  72.505  1.00  0.00    -0.383 A  
HETATM   21  C   UNL     1     -11.280  10.072  70.954  1.00  0.00    -0.415 A  
HETATM   22  C   UNL     1     -13.427   9.225  72.494  1.00  0.00    -0.471 A  
ENDBRANCH  16  17
ENDBRANCH   8  16
BRANCH  10  23
HETATM   23  S   UNL     1      -8.274   9.141  69.250  1.00  0.00    -0.122 S  
HETATM   24  O   UNL     1      -7.593   9.474  70.479  1.00  0.00    -0.137 OA 
HETATM   25  H2  UNL     1      -6.928   7.962  67.593  1.00  0.00     0.000 HD 
HETATM   26  H1  UNL     1      -6.646   9.734  67.986  1.00  0.00     0.000 HD 
HETATM   27  N   UNL     1      -7.117   8.835  68.085  1.00  0.00    -0.077 N  
HETATM   28  O   UNL     1      -9.195  10.068  68.624  1.00  0.00    -0.143 OA 
ENDBRANCH  10  23
ENDBRANCH   5   7
ENDBRANCH   4   5
ENDBRANCH   3   4
ENDBRANCH   2   3
TORSDOF 7
ENDMDL
MODEL      151
REMARK 921   NORMALIZED FREE ENERGY PREDICTED BY IDOCK:   -3.78 KCAL/MOL
REMARK 922        TOTAL FREE ENERGY PREDICTED BY IDOCK:   -6.09 KCAL/MOL
REMARK 923 INTER-LIGAND FREE ENERGY PREDICTED BY IDOCK:   -5.22 KCAL/MOL
REMARK 924 INTRA-LIGAND FREE ENERGY PREDICTED BY IDOCK:   -0.87 KCAL/MOL
REMARK 927      BINDING AFFINITY PREDICTED BY RF-SCORE:    0.00 PKD
ROOT
HETATM    1  C   UNL     1     -10.578  12.413  65.903  1.00  0.00    -0.289 C  
HETATM    2  C   UNL     1     -11.361  12.207  67.187  1.00  0.00    -0.393 C  
ENDROOT
BRANCH   2   3
HETATM    3  C   UNL     1     -10.468  12.428  68.412  1.00  0.00    -0.245 C  
BRANCH   3   4
HETATM    4  C   UNL     1      -9.280  11.480  68.391  1.00  0.00    -0.190 C  
BRANCH   4   5
HETATM    5  N   UNL     1      -9.680  10.099  68.650  1.00  0.00    -0.157 NA 
HETATM    6  H   UNL     1     -10.271   9.880  69.453  1.00  0.00     0.000 HD 
BRANCH   5   7
HETATM    7  C   UNL     1      -9.255   9.083  67.800  1.00  0.00    -0.140 A  
HETATM    8  C   UNL     1      -9.056   7.749  68.218  1.00  0.00    -0.130 A  
HETATM    9  C   UNL     1      -8.633   8.881  64.072  1.00  0.00    -0.100 C  
HETATM   10  C   UNL     1      -8.708   6.780  67.248  1.00  0.00    -0.119 A  
HETATM   11  O   UNL     1      -7.763   8.191  63.313  1.00  0.00    -0.128 OA 
HETATM   12  O   UNL     1      -9.276   9.829  63.651  1.00  0.00    -0.259 OA 
HETATM   13  C   UNL     1      -8.554   7.109  65.886  1.00  0.00    -0.157 A  
HETATM   14  C   UNL     1      -8.722   8.426  65.483  1.00  0.00    -0.196 A  
HETATM   15  C   UNL     1      -9.069   9.383  66.434  1.00  0.00    -0.199 A  
BRANCH   8  16
HETATM   16  O   UNL     1      -8.987   7.383  69.547  1.00  0.00    -0.143 OA 
BRANCH  16  17
HETATM   17  C   UNL     1     -10.082   7.367  70.380  1.00  0.00    -0.192 A  
HETATM   18  C   UNL     1     -10.975   8.242  72.474  1.00  0.00    -0.424 A  
HETATM   19  C   UNL     1     -12.198   7.615  72.219  1.00  0.00    -0.261 A  
HETATM   20  C   UNL     1     -11.287   6.705  70.161  1.00  0.00    -0.440 A  
HETATM   21  C   UNL     1      -9.930   8.122  71.554  1.00  0.00    -0.237 A  
HETATM   22  C   UNL     1     -12.349   6.853  71.066  1.00  0.00    -0.401 A  
ENDBRANCH  16  17
ENDBRANCH   8  16
BRANCH  10  23
HETATM   23  S   UNL     1      -8.493   5.084  67.695  1.00  0.00    -0.104 S  
HETATM   24  O   UNL     1      -9.782   4.458  67.874  1.00  0.00    -0.163 OA 
HETATM   25  H2  UNL     1      -7.532   4.884  65.462  1.00  0.00     0.000 HD 
HETATM   26  H1  UNL     1      -7.657   3.443  66.595  1.00  0.00     0.000 HD 
HETATM   27  N   UNL     1      -7.781   4.422  66.337  1.00  0.00    -0.093 N  
HETATM   28  O   UNL     1      -7.472   5.011  68.721  1.00  0.00    -0.067 OA 
ENDBRANCH  10  23
ENDBRANCH   5   7
ENDBRANCH   4   5
ENDBRANCH   3   4
ENDBRANCH   2   3
TORSDOF 7
ENDMDL
MODEL      152
REMARK 921   NORMALIZED FREE ENERGY PREDICTED BY IDOCK:   -3.72 KCAL/MOL
REMARK 922        TOTAL FREE ENERGY PREDICTED BY IDOCK:   -6.00 KCAL/MOL
REMARK 923 INTER-LIGAND FREE ENERGY PREDICTED BY IDOCK:   -4.77 KCAL/MOL
REMARK 924 INTRA-LIGAND FREE ENERGY PREDICTED BY IDOCK:   -1.23 KCAL/MOL
REMARK 927      BINDING AFFINITY PREDICTED BY RF-SCORE:    0.00 PKD
ROOT
HETATM    1  C   UNL     1      -9.253  14.482  66.742  1.00  0.00    -0.286 C  
HETATM    2  C   UNL     1      -9.138  13.281  67.663  1.00  0.00    -0.204 C  
ENDROOT
BRANCH   2   3
HETATM    3  C   UNL     1      -7.806  12.556  67.450  1.00  0.00    -0.175 C  
BRANCH   3   4
HETATM    4  C   UNL     1      -7.386  11.818  68.712  1.00  0.00    -0.114 C  
BRANCH   4   5
HETATM    5  N   UNL     1      -7.043  10.425  68.439  1.00  0.00    -0.076 NA 
HETATM    6  H   UNL     1      -6.209  10.201  67.895  1.00  0.00     0.000 HD 
BRANCH   5   7
HETATM    7  C   UNL     1      -7.855   9.402  68.922  1.00  0.00    -0.083 A  
HETATM    8  C   UNL     1      -8.397   8.385  68.106  1.00  0.00    -0.128 A  
HETATM    9  C   UNL     1      -8.955   8.353  72.388  1.00  0.00    -0.239 C  
HETATM   10  C   UNL     1      -9.135   7.347  68.719  1.00  0.00    -0.131 A  
HETATM   11  O   UNL     1     -10.077   7.797  72.876  1.00  0.00    -0.248 OA 
HETATM   12  O   UNL     1      -8.111   8.877  73.096  1.00  0.00    -0.373 OA 
HETATM   13  C   UNL     1      -9.347   7.302  70.112  1.00  0.00    -0.155 A  
HETATM   14  C   UNL     1      -8.838   8.319  70.908  1.00  0.00    -0.171 A  
HETATM   15  C   UNL     1      -8.105   9.341  70.309  1.00  0.00    -0.165 A  
BRANCH   8  16
HETATM   16  O   UNL     1      -8.412   8.459  66.727  1.00  0.00    -0.110 OA 
BRANCH  16  17
HETATM   17  C   UNL     1      -9.118   9.414  66.033  1.00  0.00    -0.183 A  
HETATM   18  C   UNL     1      -9.166  10.713  63.970  1.00  0.00    -0.269 A  
HETATM   19  C   UNL     1     -10.396  11.263  64.340  1.00  0.00    -0.388 A  
HETATM   20  C   UNL     1     -10.318  10.006  66.416  1.00  0.00    -0.249 A  
HETATM   21  C   UNL     1      -8.538   9.789  64.810  1.00  0.00    -0.195 A  
HETATM   22  C   UNL     1     -10.966  10.907  65.558  1.00  0.00    -0.024 A  
ENDBRANCH  16  17
ENDBRANCH   8  16
BRANCH  10  23
HETATM   23  S   UNL     1      -9.798   6.017  67.762  1.00  0.00    -0.128 S  
HETATM   24  O   UNL     1     -10.273   4.973  68.640  1.00  0.00    -0.155 OA 
HETATM   25  H2  UNL     1     -11.467   7.666  67.098  1.00  0.00     0.000 HD 
HETATM   26  H1  UNL     1     -11.506   5.941  66.467  1.00  0.00     0.000 HD 
HETATM   27  N   UNL     1     -11.124   6.709  67.018  1.00  0.00    -0.403 N  
HETATM   28  O   UNL     1      -8.875   5.730  66.682  1.00  0.00    -0.117 OA 
ENDBRANCH  10  23
ENDBRANCH   5   7
ENDBRANCH   4   5
ENDBRANCH   3   4
ENDBRANCH   2   3
TORSDOF 7
ENDMDL
MODEL      153
REMARK 921   NORMALIZED FREE ENERGY PREDICTED BY IDOCK:   -3.71 KCAL/MOL
REMARK 922        TOTAL FREE ENERGY PREDICTED BY IDOCK:   -6.00 KCAL/MOL
REMARK 923 INTER-LIGAND FREE ENERGY PREDICTED BY IDOCK:   -5.66 KCAL/MOL
REMARK 924 INTRA-LIGAND FREE ENERGY PREDICTED BY IDOCK:   -0.34 KCAL/MOL
REMARK 927      BINDING AFFINITY PREDICTED BY RF-SCORE:    0.00 PKD
ROOT
HETATM    1  C   UNL     1      -9.493   7.999  66.692  1.00  0.00    -0.273 C  
HETATM    2  C   UNL     1      -8.135   8.603  66.383  1.00  0.00    -0.100 C  
ENDROOT
BRANCH   2   3
HETATM    3  C   UNL     1      -7.353   8.875  67.671  1.00  0.00    -0.085 C  
BRANCH   3   4
HETATM    4  C   UNL     1      -6.863  10.314  67.711  1.00  0.00    -0.075 C  
BRANCH   4   5
HETATM    5  N   UNL     1      -7.569  11.101  68.719  1.00  0.00    -0.122 NA 
HETATM    6  H   UNL     1      -7.064  11.472  69.525  1.00  0.00     0.000 HD 
BRANCH   5   7
HETATM    7  C   UNL     1      -8.933  11.345  68.579  1.00  0.00    -0.158 A  
HETATM    8  C   UNL     1      -9.472  12.226  67.615  1.00  0.00    -0.188 A  
HETATM    9  C   UNL     1     -12.031   9.874  70.179  1.00  0.00    -0.077 C  
HETATM   10  C   UNL     1     -10.878  12.328  67.504  1.00  0.00    -0.234 A  
HETATM   11  O   UNL     1     -13.234  10.378  70.507  1.00  0.00    -0.300 OA 
HETATM   12  O   UNL     1     -11.621   8.805  70.601  1.00  0.00    -0.270 OA 
HETATM   13  C   UNL     1     -11.749  11.584  68.326  1.00  0.00    -0.371 A  
HETATM   14  C   UNL     1     -11.216  10.742  69.292  1.00  0.00    -0.333 A  
HETATM   15  C   UNL     1      -9.831  10.633  69.401  1.00  0.00    -0.164 A  
BRANCH   8  16
HETATM   16  O   UNL     1      -8.703  13.134  66.917  1.00  0.00    -0.209 OA 
BRANCH  16  17
HETATM   17  C   UNL     1      -8.276  14.327  67.452  1.00  0.00    -0.202 A  
HETATM   18  C   UNL     1      -8.105  16.723  67.033  1.00  0.00    -0.225 A  
HETATM   19  C   UNL     1      -7.600  16.917  68.321  1.00  0.00    -0.202 A  
HETATM   20  C   UNL     1      -7.725  14.525  68.715  1.00  0.00    -0.140 A  
HETATM   21  C   UNL     1      -8.446  15.437  66.608  1.00  0.00    -0.296 A  
HETATM   22  C   UNL     1      -7.415  15.820  69.156  1.00  0.00    -0.207 A  
ENDBRANCH  16  17
ENDBRANCH   8  16
BRANCH  10  23
HETATM   23  S   UNL     1     -11.619  13.373  66.286  1.00  0.00    -0.362 S  
HETATM   24  O   UNL     1     -11.621  14.740  66.751  1.00  0.00    -0.364 OA 
HETATM   25  H2  UNL     1      -9.693  12.729  64.935  1.00  0.00     0.000 HD 
HETATM   26  H1  UNL     1     -10.985  13.870  64.298  1.00  0.00     0.000 HD 
HETATM   27  N   UNL     1     -10.558  13.267  65.001  1.00  0.00    -0.328 N  
HETATM   28  O   UNL     1     -12.833  12.735  65.818  1.00  0.00    -0.381 OA 
ENDBRANCH  10  23
ENDBRANCH   5   7
ENDBRANCH   4   5
ENDBRANCH   3   4
ENDBRANCH   2   3
TORSDOF 7
ENDMDL
MODEL      154
REMARK 921   NORMALIZED FREE ENERGY PREDICTED BY IDOCK:   -3.71 KCAL/MOL
REMARK 922        TOTAL FREE ENERGY PREDICTED BY IDOCK:   -6.00 KCAL/MOL
REMARK 923 INTER-LIGAND FREE ENERGY PREDICTED BY IDOCK:   -5.14 KCAL/MOL
REMARK 924 INTRA-LIGAND FREE ENERGY PREDICTED BY IDOCK:   -0.86 KCAL/MOL
REMARK 927      BINDING AFFINITY PREDICTED BY RF-SCORE:    0.00 PKD
ROOT
HETATM    1  C   UNL     1      -8.903   6.548  66.088  1.00  0.00    -0.160 C  
HETATM    2  C   UNL     1      -7.407   6.748  66.246  1.00  0.00    -0.073 C  
ENDROOT
BRANCH   2   3
HETATM    3  C   UNL     1      -7.104   7.740  67.373  1.00  0.00    -0.086 C  
BRANCH   3   4
HETATM    4  C   UNL     1      -8.286   8.665  67.610  1.00  0.00    -0.121 C  
BRANCH   4   5
HETATM    5  N   UNL     1      -8.363   9.105  69.001  1.00  0.00    -0.124 NA 
HETATM    6  H   UNL     1      -7.659   9.742  69.375  1.00  0.00     0.000 HD 
BRANCH   5   7
HETATM    7  C   UNL     1      -9.398   8.654  69.815  1.00  0.00    -0.165 A  
HETATM    8  C   UNL     1     -10.537   9.427  70.128  1.00  0.00    -0.240 A  
HETATM    9  C   UNL     1     -10.179   5.332  71.452  1.00  0.00    -0.213 C  
HETATM   10  C   UNL     1     -11.569   8.834  70.892  1.00  0.00    -0.277 A  
HETATM   11  O   UNL     1     -10.780   4.984  72.604  1.00  0.00    -0.207 OA 
HETATM   12  O   UNL     1      -9.512   4.554  70.789  1.00  0.00    -0.142 OA 
HETATM   13  C   UNL     1     -11.488   7.503  71.350  1.00  0.00    -0.291 A  
HETATM   14  C   UNL     1     -10.354   6.755  71.066  1.00  0.00    -0.228 A  
HETATM   15  C   UNL     1      -9.338   7.333  70.308  1.00  0.00    -0.158 A  
BRANCH   8  16
HETATM   16  O   UNL     1     -10.607  10.786  69.897  1.00  0.00    -0.205 OA 
BRANCH  16  17
HETATM   17  C   UNL     1     -10.978  11.325  68.687  1.00  0.00    -0.218 A  
HETATM   18  C   UNL     1     -11.584  13.400  67.559  1.00  0.00    -0.382 A  
HETATM   19  C   UNL     1     -11.648  12.724  66.338  1.00  0.00    -0.435 A  
HETATM   20  C   UNL     1     -11.093  10.651  67.474  1.00  0.00    -0.367 A  
HETATM   21  C   UNL     1     -11.245  12.703  68.722  1.00  0.00    -0.325 A  
HETATM   22  C   UNL     1     -11.400  11.355  66.301  1.00  0.00    -0.140 A  
ENDBRANCH  16  17
ENDBRANCH   8  16
BRANCH  10  23
HETATM   23  S   UNL     1     -13.043   9.729  71.277  1.00  0.00    -0.364 S  
HETATM   24  O   UNL     1     -13.834   9.906  70.081  1.00  0.00     0.431 OA 
HETATM   25  H2  UNL     1     -13.586   7.758  72.608  1.00  0.00     0.000 HD 
HETATM   26  H1  UNL     1     -14.717   9.202  72.511  1.00  0.00     0.000 HD 
HETATM   27  N   UNL     1     -13.866   8.685  72.290  1.00  0.00    -0.411 N  
HETATM   28  O   UNL     1     -12.686  10.854  72.117  1.00  0.00    -0.241 OA 
ENDBRANCH  10  23
ENDBRANCH   5   7
ENDBRANCH   4   5
ENDBRANCH   3   4
ENDBRANCH   2   3
TORSDOF 7
ENDMDL
MODEL      155
REMARK 921   NORMALIZED FREE ENERGY PREDICTED BY IDOCK:   -3.70 KCAL/MOL
REMARK 922        TOTAL FREE ENERGY PREDICTED BY IDOCK:   -5.98 KCAL/MOL
REMARK 923 INTER-LIGAND FREE ENERGY PREDICTED BY IDOCK:   -5.74 KCAL/MOL
REMARK 924 INTRA-LIGAND FREE ENERGY PREDICTED BY IDOCK:   -0.25 KCAL/MOL
REMARK 927      BINDING AFFINITY PREDICTED BY RF-SCORE:    0.00 PKD
ROOT
HETATM    1  C   UNL     1     -10.431  18.374  66.228  1.00  0.00    -0.421 C  
HETATM    2  C   UNL     1     -10.716  16.911  66.513  1.00  0.00    -0.087 C  
ENDROOT
BRANCH   2   3
HETATM    3  C   UNL     1      -9.623  16.016  65.920  1.00  0.00    -0.370 C  
BRANCH   3   4
HETATM    4  C   UNL     1      -9.904  14.552  66.218  1.00  0.00    -0.304 C  
BRANCH   4   5
HETATM    5  N   UNL     1      -9.452  14.172  67.554  1.00  0.00    -0.205 NA 
HETATM    6  H   UNL     1      -8.503  14.393  67.855  1.00  0.00     0.000 HD 
BRANCH   5   7
HETATM    7  C   UNL     1     -10.320  13.507  68.417  1.00  0.00    -0.248 A  
HETATM    8  C   UNL     1     -10.315  12.107  68.601  1.00  0.00    -0.195 A  
HETATM    9  C   UNL     1     -12.897  14.663  70.936  1.00  0.00    -0.365 C  
HETATM   10  C   UNL     1     -11.181  11.549  69.570  1.00  0.00    -0.236 A  
HETATM   11  O   UNL     1     -14.070  14.160  71.359  1.00  0.00    -0.305 OA 
HETATM   12  O   UNL     1     -12.550  15.812  71.152  1.00  0.00    -0.443 OA 
HETATM   13  C   UNL     1     -12.044  12.346  70.348  1.00  0.00    -0.381 A  
HETATM   14  C   UNL     1     -12.067  13.719  70.145  1.00  0.00    -0.429 A  
HETATM   15  C   UNL     1     -11.212  14.274  69.195  1.00  0.00    -0.302 A  
BRANCH   8  16
HETATM   16  O   UNL     1      -9.658  11.242  67.750  1.00  0.00    -0.168 OA 
BRANCH  16  17
HETATM   17  C   UNL     1      -8.294  11.057  67.772  1.00  0.00    -0.118 A  
HETATM   18  C   UNL     1      -6.352  10.901  69.237  1.00  0.00    -0.064 A  
HETATM   19  C   UNL     1      -5.542  10.602  68.139  1.00  0.00    -0.036 A  
HETATM   20  C   UNL     1      -7.469  10.808  66.678  1.00  0.00    -0.135 A  
HETATM   21  C   UNL     1      -7.719  11.120  69.051  1.00  0.00    -0.114 A  
HETATM   22  C   UNL     1      -6.103  10.554  66.868  1.00  0.00    -0.064 A  
ENDBRANCH  16  17
ENDBRANCH   8  16
BRANCH  10  23
HETATM   23  S   UNL     1     -11.189   9.810  69.885  1.00  0.00    -0.200 S  
HETATM   24  O   UNL     1     -11.154   9.086  68.636  1.00  0.00     0.013 OA 
HETATM   25  H2  UNL     1      -9.017  10.244  70.906  1.00  0.00     0.000 HD 
HETATM   26  H1  UNL     1      -9.740   8.556  70.850  1.00  0.00     0.000 HD 
HETATM   27  N   UNL     1      -9.735   9.560  70.668  1.00  0.00    -0.267 N  
HETATM   28  O   UNL     1     -12.200   9.535  70.887  1.00  0.00    -0.292 OA 
ENDBRANCH  10  23
ENDBRANCH   5   7
ENDBRANCH   4   5
ENDBRANCH   3   4
ENDBRANCH   2   3
TORSDOF 7
ENDMDL
MODEL      156
REMARK 921   NORMALIZED FREE ENERGY PREDICTED BY IDOCK:   -3.69 KCAL/MOL
REMARK 922        TOTAL FREE ENERGY PREDICTED BY IDOCK:   -5.96 KCAL/MOL
REMARK 923 INTER-LIGAND FREE ENERGY PREDICTED BY IDOCK:   -5.51 KCAL/MOL
REMARK 924 INTRA-LIGAND FREE ENERGY PREDICTED BY IDOCK:   -0.45 KCAL/MOL
REMARK 927      BINDING AFFINITY PREDICTED BY RF-SCORE:    0.00 PKD
ROOT
HETATM    1  C   UNL     1      -6.542  13.605  69.062  1.00  0.00    -0.109 C  
HETATM    2  C   UNL     1      -6.684  13.975  67.597  1.00  0.00    -0.188 C  
ENDROOT
BRANCH   2   3
HETATM    3  C   UNL     1      -7.748  15.060  67.408  1.00  0.00    -0.227 C  
BRANCH   3   4
HETATM    4  C   UNL     1      -9.087  14.606  67.967  1.00  0.00    -0.189 C  
BRANCH   4   5
HETATM    5  N   UNL     1      -9.653  13.503  67.195  1.00  0.00    -0.233 NA 
HETATM    6  H   UNL     1      -9.793  13.601  66.190  1.00  0.00     0.000 HD 
BRANCH   5   7
HETATM    7  C   UNL     1     -10.001  12.316  67.835  1.00  0.00    -0.202 A  
HETATM    8  C   UNL     1      -9.330  11.091  67.624  1.00  0.00    -0.157 A  
HETATM    9  C   UNL     1     -12.480  11.442  70.558  1.00  0.00    -0.293 C  
HETATM   10  C   UNL     1      -9.712   9.969  68.395  1.00  0.00    -0.146 A  
HETATM   11  O   UNL     1     -13.227  10.354  70.817  1.00  0.00    -0.375 OA 
HETATM   12  O   UNL     1     -12.676  12.524  71.086  1.00  0.00    -0.354 OA 
HETATM   13  C   UNL     1     -10.739  10.038  69.358  1.00  0.00    -0.258 A  
HETATM   14  C   UNL     1     -11.417  11.236  69.542  1.00  0.00    -0.376 A  
HETATM   15  C   UNL     1     -11.040  12.346  68.788  1.00  0.00    -0.307 A  
BRANCH   8  16
HETATM   16  O   UNL     1      -8.462  10.884  66.572  1.00  0.00    -0.147 OA 
BRANCH  16  17
HETATM   17  C   UNL     1      -8.864  10.871  65.256  1.00  0.00    -0.167 A  
HETATM   18  C   UNL     1      -8.162  10.314  62.988  1.00  0.00    -0.162 A  
HETATM   19  C   UNL     1      -9.437  10.628  62.511  1.00  0.00    -0.289 A  
HETATM   20  C   UNL     1     -10.116  11.230  64.763  1.00  0.00    -0.338 A  
HETATM   21  C   UNL     1      -7.883  10.429  64.353  1.00  0.00    -0.064 A  
HETATM   22  C   UNL     1     -10.407  11.082  63.399  1.00  0.00    -0.373 A  
ENDBRANCH  16  17
ENDBRANCH   8  16
BRANCH  10  23
HETATM   23  S   UNL     1      -8.880   8.420  68.217  1.00  0.00    -0.139 S  
HETATM   24  O   UNL     1      -9.134   7.593  69.373  1.00  0.00    -0.143 OA 
HETATM   25  H2  UNL     1     -10.413   8.104  66.346  1.00  0.00     0.000 HD 
HETATM   26  H1  UNL     1      -9.169   6.832  66.804  1.00  0.00     0.000 HD 
HETATM   27  N   UNL     1      -9.649   7.725  66.907  1.00  0.00    -0.183 N  
HETATM   28  O   UNL     1      -7.530   8.679  67.759  1.00  0.00    -0.094 OA 
ENDBRANCH  10  23
ENDBRANCH   5   7
ENDBRANCH   4   5
ENDBRANCH   3   4
ENDBRANCH   2   3
TORSDOF 7
ENDMDL
MODEL      157
REMARK 921   NORMALIZED FREE ENERGY PREDICTED BY IDOCK:   -3.68 KCAL/MOL
REMARK 922        TOTAL FREE ENERGY PREDICTED BY IDOCK:   -5.95 KCAL/MOL
REMARK 923 INTER-LIGAND FREE ENERGY PREDICTED BY IDOCK:   -6.01 KCAL/MOL
REMARK 924 INTRA-LIGAND FREE ENERGY PREDICTED BY IDOCK:    0.06 KCAL/MOL
REMARK 927      BINDING AFFINITY PREDICTED BY RF-SCORE:    0.00 PKD
ROOT
HETATM    1  C   UNL     1      -9.205   6.983  65.982  1.00  0.00    -0.066 C  
HETATM    2  C   UNL     1      -8.804   8.389  66.389  1.00  0.00    -0.181 C  
ENDROOT
BRANCH   2   3
HETATM    3  C   UNL     1      -9.998   9.151  66.971  1.00  0.00    -0.294 C  
BRANCH   3   4
HETATM    4  C   UNL     1     -10.140   8.874  68.460  1.00  0.00    -0.188 C  
BRANCH   4   5
HETATM    5  N   UNL     1      -9.960  10.084  69.258  1.00  0.00    -0.201 NA 
HETATM    6  H   UNL     1     -10.286  10.112  70.224  1.00  0.00     0.000 HD 
BRANCH   5   7
HETATM    7  C   UNL     1      -9.342  11.199  68.699  1.00  0.00    -0.184 A  
HETATM    8  C   UNL     1     -10.007  12.421  68.459  1.00  0.00    -0.170 A  
HETATM    9  C   UNL     1      -5.771  11.999  67.733  1.00  0.00    -0.070 C  
HETATM   10  C   UNL     1      -9.257  13.516  67.969  1.00  0.00    -0.209 A  
HETATM   11  O   UNL     1      -5.218  12.744  66.760  1.00  0.00    -0.263 OA 
HETATM   12  O   UNL     1      -5.138  11.190  68.392  1.00  0.00    -0.041 OA 
HETATM   13  C   UNL     1      -7.874  13.418  67.712  1.00  0.00    -0.158 A  
HETATM   14  C   UNL     1      -7.229  12.207  67.922  1.00  0.00    -0.102 A  
HETATM   15  C   UNL     1      -7.963  11.128  68.409  1.00  0.00    -0.137 A  
BRANCH   8  16
HETATM   16  O   UNL     1     -11.381  12.544  68.488  1.00  0.00    -0.251 OA 
BRANCH  16  17
HETATM   17  C   UNL     1     -12.090  12.788  69.642  1.00  0.00    -0.222 A  
HETATM   18  C   UNL     1     -13.058  11.736  71.617  1.00  0.00    -0.443 A  
HETATM   19  C   UNL     1     -13.429  12.990  72.109  1.00  0.00    -0.638 A  
HETATM   20  C   UNL     1     -12.509  14.028  70.117  1.00  0.00    -0.380 A  
HETATM   21  C   UNL     1     -12.387  11.641  70.395  1.00  0.00    -0.373 A  
HETATM   22  C   UNL     1     -13.151  14.128  71.360  1.00  0.00    -0.428 A  
ENDBRANCH  16  17
ENDBRANCH   8  16
BRANCH  10  23
HETATM   23  S   UNL     1     -10.017  15.087  67.694  1.00  0.00    -0.225 S  
HETATM   24  O   UNL     1      -9.998  15.859  68.914  1.00  0.00    -0.205 OA 
HETATM   25  H2  UNL     1      -8.128  15.451  66.194  1.00  0.00     0.000 HD 
HETATM   26  H1  UNL     1      -9.426  16.727  66.444  1.00  0.00     0.000 HD 
HETATM   27  N   UNL     1      -8.987  15.820  66.603  1.00  0.00    -0.253 N  
HETATM   28  O   UNL     1     -11.247  14.874  66.957  1.00  0.00    -0.332 OA 
ENDBRANCH  10  23
ENDBRANCH   5   7
ENDBRANCH   4   5
ENDBRANCH   3   4
ENDBRANCH   2   3
TORSDOF 7
ENDMDL
MODEL      158
REMARK 921   NORMALIZED FREE ENERGY PREDICTED BY IDOCK:   -3.66 KCAL/MOL
REMARK 922        TOTAL FREE ENERGY PREDICTED BY IDOCK:   -5.93 KCAL/MOL
REMARK 923 INTER-LIGAND FREE ENERGY PREDICTED BY IDOCK:   -5.02 KCAL/MOL
REMARK 924 INTRA-LIGAND FREE ENERGY PREDICTED BY IDOCK:   -0.91 KCAL/MOL
REMARK 927      BINDING AFFINITY PREDICTED BY RF-SCORE:    0.00 PKD
ROOT
HETATM    1  C   UNL     1     -13.882   9.406  71.888  1.00  0.00    -0.380 C  
HETATM    2  C   UNL     1     -13.012  10.644  71.770  1.00  0.00    -0.577 C  
ENDROOT
BRANCH   2   3
HETATM    3  C   UNL     1     -13.115  11.253  70.368  1.00  0.00     0.166 C  
BRANCH   3   4
HETATM    4  C   UNL     1     -11.925  10.845  69.515  1.00  0.00    -0.330 C  
BRANCH   4   5
HETATM    5  N   UNL     1     -10.777  10.455  70.331  1.00  0.00    -0.441 NA 
HETATM    6  H   UNL     1     -10.708  10.770  71.299  1.00  0.00     0.000 HD 
BRANCH   5   7
HETATM    7  C   UNL     1      -9.779   9.653  69.785  1.00  0.00    -0.224 A  
HETATM    8  C   UNL     1      -9.906   8.257  69.616  1.00  0.00    -0.184 A  
HETATM    9  C   UNL     1      -6.424  10.377  68.189  1.00  0.00    -0.056 C  
HETATM   10  C   UNL     1      -8.862   7.556  68.968  1.00  0.00    -0.132 A  
HETATM   11  O   UNL     1      -5.252   9.718  68.156  1.00  0.00    -0.037 OA 
HETATM   12  O   UNL     1      -6.537  11.549  67.870  1.00  0.00    -0.060 OA 
HETATM   13  C   UNL     1      -7.706   8.208  68.494  1.00  0.00    -0.112 A  
HETATM   14  C   UNL     1      -7.571   9.576  68.687  1.00  0.00    -0.080 A  
HETATM   15  C   UNL     1      -8.599  10.272  69.320  1.00  0.00    -0.175 A  
BRANCH   8  16
HETATM   16  O   UNL     1     -10.899   7.516  70.223  1.00  0.00    -0.238 OA 
BRANCH  16  17
HETATM   17  C   UNL     1     -10.768   6.968  71.479  1.00  0.00    -0.221 A  
HETATM   18  C   UNL     1     -11.119   4.941  72.789  1.00  0.00    -0.283 A  
HETATM   19  C   UNL     1     -10.523   5.549  73.897  1.00  0.00    -0.308 A  
HETATM   20  C   UNL     1     -10.221   7.581  72.603  1.00  0.00    -0.297 A  
HETATM   21  C   UNL     1     -11.232   5.647  71.588  1.00  0.00    -0.204 A  
HETATM   22  C   UNL     1     -10.076   6.862  73.799  1.00  0.00    -0.373 A  
ENDBRANCH  16  17
ENDBRANCH   8  16
BRANCH  10  23
HETATM   23  S   UNL     1      -8.980   5.816  68.680  1.00  0.00    -0.112 S  
HETATM   24  O   UNL     1     -10.247   5.508  68.059  1.00  0.00    -0.168 OA 
HETATM   25  H2  UNL     1      -7.128   6.206  67.141  1.00  0.00     0.000 HD 
HETATM   26  H1  UNL     1      -7.842   4.532  67.391  1.00  0.00     0.000 HD 
HETATM   27  N   UNL     1      -7.774   5.536  67.558  1.00  0.00    -0.095 N  
HETATM   28  O   UNL     1      -8.539   5.127  69.876  1.00  0.00    -0.097 OA 
ENDBRANCH  10  23
ENDBRANCH   5   7
ENDBRANCH   4   5
ENDBRANCH   3   4
ENDBRANCH   2   3
TORSDOF 7
ENDMDL
MODEL      159
REMARK 921   NORMALIZED FREE ENERGY PREDICTED BY IDOCK:   -3.62 KCAL/MOL
REMARK 922        TOTAL FREE ENERGY PREDICTED BY IDOCK:   -5.86 KCAL/MOL
REMARK 923 INTER-LIGAND FREE ENERGY PREDICTED BY IDOCK:   -5.00 KCAL/MOL
REMARK 924 INTRA-LIGAND FREE ENERGY PREDICTED BY IDOCK:   -0.86 KCAL/MOL
REMARK 927      BINDING AFFINITY PREDICTED BY RF-SCORE:    0.00 PKD
ROOT
HETATM    1  C   UNL     1      -8.010   5.372  66.734  1.00  0.00    -0.101 C  
HETATM    2  C   UNL     1      -6.575   5.678  66.348  1.00  0.00    -0.055 C  
ENDROOT
BRANCH   2   3
HETATM    3  C   UNL     1      -6.340   7.190  66.271  1.00  0.00    -0.044 C  
BRANCH   3   4
HETATM    4  C   UNL     1      -7.662   7.941  66.274  1.00  0.00    -0.092 C  
BRANCH   4   5
HETATM    5  N   UNL     1      -7.551   9.235  66.943  1.00  0.00    -0.091 NA 
HETATM    6  H   UNL     1      -6.908   9.942  66.585  1.00  0.00     0.000 HD 
BRANCH   5   7
HETATM    7  C   UNL     1      -8.323   9.503  68.069  1.00  0.00    -0.118 A  
HETATM    8  C   UNL     1      -9.480  10.313  68.047  1.00  0.00    -0.146 A  
HETATM    9  C   UNL     1      -8.259   8.252  71.641  1.00  0.00    -0.137 C  
HETATM   10  C   UNL     1     -10.238  10.443  69.234  1.00  0.00    -0.230 A  
HETATM   11  O   UNL     1      -8.560   8.813  72.825  1.00  0.00    -0.412 OA 
HETATM   12  O   UNL     1      -7.631   7.211  71.539  1.00  0.00    -0.086 OA 
HETATM   13  C   UNL     1      -9.871   9.793  70.430  1.00  0.00    -0.269 A  
HETATM   14  C   UNL     1      -8.718   9.021  70.456  1.00  0.00    -0.238 A  
HETATM   15  C   UNL     1      -7.971   8.885  69.288  1.00  0.00    -0.104 A  
BRANCH   8  16
HETATM   16  O   UNL     1      -9.796  11.139  66.988  1.00  0.00    -0.181 OA 
BRANCH  16  17
HETATM   17  C   UNL     1      -9.353  12.438  66.889  1.00  0.00    -0.213 A  
HETATM   18  C   UNL     1      -9.828  14.608  65.883  1.00  0.00    -0.358 A  
HETATM   19  C   UNL     1      -8.757  15.171  66.581  1.00  0.00    -0.308 A  
HETATM   20  C   UNL     1      -8.258  12.998  67.541  1.00  0.00    -0.181 A  
HETATM   21  C   UNL     1     -10.125  13.252  66.044  1.00  0.00    -0.301 A  
HETATM   22  C   UNL     1      -7.979  14.366  67.407  1.00  0.00    -0.220 A  
ENDBRANCH  16  17
ENDBRANCH   8  16
BRANCH  10  23
HETATM   23  S   UNL     1     -11.723  11.401  69.263  1.00  0.00    -0.364 S  
HETATM   24  O   UNL     1     -12.508  11.121  68.083  1.00  0.00    -0.202 OA 
HETATM   25  H2  UNL     1     -12.254  10.047  71.221  1.00  0.00     0.000 HD 
HETATM   26  H1  UNL     1     -13.398  11.344  70.601  1.00  0.00     0.000 HD 
HETATM   27  N   UNL     1     -12.542  10.791  70.585  1.00  0.00    -0.350 N  
HETATM   28  O   UNL     1     -11.379  12.759  69.634  1.00  0.00    -0.204 OA 
ENDBRANCH  10  23
ENDBRANCH   5   7
ENDBRANCH   4   5
ENDBRANCH   3   4
ENDBRANCH   2   3
TORSDOF 7
ENDMDL
MODEL      160
REMARK 921   NORMALIZED FREE ENERGY PREDICTED BY IDOCK:   -3.58 KCAL/MOL
REMARK 922        TOTAL FREE ENERGY PREDICTED BY IDOCK:   -5.81 KCAL/MOL
REMARK 923 INTER-LIGAND FREE ENERGY PREDICTED BY IDOCK:   -4.90 KCAL/MOL
REMARK 924 INTRA-LIGAND FREE ENERGY PREDICTED BY IDOCK:   -0.91 KCAL/MOL
REMARK 927      BINDING AFFINITY PREDICTED BY RF-SCORE:    0.00 PKD
ROOT
HETATM    1  C   UNL     1     -12.989   9.774  72.232  1.00  0.00    -0.420 C  
HETATM    2  C   UNL     1     -12.188   8.485  72.239  1.00  0.00    -0.454 C  
ENDROOT
BRANCH   2   3
HETATM    3  C   UNL     1     -12.906   7.392  71.441  1.00  0.00    -0.408 C  
BRANCH   3   4
HETATM    4  C   UNL     1     -11.912   6.371  70.911  1.00  0.00    -0.193 C  
BRANCH   4   5
HETATM    5  N   UNL     1     -11.828   6.399  69.453  1.00  0.00    -0.458 NA 
HETATM    6  H   UNL     1     -12.576   6.824  68.905  1.00  0.00     0.000 HD 
BRANCH   5   7
HETATM    7  C   UNL     1     -10.724   5.844  68.811  1.00  0.00    -0.284 A  
HETATM    8  C   UNL     1     -10.032   6.482  67.759  1.00  0.00    -0.131 A  
HETATM    9  C   UNL     1      -8.654   2.729  69.393  1.00  0.00    -0.068 C  
HETATM   10  C   UNL     1      -8.869   5.865  67.241  1.00  0.00    -0.106 A  
HETATM   11  O   UNL     1      -7.997   1.887  68.576  1.00  0.00    -0.052 OA 
HETATM   12  O   UNL     1      -8.906   2.465  70.557  1.00  0.00    -0.064 OA 
HETATM   13  C   UNL     1      -8.390   4.637  67.741  1.00  0.00    -0.103 A  
HETATM   14  C   UNL     1      -9.089   3.998  68.755  1.00  0.00    -0.190 A  
HETATM   15  C   UNL     1     -10.231   4.605  69.272  1.00  0.00    -0.059 A  
BRANCH   8  16
HETATM   16  O   UNL     1     -10.539   7.571  67.080  1.00  0.00    -0.319 OA 
BRANCH  16  17
HETATM   17  C   UNL     1     -10.294   8.872  67.454  1.00  0.00    -0.269 A  
HETATM   18  C   UNL     1      -9.893  11.122  66.605  1.00  0.00    -0.231 A  
HETATM   19  C   UNL     1      -9.888  11.619  67.911  1.00  0.00    -0.189 A  
HETATM   20  C   UNL     1     -10.237   9.369  68.753  1.00  0.00    -0.221 A  
HETATM   21  C   UNL     1     -10.102   9.759  66.382  1.00  0.00    -0.313 A  
HETATM   22  C   UNL     1     -10.062  10.743  68.977  1.00  0.00    -0.225 A  
ENDBRANCH  16  17
ENDBRANCH   8  16
BRANCH  10  23
HETATM   23  S   UNL     1      -7.927   6.634  65.959  1.00  0.00    -0.119 S  
HETATM   24  O   UNL     1      -7.191   7.753  66.498  1.00  0.00    -0.082 OA 
HETATM   25  H2  UNL     1      -6.727   4.511  65.920  1.00  0.00     0.000 HD 
HETATM   26  H1  UNL     1      -6.286   5.894  64.793  1.00  0.00     0.000 HD 
HETATM   27  N   UNL     1      -6.829   5.450  65.533  1.00  0.00    -0.059 N  
HETATM   28  O   UNL     1      -8.780   6.783  64.797  1.00  0.00     0.118 OA 
ENDBRANCH  10  23
ENDBRANCH   5   7
ENDBRANCH   4   5
ENDBRANCH   3   4
ENDBRANCH   2   3
TORSDOF 7
ENDMDL
MODEL      161
REMARK 921   NORMALIZED FREE ENERGY PREDICTED BY IDOCK:   -3.56 KCAL/MOL
REMARK 922        TOTAL FREE ENERGY PREDICTED BY IDOCK:   -5.79 KCAL/MOL
REMARK 923 INTER-LIGAND FREE ENERGY PREDICTED BY IDOCK:   -4.79 KCAL/MOL
REMARK 924 INTRA-LIGAND FREE ENERGY PREDICTED BY IDOCK:   -0.99 KCAL/MOL
REMARK 927      BINDING AFFINITY PREDICTED BY RF-SCORE:    0.00 PKD
ROOT
HETATM    1  C   UNL     1      -5.477  10.884  70.760  1.00  0.00    -0.118 C  
HETATM    2  C   UNL     1      -5.635  10.795  69.253  1.00  0.00    -0.041 C  
ENDROOT
BRANCH   2   3
HETATM    3  C   UNL     1      -5.826   9.342  68.808  1.00  0.00    -0.040 C  
BRANCH   3   4
HETATM    4  C   UNL     1      -6.711   8.590  69.788  1.00  0.00    -0.039 C  
BRANCH   4   5
HETATM    5  N   UNL     1      -7.949   8.132  69.163  1.00  0.00    -0.111 NA 
HETATM    6  H   UNL     1      -7.930   7.362  68.494  1.00  0.00     0.000 HD 
BRANCH   5   7
HETATM    7  C   UNL     1      -9.157   8.747  69.482  1.00  0.00    -0.146 A  
HETATM    8  C   UNL     1     -10.121   8.174  70.340  1.00  0.00    -0.194 A  
HETATM    9  C   UNL     1     -10.636  12.150  68.733  1.00  0.00    -0.201 C  
HETATM   10  C   UNL     1     -11.272   8.929  70.665  1.00  0.00    -0.266 A  
HETATM   11  O   UNL     1     -11.889  12.590  68.523  1.00  0.00    -0.305 OA 
HETATM   12  O   UNL     1      -9.645  12.807  68.458  1.00  0.00    -0.198 OA 
HETATM   13  C   UNL     1     -11.482  10.227  70.156  1.00  0.00    -0.383 A  
HETATM   14  C   UNL     1     -10.546  10.776  69.291  1.00  0.00    -0.261 A  
HETATM   15  C   UNL     1      -9.408  10.038  68.972  1.00  0.00    -0.183 A  
BRANCH   8  16
HETATM   16  O   UNL     1     -10.095   6.846  70.715  1.00  0.00    -0.194 OA 
BRANCH  16  17
HETATM   17  C   UNL     1      -9.505   6.405  71.878  1.00  0.00    -0.152 A  
HETATM   18  C   UNL     1      -9.503   4.606  73.524  1.00  0.00    -0.130 A  
HETATM   19  C   UNL     1      -8.421   5.200  74.178  1.00  0.00    -0.108 A  
HETATM   20  C   UNL     1      -8.460   7.015  72.566  1.00  0.00    -0.123 A  
HETATM   21  C   UNL     1     -10.034   5.204  72.377  1.00  0.00    -0.225 A  
HETATM   22  C   UNL     1      -7.904   6.398  73.697  1.00  0.00    -0.092 A  
ENDBRANCH  16  17
ENDBRANCH   8  16
BRANCH  10  23
HETATM   23  S   UNL     1     -12.493   8.291  71.771  1.00  0.00    -0.347 S  
HETATM   24  O   UNL     1     -11.944   8.195  73.103  1.00  0.00    -0.192 OA 
HETATM   25  H2  UNL     1     -13.665  10.371  71.268  1.00  0.00     0.000 HD 
HETATM   26  H1  UNL     1     -14.364   9.119  72.417  1.00  0.00     0.000 HD 
HETATM   27  N   UNL     1     -13.659   9.487  71.778  1.00  0.00    -0.385 N  
HETATM   28  O   UNL     1     -13.132   7.156  71.136  1.00  0.00    -0.361 OA 
ENDBRANCH  10  23
ENDBRANCH   5   7
ENDBRANCH   4   5
ENDBRANCH   3   4
ENDBRANCH   2   3
TORSDOF 7
ENDMDL
MODEL      162
REMARK 921   NORMALIZED FREE ENERGY PREDICTED BY IDOCK:   -3.54 KCAL/MOL
REMARK 922        TOTAL FREE ENERGY PREDICTED BY IDOCK:   -5.76 KCAL/MOL
REMARK 923 INTER-LIGAND FREE ENERGY PREDICTED BY IDOCK:   -5.45 KCAL/MOL
REMARK 924 INTRA-LIGAND FREE ENERGY PREDICTED BY IDOCK:   -0.30 KCAL/MOL
REMARK 927      BINDING AFFINITY PREDICTED BY RF-SCORE:    0.00 PKD
ROOT
HETATM    1  C   UNL     1      -5.717   7.714  73.637  1.00  0.00    -0.049 C  
HETATM    2  C   UNL     1      -6.978   6.904  73.400  1.00  0.00    -0.074 C  
ENDROOT
BRANCH   2   3
HETATM    3  C   UNL     1      -6.875   6.100  72.101  1.00  0.00    -0.073 C  
BRANCH   3   4
HETATM    4  C   UNL     1      -8.237   5.972  71.436  1.00  0.00    -0.123 C  
BRANCH   4   5
HETATM    5  N   UNL     1      -8.828   7.277  71.152  1.00  0.00    -0.139 NA 
HETATM    6  H   UNL     1      -9.053   7.914  71.917  1.00  0.00     0.000 HD 
BRANCH   5   7
HETATM    7  C   UNL     1      -9.085   7.651  69.836  1.00  0.00    -0.147 A  
HETATM    8  C   UNL     1      -9.715   8.863  69.478  1.00  0.00    -0.173 A  
HETATM    9  C   UNL     1      -8.192   6.159  66.473  1.00  0.00    -0.111 C  
HETATM   10  C   UNL     1      -9.844   9.179  68.105  1.00  0.00    -0.164 A  
HETATM   11  O   UNL     1      -8.811   6.126  65.280  1.00  0.00    -0.089 OA 
HETATM   12  O   UNL     1      -7.247   5.439  66.753  1.00  0.00    -0.075 OA 
HETATM   13  C   UNL     1      -9.367   8.321  67.093  1.00  0.00    -0.189 A  
HETATM   14  C   UNL     1      -8.774   7.118  67.447  1.00  0.00    -0.120 A  
HETATM   15  C   UNL     1      -8.640   6.804  68.798  1.00  0.00    -0.123 A  
BRANCH   8  16
HETATM   16  O   UNL     1     -10.385   9.655  70.387  1.00  0.00    -0.254 OA 
BRANCH  16  17
HETATM   17  C   UNL     1     -11.563   9.277  70.990  1.00  0.00    -0.313 A  
HETATM   18  C   UNL     1     -13.531  10.113  72.163  1.00  0.00    -0.371 A  
HETATM   19  C   UNL     1     -14.067   8.823  72.192  1.00  0.00    -0.519 A  
HETATM   20  C   UNL     1     -12.083   7.988  71.069  1.00  0.00    -0.232 A  
HETATM   21  C   UNL     1     -12.290  10.335  71.559  1.00  0.00    -0.488 A  
HETATM   22  C   UNL     1     -13.343   7.769  71.644  1.00  0.00    -0.386 A  
ENDBRANCH  16  17
ENDBRANCH   8  16
BRANCH  10  23
HETATM   23  S   UNL     1     -10.577  10.702  67.590  1.00  0.00    -0.267 S  
HETATM   24  O   UNL     1     -11.953  10.754  68.025  1.00  0.00    -0.537 OA 
HETATM   25  H2  UNL     1      -8.958  11.701  69.116  1.00  0.00     0.000 HD 
HETATM   26  H1  UNL     1     -10.143  12.725  68.155  1.00  0.00     0.000 HD 
HETATM   27  N   UNL     1      -9.719  11.846  68.452  1.00  0.00    -0.206 N  
HETATM   28  O   UNL     1     -10.216  10.934  66.206  1.00  0.00    -0.232 OA 
ENDBRANCH  10  23
ENDBRANCH   5   7
ENDBRANCH   4   5
ENDBRANCH   3   4
ENDBRANCH   2   3
TORSDOF 7
ENDMDL
MODEL      163
REMARK 921   NORMALIZED FREE ENERGY PREDICTED BY IDOCK:   -3.53 KCAL/MOL
REMARK 922        TOTAL FREE ENERGY PREDICTED BY IDOCK:   -5.74 KCAL/MOL
REMARK 923 INTER-LIGAND FREE ENERGY PREDICTED BY IDOCK:   -5.88 KCAL/MOL
REMARK 924 INTRA-LIGAND FREE ENERGY PREDICTED BY IDOCK:    0.14 KCAL/MOL
REMARK 927      BINDING AFFINITY PREDICTED BY RF-SCORE:    0.00 PKD
ROOT
HETATM    1  C   UNL     1      -5.845  15.358  67.081  1.00  0.00     0.419 C  
HETATM    2  C   UNL     1      -5.178  14.717  68.284  1.00  0.00    -0.113 C  
ENDROOT
BRANCH   2   3
HETATM    3  C   UNL     1      -6.198  13.947  69.128  1.00  0.00    -0.098 C  
BRANCH   3   4
HETATM    4  C   UNL     1      -7.536  14.668  69.146  1.00  0.00    -0.126 C  
BRANCH   4   5
HETATM    5  N   UNL     1      -7.444  15.971  69.800  1.00  0.00     0.006 NA 
HETATM    6  H   UNL     1      -7.229  16.029  70.796  1.00  0.00     0.000 HD 
BRANCH   5   7
HETATM    7  C   UNL     1      -7.651  17.133  69.063  1.00  0.00    -0.187 A  
HETATM    8  C   UNL     1      -8.772  17.339  68.229  1.00  0.00    -0.251 A  
HETATM    9  C   UNL     1      -5.854  20.458  68.865  1.00  0.00    -0.321 C  
HETATM   10  C   UNL     1      -8.924  18.594  67.596  1.00  0.00    -0.275 A  
HETATM   11  O   UNL     1      -5.647  21.343  67.873  1.00  0.00    -0.314 OA 
HETATM   12  O   UNL     1      -5.232  20.479  69.914  1.00  0.00    -0.245 OA 
HETATM   13  C   UNL     1      -7.991  19.637  67.771  1.00  0.00    -0.337 A  
HETATM   14  C   UNL     1      -6.875  19.422  68.568  1.00  0.00    -0.326 A  
HETATM   15  C   UNL     1      -6.724  18.188  69.198  1.00  0.00    -0.252 A  
BRANCH   8  16
HETATM   16  O   UNL     1      -9.616  16.317  67.844  1.00  0.00    -0.224 OA 
BRANCH  16  17
HETATM   17  C   UNL     1     -10.601  15.808  68.659  1.00  0.00    -0.250 A  
HETATM   18  C   UNL     1     -12.158  13.952  68.941  1.00  0.00    -0.355 A  
HETATM   19  C   UNL     1     -12.561  14.473  70.174  1.00  0.00    -0.339 A  
HETATM   20  C   UNL     1     -11.046  16.344  69.864  1.00  0.00    -0.313 A  
HETATM   21  C   UNL     1     -11.179  14.615  68.195  1.00  0.00    -0.304 A  
HETATM   22  C   UNL     1     -12.003  15.663  70.630  1.00  0.00    -0.438 A  
ENDBRANCH  16  17
ENDBRANCH   8  16
BRANCH  10  23
HETATM   23  S   UNL     1     -10.329  18.935  66.579  1.00  0.00    -0.452 S  
HETATM   24  O   UNL     1     -11.432  19.374  67.401  1.00  0.00     0.005 OA 
HETATM   25  H2  UNL     1      -8.923  20.711  65.676  1.00  0.00     0.000 HD 
HETATM   26  H1  UNL     1     -10.634  20.428  65.071  1.00  0.00     0.000 HD 
HETATM   27  N   UNL     1      -9.823  20.232  65.657  1.00  0.00    -0.174 N  
HETATM   28  O   UNL     1     -10.480  17.846  65.635  1.00  0.00    -0.610 OA 
ENDBRANCH  10  23
ENDBRANCH   5   7
ENDBRANCH   4   5
ENDBRANCH   3   4
ENDBRANCH   2   3
TORSDOF 7
ENDMDL
MODEL      164
REMARK 921   NORMALIZED FREE ENERGY PREDICTED BY IDOCK:   -3.52 KCAL/MOL
REMARK 922        TOTAL FREE ENERGY PREDICTED BY IDOCK:   -5.73 KCAL/MOL
REMARK 923 INTER-LIGAND FREE ENERGY PREDICTED BY IDOCK:   -5.76 KCAL/MOL
REMARK 924 INTRA-LIGAND FREE ENERGY PREDICTED BY IDOCK:    0.02 KCAL/MOL
REMARK 927      BINDING AFFINITY PREDICTED BY RF-SCORE:    0.00 PKD
ROOT
HETATM    1  C   UNL     1     -12.199   8.712  72.434  1.00  0.00    -0.419 C  
HETATM    2  C   UNL     1     -11.102   7.942  71.721  1.00  0.00    -0.299 C  
ENDROOT
BRANCH   2   3
HETATM    3  C   UNL     1     -11.689   6.800  70.887  1.00  0.00    -0.424 C  
BRANCH   3   4
HETATM    4  C   UNL     1     -11.155   6.841  69.464  1.00  0.00    -0.273 C  
BRANCH   4   5
HETATM    5  N   UNL     1     -11.337   8.155  68.852  1.00  0.00    -0.087 NA 
HETATM    6  H   UNL     1     -11.954   8.841  69.288  1.00  0.00     0.000 HD 
BRANCH   5   7
HETATM    7  C   UNL     1     -10.666   8.471  67.674  1.00  0.00    -0.119 A  
HETATM    8  C   UNL     1     -10.832   9.693  66.986  1.00  0.00    -0.078 A  
HETATM    9  C   UNL     1      -7.949   6.757  65.673  1.00  0.00    -0.116 C  
HETATM   10  C   UNL     1     -10.032   9.942  65.846  1.00  0.00    -0.277 A  
HETATM   11  O   UNL     1      -7.665   6.692  64.360  1.00  0.00    -0.100 OA 
HETATM   12  O   UNL     1      -7.456   6.005  66.498  1.00  0.00    -0.086 OA 
HETATM   13  C   UNL     1      -9.084   9.008  65.380  1.00  0.00    -0.250 A  
HETATM   14  C   UNL     1      -8.945   7.795  66.041  1.00  0.00    -0.185 A  
HETATM   15  C   UNL     1      -9.727   7.548  67.168  1.00  0.00    -0.228 A  
BRANCH   8  16
HETATM   16  O   UNL     1     -11.867  10.567  67.249  1.00  0.00    -0.049 OA 
BRANCH  16  17
HETATM   17  C   UNL     1     -11.918  11.354  68.377  1.00  0.00    -0.200 A  
HETATM   18  C   UNL     1     -12.147  13.649  69.167  1.00  0.00    -0.361 A  
HETATM   19  C   UNL     1     -12.161  13.198  70.489  1.00  0.00    -0.385 A  
HETATM   20  C   UNL     1     -11.882  10.919  69.699  1.00  0.00    -0.416 A  
HETATM   21  C   UNL     1     -12.033  12.730  68.121  1.00  0.00    -0.295 A  
HETATM   22  C   UNL     1     -12.031  11.838  70.749  1.00  0.00    -0.228 A  
ENDBRANCH  16  17
ENDBRANCH   8  16
BRANCH  10  23
HETATM   23  S   UNL     1     -10.153  11.471  64.969  1.00  0.00    -0.282 S  
HETATM   24  O   UNL     1     -11.528  11.911  64.940  1.00  0.00    -0.312 OA 
HETATM   25  H2  UNL     1      -8.813  12.339  66.813  1.00  0.00     0.000 HD 
HETATM   26  H1  UNL     1      -9.361  13.412  65.426  1.00  0.00     0.000 HD 
HETATM   27  N   UNL     1      -9.292  12.529  65.932  1.00  0.00    -0.106 N  
HETATM   28  O   UNL     1      -9.372  11.359  63.753  1.00  0.00    -0.181 OA 
ENDBRANCH  10  23
ENDBRANCH   5   7
ENDBRANCH   4   5
ENDBRANCH   3   4
ENDBRANCH   2   3
TORSDOF 7
ENDMDL
MODEL      165
REMARK 921   NORMALIZED FREE ENERGY PREDICTED BY IDOCK:   -3.52 KCAL/MOL
REMARK 922        TOTAL FREE ENERGY PREDICTED BY IDOCK:   -5.73 KCAL/MOL
REMARK 923 INTER-LIGAND FREE ENERGY PREDICTED BY IDOCK:   -5.18 KCAL/MOL
REMARK 924 INTRA-LIGAND FREE ENERGY PREDICTED BY IDOCK:   -0.56 KCAL/MOL
REMARK 927      BINDING AFFINITY PREDICTED BY RF-SCORE:    0.00 PKD
ROOT
HETATM    1  C   UNL     1      -5.223  11.511  70.653  1.00  0.00    -0.121 C  
HETATM    2  C   UNL     1      -5.802  12.599  69.768  1.00  0.00    -0.121 C  
ENDROOT
BRANCH   2   3
HETATM    3  C   UNL     1      -6.377  12.006  68.478  1.00  0.00    -0.055 C  
BRANCH   3   4
HETATM    4  C   UNL     1      -6.766  10.550  68.680  1.00  0.00    -0.053 C  
BRANCH   4   5
HETATM    5  N   UNL     1      -7.876  10.158  67.816  1.00  0.00    -0.098 NA 
HETATM    6  H   UNL     1      -7.715   9.528  67.030  1.00  0.00     0.000 HD 
BRANCH   5   7
HETATM    7  C   UNL     1      -9.156  10.646  68.068  1.00  0.00    -0.147 A  
HETATM    8  C   UNL     1      -9.937  10.250  69.176  1.00  0.00    -0.222 A  
HETATM    9  C   UNL     1     -11.300  13.316  66.456  1.00  0.00    -0.322 C  
HETATM   10  C   UNL     1     -11.188  10.878  69.381  1.00  0.00    -0.272 A  
HETATM   11  O   UNL     1     -12.625  13.455  66.273  1.00  0.00    -0.333 OA 
HETATM   12  O   UNL     1     -10.473  13.990  65.865  1.00  0.00    -0.292 OA 
HETATM   13  C   UNL     1     -11.673  11.878  68.513  1.00  0.00    -0.388 A  
HETATM   14  C   UNL     1     -10.916  12.244  67.410  1.00  0.00    -0.298 A  
HETATM   15  C   UNL     1      -9.680  11.632  67.206  1.00  0.00    -0.192 A  
BRANCH   8  16
HETATM   16  O   UNL     1      -9.635   9.149  69.951  1.00  0.00    -0.172 OA 
BRANCH  16  17
HETATM   17  C   UNL     1      -9.760   7.855  69.500  1.00  0.00    -0.173 A  
HETATM   18  C   UNL     1      -8.579   5.737  69.243  1.00  0.00    -0.111 A  
HETATM   19  C   UNL     1      -9.748   5.138  68.765  1.00  0.00    -0.215 A  
HETATM   20  C   UNL     1     -10.906   7.262  68.976  1.00  0.00    -0.137 A  
HETATM   21  C   UNL     1      -8.591   7.084  69.613  1.00  0.00    -0.134 A  
HETATM   22  C   UNL     1     -10.904   5.901  68.636  1.00  0.00    -0.333 A  
ENDBRANCH  16  17
ENDBRANCH   8  16
BRANCH  10  23
HETATM   23  S   UNL     1     -12.193  10.466  70.775  1.00  0.00    -0.392 S  
HETATM   24  O   UNL     1     -11.383   9.839  71.793  1.00  0.00    -0.298 OA 
HETATM   25  H2  UNL     1     -12.448  12.883  70.981  1.00  0.00     0.000 HD 
HETATM   26  H1  UNL     1     -13.257  11.720  72.151  1.00  0.00     0.000 HD 
HETATM   27  N   UNL     1     -12.677  11.958  71.347  1.00  0.00    -0.345 N  
HETATM   28  O   UNL     1     -13.408   9.843  70.290  1.00  0.00     0.049 OA 
ENDBRANCH  10  23
ENDBRANCH   5   7
ENDBRANCH   4   5
ENDBRANCH   3   4
ENDBRANCH   2   3
TORSDOF 7
ENDMDL
MODEL      166
REMARK 921   NORMALIZED FREE ENERGY PREDICTED BY IDOCK:   -3.49 KCAL/MOL
REMARK 922        TOTAL FREE ENERGY PREDICTED BY IDOCK:   -5.68 KCAL/MOL
REMARK 923 INTER-LIGAND FREE ENERGY PREDICTED BY IDOCK:   -5.16 KCAL/MOL
REMARK 924 INTRA-LIGAND FREE ENERGY PREDICTED BY IDOCK:   -0.52 KCAL/MOL
REMARK 927      BINDING AFFINITY PREDICTED BY RF-SCORE:    0.00 PKD
ROOT
HETATM    1  C   UNL     1     -13.858   9.389  71.887  1.00  0.00    -0.380 C  
HETATM    2  C   UNL     1     -12.901  10.566  71.836  1.00  0.00    -0.509 C  
ENDROOT
BRANCH   2   3
HETATM    3  C   UNL     1     -12.788  11.116  70.411  1.00  0.00    -0.176 C  
BRANCH   3   4
HETATM    4  C   UNL     1     -11.511  10.629  69.745  1.00  0.00    -0.302 C  
BRANCH   4   5
HETATM    5  N   UNL     1     -11.326  11.222  68.423  1.00  0.00    -0.254 NA 
HETATM    6  H   UNL     1     -12.127  11.597  67.914  1.00  0.00     0.000 HD 
BRANCH   5   7
HETATM    7  C   UNL     1     -10.055  11.275  67.858  1.00  0.00    -0.178 A  
HETATM    8  C   UNL     1      -9.088  12.244  68.204  1.00  0.00    -0.196 A  
HETATM    9  C   UNL     1      -8.160   9.035  65.467  1.00  0.00    -0.110 C  
HETATM   10  C   UNL     1      -7.798  12.148  67.631  1.00  0.00    -0.153 A  
HETATM   11  O   UNL     1      -7.245   9.265  64.509  1.00  0.00    -0.096 OA 
HETATM   12  O   UNL     1      -8.760   7.978  65.573  1.00  0.00    -0.157 OA 
HETATM   13  C   UNL     1      -7.457  11.121  66.729  1.00  0.00    -0.146 A  
HETATM   14  C   UNL     1      -8.417  10.187  66.368  1.00  0.00    -0.133 A  
HETATM   15  C   UNL     1      -9.688  10.274  66.934  1.00  0.00    -0.229 A  
BRANCH   8  16
HETATM   16  O   UNL     1      -9.394  13.388  68.913  1.00  0.00     0.025 OA 
BRANCH  16  17
HETATM   17  C   UNL     1      -9.839  14.546  68.317  1.00  0.00    -0.229 A  
HETATM   18  C   UNL     1     -10.770  16.756  68.761  1.00  0.00    -0.341 A  
HETATM   19  C   UNL     1     -10.711  17.059  67.399  1.00  0.00    -0.240 A  
HETATM   20  C   UNL     1      -9.832  14.839  66.956  1.00  0.00    -0.240 A  
HETATM   21  C   UNL     1     -10.329  15.509  69.214  1.00  0.00    -0.252 A  
HETATM   22  C   UNL     1     -10.242  16.102  66.504  1.00  0.00    -0.304 A  
ENDBRANCH  16  17
ENDBRANCH   8  16
BRANCH  10  23
HETATM   23  S   UNL     1      -6.527  13.299  68.059  1.00  0.00    -0.149 S  
HETATM   24  O   UNL     1      -6.454  13.434  69.495  1.00  0.00    -0.111 OA 
HETATM   25  H2  UNL     1      -5.042  11.625  67.088  1.00  0.00     0.000 HD 
HETATM   26  H1  UNL     1      -4.402  13.199  67.788  1.00  0.00     0.000 HD 
HETATM   27  N   UNL     1      -5.135  12.535  67.541  1.00  0.00    -0.095 N  
HETATM   28  O   UNL     1      -6.655  14.458  67.199  1.00  0.00    -0.205 OA 
ENDBRANCH  10  23
ENDBRANCH   5   7
ENDBRANCH   4   5
ENDBRANCH   3   4
ENDBRANCH   2   3
TORSDOF 7
ENDMDL
MODEL      167
REMARK 921   NORMALIZED FREE ENERGY PREDICTED BY IDOCK:   -3.48 KCAL/MOL
REMARK 922        TOTAL FREE ENERGY PREDICTED BY IDOCK:   -5.67 KCAL/MOL
REMARK 923 INTER-LIGAND FREE ENERGY PREDICTED BY IDOCK:   -4.77 KCAL/MOL
REMARK 924 INTRA-LIGAND FREE ENERGY PREDICTED BY IDOCK:   -0.90 KCAL/MOL
REMARK 927      BINDING AFFINITY PREDICTED BY RF-SCORE:    0.00 PKD
ROOT
HETATM    1  C   UNL     1     -11.826   9.081  71.575  1.00  0.00    -0.415 C  
HETATM    2  C   UNL     1     -11.095   7.761  71.414  1.00  0.00    -0.268 C  
ENDROOT
BRANCH   2   3
HETATM    3  C   UNL     1     -11.903   6.793  70.544  1.00  0.00    -0.418 C  
BRANCH   3   4
HETATM    4  C   UNL     1     -10.996   6.065  69.564  1.00  0.00    -0.397 C  
BRANCH   4   5
HETATM    5  N   UNL     1     -11.339   6.369  68.177  1.00  0.00    -0.562 NA 
HETATM    6  H   UNL     1     -12.293   6.637  67.933  1.00  0.00     0.000 HD 
BRANCH   5   7
HETATM    7  C   UNL     1     -10.362   6.292  67.188  1.00  0.00    -0.229 A  
HETATM    8  C   UNL     1      -9.834   7.422  66.525  1.00  0.00    -0.139 A  
HETATM    9  C   UNL     1      -8.281   3.461  65.781  1.00  0.00    -0.094 C  
HETATM   10  C   UNL     1      -8.780   7.233  65.601  1.00  0.00    -0.070 A  
HETATM   11  O   UNL     1      -7.778   3.197  64.562  1.00  0.00    -0.075 OA 
HETATM   12  O   UNL     1      -8.349   2.625  66.667  1.00  0.00    -0.083 OA 
HETATM   13  C   UNL     1      -8.249   5.957  65.324  1.00  0.00    -0.141 A  
HETATM   14  C   UNL     1      -8.789   4.845  65.956  1.00  0.00    -0.126 A  
HETATM   15  C   UNL     1      -9.824   5.027  66.871  1.00  0.00    -0.209 A  
BRANCH   8  16
HETATM   16  O   UNL     1     -10.424   8.668  66.583  1.00  0.00    -0.277 OA 
BRANCH  16  17
HETATM   17  C   UNL     1      -9.933   9.698  67.352  1.00  0.00    -0.187 A  
HETATM   18  C   UNL     1      -8.723  10.217  69.405  1.00  0.00    -0.186 A  
HETATM   19  C   UNL     1      -8.733  11.574  69.073  1.00  0.00     0.134 A  
HETATM   20  C   UNL     1      -9.982  11.057  67.056  1.00  0.00    -0.223 A  
HETATM   21  C   UNL     1      -9.313   9.287  68.544  1.00  0.00    -0.143 A  
HETATM   22  C   UNL     1      -9.360  11.987  67.902  1.00  0.00    -0.190 A  
ENDBRANCH  16  17
ENDBRANCH   8  16
BRANCH  10  23
HETATM   23  S   UNL     1      -8.041   8.608  64.773  1.00  0.00    -0.156 S  
HETATM   24  O   UNL     1      -7.207   9.343  65.695  1.00  0.00    -0.088 OA 
HETATM   25  H2  UNL     1      -6.901   6.886  63.475  1.00  0.00     0.000 HD 
HETATM   26  H1  UNL     1      -6.620   8.675  63.167  1.00  0.00     0.000 HD 
HETATM   27  N   UNL     1      -7.047   7.882  63.645  1.00  0.00    -0.075 N  
HETATM   28  O   UNL     1      -9.065   9.272  63.991  1.00  0.00    -0.154 OA 
ENDBRANCH  10  23
ENDBRANCH   5   7
ENDBRANCH   4   5
ENDBRANCH   3   4
ENDBRANCH   2   3
TORSDOF 7
ENDMDL
MODEL      168
REMARK 921   NORMALIZED FREE ENERGY PREDICTED BY IDOCK:   -3.46 KCAL/MOL
REMARK 922        TOTAL FREE ENERGY PREDICTED BY IDOCK:   -5.64 KCAL/MOL
REMARK 923 INTER-LIGAND FREE ENERGY PREDICTED BY IDOCK:   -4.41 KCAL/MOL
REMARK 924 INTRA-LIGAND FREE ENERGY PREDICTED BY IDOCK:   -1.23 KCAL/MOL
REMARK 927      BINDING AFFINITY PREDICTED BY RF-SCORE:    0.00 PKD
ROOT
HETATM    1  C   UNL     1     -12.741   7.042  71.246  1.00  0.00    -0.400 C  
HETATM    2  C   UNL     1     -11.619   6.927  72.262  1.00  0.00    -0.309 C  
ENDROOT
BRANCH   2   3
HETATM    3  C   UNL     1     -11.009   8.301  72.559  1.00  0.00    -0.424 C  
BRANCH   3   4
HETATM    4  C   UNL     1      -9.527   8.175  72.876  1.00  0.00    -0.275 C  
BRANCH   4   5
HETATM    5  N   UNL     1      -8.828   7.352  71.893  1.00  0.00    -0.114 NA 
HETATM    6  H   UNL     1      -8.540   6.403  72.133  1.00  0.00     0.000 HD 
BRANCH   5   7
HETATM    7  C   UNL     1      -8.556   7.865  70.627  1.00  0.00    -0.130 A  
HETATM    8  C   UNL     1      -9.141   7.367  69.442  1.00  0.00    -0.139 A  
HETATM    9  C   UNL     1      -6.551  10.823  69.380  1.00  0.00    -0.085 C  
HETATM   10  C   UNL     1      -8.859   8.023  68.221  1.00  0.00    -0.133 A  
HETATM   11  O   UNL     1      -5.825  11.049  68.271  1.00  0.00    -0.046 OA 
HETATM   12  O   UNL     1      -6.483  11.527  70.374  1.00  0.00    -0.239 OA 
HETATM   13  C   UNL     1      -8.014   9.149  68.156  1.00  0.00    -0.100 A  
HETATM   14  C   UNL     1      -7.418   9.619  69.318  1.00  0.00    -0.085 A  
HETATM   15  C   UNL     1      -7.696   8.979  70.524  1.00  0.00    -0.123 A  
BRANCH   8  16
HETATM   16  O   UNL     1      -9.809   6.161  69.386  1.00  0.00    -0.150 OA 
BRANCH  16  17
HETATM   17  C   UNL     1      -9.194   4.949  69.601  1.00  0.00    -0.118 A  
HETATM   18  C   UNL     1      -9.272   2.912  70.938  1.00  0.00    -0.207 A  
HETATM   19  C   UNL     1      -8.218   2.377  70.193  1.00  0.00    -0.064 A  
HETATM   20  C   UNL     1      -8.112   4.427  68.897  1.00  0.00    -0.072 A  
HETATM   21  C   UNL     1      -9.758   4.186  70.637  1.00  0.00    -0.273 A  
HETATM   22  C   UNL     1      -7.645   3.134  69.176  1.00  0.00    -0.048 A  
ENDBRANCH  16  17
ENDBRANCH   8  16
BRANCH  10  23
HETATM   23  S   UNL     1      -9.598   7.482  66.709  1.00  0.00    -0.211 S  
HETATM   24  O   UNL     1     -11.028   7.377  66.874  1.00  0.00    -0.324 OA 
HETATM   25  H2  UNL     1      -8.797   9.622  65.853  1.00  0.00     0.000 HD 
HETATM   26  H1  UNL     1      -9.716   8.437  64.792  1.00  0.00     0.000 HD 
HETATM   27  N   UNL     1      -9.290   8.749  65.664  1.00  0.00    -0.191 N  
HETATM   28  O   UNL     1      -8.816   6.378  66.192  1.00  0.00    -0.145 OA 
ENDBRANCH  10  23
ENDBRANCH   5   7
ENDBRANCH   4   5
ENDBRANCH   3   4
ENDBRANCH   2   3
TORSDOF 7
ENDMDL
MODEL      169
REMARK 921   NORMALIZED FREE ENERGY PREDICTED BY IDOCK:   -3.45 KCAL/MOL
REMARK 922        TOTAL FREE ENERGY PREDICTED BY IDOCK:   -5.63 KCAL/MOL
REMARK 923 INTER-LIGAND FREE ENERGY PREDICTED BY IDOCK:   -5.08 KCAL/MOL
REMARK 924 INTRA-LIGAND FREE ENERGY PREDICTED BY IDOCK:   -0.55 KCAL/MOL
REMARK 927      BINDING AFFINITY PREDICTED BY RF-SCORE:    0.00 PKD
ROOT
HETATM    1  C   UNL     1      -9.511   3.692  67.433  1.00  0.00    -0.238 C  
HETATM    2  C   UNL     1     -10.156   4.577  66.382  1.00  0.00    -0.271 C  
ENDROOT
BRANCH   2   3
HETATM    3  C   UNL     1     -10.715   5.856  67.014  1.00  0.00    -0.396 C  
BRANCH   3   4
HETATM    4  C   UNL     1     -10.002   7.082  66.467  1.00  0.00    -0.093 C  
BRANCH   4   5
HETATM    5  N   UNL     1      -8.941   7.539  67.361  1.00  0.00    -0.126 NA 
HETATM    6  H   UNL     1      -8.102   7.976  66.978  1.00  0.00     0.000 HD 
BRANCH   5   7
HETATM    7  C   UNL     1      -9.076   7.377  68.737  1.00  0.00    -0.131 A  
HETATM    8  C   UNL     1     -10.099   7.985  69.497  1.00  0.00    -0.196 A  
HETATM    9  C   UNL     1      -7.303   5.233  71.304  1.00  0.00    -0.082 C  
HETATM   10  C   UNL     1     -10.192   7.678  70.875  1.00  0.00    -0.199 A  
HETATM   11  O   UNL     1      -6.996   5.404  72.602  1.00  0.00    -0.077 OA 
HETATM   12  O   UNL     1      -6.803   4.362  70.611  1.00  0.00    -0.035 OA 
HETATM   13  C   UNL     1      -9.296   6.791  71.505  1.00  0.00    -0.153 A  
HETATM   14  C   UNL     1      -8.274   6.217  70.761  1.00  0.00    -0.125 A  
HETATM   15  C   UNL     1      -8.181   6.512  69.403  1.00  0.00    -0.119 A  
BRANCH   8  16
HETATM   16  O   UNL     1     -10.884   9.011  69.011  1.00  0.00    -0.179 OA 
BRANCH  16  17
HETATM   17  C   UNL     1     -10.365  10.156  68.453  1.00  0.00    -0.183 A  
HETATM   18  C   UNL     1     -10.660  11.780  66.658  1.00  0.00    -0.275 A  
HETATM   19  C   UNL     1      -9.600  12.537  67.162  1.00  0.00    -0.208 A  
HETATM   20  C   UNL     1      -9.277  10.891  68.918  1.00  0.00    -0.168 A  
HETATM   21  C   UNL     1     -11.042  10.602  67.306  1.00  0.00    -0.313 A  
HETATM   22  C   UNL     1      -8.916  12.091  68.288  1.00  0.00    -0.186 A  
ENDBRANCH  16  17
ENDBRANCH   8  16
BRANCH  10  23
HETATM   23  S   UNL     1     -11.478   8.366  71.873  1.00  0.00    -0.345 S  
HETATM   24  O   UNL     1     -11.604   9.779  71.603  1.00  0.00    -0.375 OA 
HETATM   25  H2  UNL     1     -12.928   6.915  70.552  1.00  0.00     0.000 HD 
HETATM   26  H1  UNL     1     -13.593   8.003  71.873  1.00  0.00     0.000 HD 
HETATM   27  N   UNL     1     -12.851   7.606  71.297  1.00  0.00    -0.296 N  
HETATM   28  O   UNL     1     -11.319   7.868  73.224  1.00  0.00    -0.312 OA 
ENDBRANCH  10  23
ENDBRANCH   5   7
ENDBRANCH   4   5
ENDBRANCH   3   4
ENDBRANCH   2   3
TORSDOF 7
ENDMDL
MODEL      170
REMARK 921   NORMALIZED FREE ENERGY PREDICTED BY IDOCK:   -3.45 KCAL/MOL
REMARK 922        TOTAL FREE ENERGY PREDICTED BY IDOCK:   -5.62 KCAL/MOL
REMARK 923 INTER-LIGAND FREE ENERGY PREDICTED BY IDOCK:   -4.19 KCAL/MOL
REMARK 924 INTRA-LIGAND FREE ENERGY PREDICTED BY IDOCK:   -1.43 KCAL/MOL
REMARK 927      BINDING AFFINITY PREDICTED BY RF-SCORE:    0.00 PKD
ROOT
HETATM    1  C   UNL     1      -6.200   8.155  65.257  1.00  0.00    -0.045 C  
HETATM    2  C   UNL     1      -5.875   9.633  65.372  1.00  0.00    -0.065 C  
ENDROOT
BRANCH   2   3
HETATM    3  C   UNL     1      -5.514  10.002  66.814  1.00  0.00    -0.045 C  
BRANCH   3   4
HETATM    4  C   UNL     1      -6.262  11.250  67.256  1.00  0.00    -0.081 C  
BRANCH   4   5
HETATM    5  N   UNL     1      -6.821  11.104  68.597  1.00  0.00    -0.064 NA 
HETATM    6  H   UNL     1      -6.203  11.077  69.408  1.00  0.00     0.000 HD 
BRANCH   5   7
HETATM    7  C   UNL     1      -8.199  11.002  68.767  1.00  0.00    -0.146 A  
HETATM    8  C   UNL     1      -8.812  10.055  69.616  1.00  0.00    -0.199 A  
HETATM    9  C   UNL     1     -11.141  13.052  67.556  1.00  0.00    -0.268 C  
HETATM   10  C   UNL     1     -10.216  10.101  69.780  1.00  0.00    -0.247 A  
HETATM   11  O   UNL     1     -12.406  12.747  67.217  1.00  0.00    -0.335 OA 
HETATM   12  O   UNL     1     -10.616  14.117  67.277  1.00  0.00    -0.273 OA 
HETATM   13  C   UNL     1     -11.014  11.058  69.120  1.00  0.00    -0.289 A  
HETATM   14  C   UNL     1     -10.412  11.970  68.264  1.00  0.00    -0.218 A  
HETATM   15  C   UNL     1      -9.028  11.932  68.104  1.00  0.00    -0.185 A  
BRANCH   8  16
HETATM   16  O   UNL     1      -8.139   8.967  70.134  1.00  0.00    -0.099 OA 
BRANCH  16  17
HETATM   17  C   UNL     1      -7.712   7.910  69.364  1.00  0.00    -0.105 A  
HETATM   18  C   UNL     1      -5.932   6.265  69.093  1.00  0.00    -0.021 A  
HETATM   19  C   UNL     1      -6.638   5.667  68.046  1.00  0.00    -0.053 A  
HETATM   20  C   UNL     1      -8.383   7.338  68.287  1.00  0.00    -0.125 A  
HETATM   21  C   UNL     1      -6.472   7.374  69.750  1.00  0.00    -0.035 A  
HETATM   22  C   UNL     1      -7.859   6.204  67.650  1.00  0.00    -0.105 A  
ENDBRANCH  16  17
ENDBRANCH   8  16
BRANCH  10  23
HETATM   23  S   UNL     1     -11.041   8.977  70.865  1.00  0.00    -0.304 S  
HETATM   24  O   UNL     1     -10.358   8.935  72.137  1.00  0.00    -0.333 OA 
HETATM   25  H2  UNL     1     -12.875  10.578  70.713  1.00  0.00     0.000 HD 
HETATM   26  H1  UNL     1     -13.004   9.052  71.727  1.00  0.00     0.000 HD 
HETATM   27  N   UNL     1     -12.528   9.700  71.101  1.00  0.00    -0.324 N  
HETATM   28  O   UNL     1     -11.332   7.764  70.127  1.00  0.00    -0.225 OA 
ENDBRANCH  10  23
ENDBRANCH   5   7
ENDBRANCH   4   5
ENDBRANCH   3   4
ENDBRANCH   2   3
TORSDOF 7
ENDMDL
MODEL      171
REMARK 921   NORMALIZED FREE ENERGY PREDICTED BY IDOCK:   -3.43 KCAL/MOL
REMARK 922        TOTAL FREE ENERGY PREDICTED BY IDOCK:   -5.59 KCAL/MOL
REMARK 923 INTER-LIGAND FREE ENERGY PREDICTED BY IDOCK:   -4.36 KCAL/MOL
REMARK 924 INTRA-LIGAND FREE ENERGY PREDICTED BY IDOCK:   -1.23 KCAL/MOL
REMARK 927      BINDING AFFINITY PREDICTED BY RF-SCORE:    0.00 PKD
ROOT
HETATM    1  C   UNL     1      -9.041  14.612  66.959  1.00  0.00    -0.254 C  
HETATM    2  C   UNL     1      -8.465  13.941  68.193  1.00  0.00    -0.171 C  
ENDROOT
BRANCH   2   3
HETATM    3  C   UNL     1      -7.051  13.419  67.921  1.00  0.00    -0.137 C  
BRANCH   3   4
HETATM    4  C   UNL     1      -6.515  12.661  69.125  1.00  0.00    -0.106 C  
BRANCH   4   5
HETATM    5  N   UNL     1      -6.544  11.216  68.916  1.00  0.00    -0.059 NA 
HETATM    6  H   UNL     1      -6.034  10.802  68.135  1.00  0.00     0.000 HD 
BRANCH   5   7
HETATM    7  C   UNL     1      -7.269  10.404  69.784  1.00  0.00    -0.154 A  
HETATM    8  C   UNL     1      -8.628  10.072  69.589  1.00  0.00    -0.184 A  
HETATM    9  C   UNL     1      -6.352   8.370  72.841  1.00  0.00    -0.094 C  
HETATM   10  C   UNL     1      -9.239   9.167  70.487  1.00  0.00    -0.241 A  
HETATM   11  O   UNL     1      -7.007   8.048  73.971  1.00  0.00    -0.116 OA 
HETATM   12  O   UNL     1      -5.147   8.236  72.710  1.00  0.00    -0.036 OA 
HETATM   13  C   UNL     1      -8.535   8.594  71.566  1.00  0.00    -0.238 A  
HETATM   14  C   UNL     1      -7.208   8.944  71.771  1.00  0.00    -0.023 A  
HETATM   15  C   UNL     1      -6.600   9.832  70.886  1.00  0.00    -0.048 A  
BRANCH   8  16
HETATM   16  O   UNL     1      -9.440  10.736  68.692  1.00  0.00    -0.172 OA 
BRANCH  16  17
HETATM   17  C   UNL     1      -9.469  10.445  67.347  1.00  0.00    -0.149 A  
HETATM   18  C   UNL     1     -10.442  11.106  65.211  1.00  0.00    -0.326 A  
HETATM   19  C   UNL     1      -9.655  10.158  64.554  1.00  0.00    -0.376 A  
HETATM   20  C   UNL     1      -8.726   9.469  66.689  1.00  0.00    -0.146 A  
HETATM   21  C   UNL     1     -10.342  11.250  66.598  1.00  0.00    -0.279 A  
HETATM   22  C   UNL     1      -8.800   9.347  65.293  1.00  0.00    -0.227 A  
ENDBRANCH  16  17
ENDBRANCH   8  16
BRANCH  10  23
HETATM   23  S   UNL     1     -10.922   8.671  70.272  1.00  0.00    -0.213 S  
HETATM   24  O   UNL     1     -11.029   7.786  69.136  1.00  0.00    -0.108 OA 
HETATM   25  H2  UNL     1     -10.606   7.575  72.428  1.00  0.00     0.000 HD 
HETATM   26  H1  UNL     1     -12.205   7.495  71.527  1.00  0.00     0.000 HD 
HETATM   27  N   UNL     1     -11.234   7.781  71.651  1.00  0.00    -0.243 N  
HETATM   28  O   UNL     1     -11.761   9.846  70.392  1.00  0.00    -0.262 OA 
ENDBRANCH  10  23
ENDBRANCH   5   7
ENDBRANCH   4   5
ENDBRANCH   3   4
ENDBRANCH   2   3
TORSDOF 7
ENDMDL
MODEL      172
REMARK 921   NORMALIZED FREE ENERGY PREDICTED BY IDOCK:   -3.39 KCAL/MOL
REMARK 922        TOTAL FREE ENERGY PREDICTED BY IDOCK:   -5.54 KCAL/MOL
REMARK 923 INTER-LIGAND FREE ENERGY PREDICTED BY IDOCK:   -5.36 KCAL/MOL
REMARK 924 INTRA-LIGAND FREE ENERGY PREDICTED BY IDOCK:   -0.18 KCAL/MOL
REMARK 927      BINDING AFFINITY PREDICTED BY RF-SCORE:    0.00 PKD
ROOT
HETATM    1  C   UNL     1      -6.626  11.778  69.447  1.00  0.00    -0.113 C  
HETATM    2  C   UNL     1      -7.357  11.960  68.129  1.00  0.00    -0.092 C  
ENDROOT
BRANCH   2   3
HETATM    3  C   UNL     1      -7.039  10.813  67.165  1.00  0.00    -0.099 C  
BRANCH   3   4
HETATM    4  C   UNL     1      -7.311   9.468  67.819  1.00  0.00    -0.083 C  
BRANCH   4   5
HETATM    5  N   UNL     1      -8.616   8.932  67.438  1.00  0.00    -0.119 NA 
HETATM    6  H   UNL     1      -9.051   9.220  66.562  1.00  0.00     0.000 HD 
BRANCH   5   7
HETATM    7  C   UNL     1      -9.264   8.026  68.274  1.00  0.00    -0.134 A  
HETATM    8  C   UNL     1     -10.124   8.412  69.325  1.00  0.00    -0.202 A  
HETATM    9  C   UNL     1      -9.548   4.252  68.319  1.00  0.00    -0.135 C  
HETATM   10  C   UNL     1     -10.799   7.405  70.052  1.00  0.00    -0.252 A  
HETATM   11  O   UNL     1      -9.657   3.342  69.303  1.00  0.00    -0.173 OA 
HETATM   12  O   UNL     1      -9.261   3.958  67.170  1.00  0.00    -0.147 OA 
HETATM   13  C   UNL     1     -10.634   6.035  69.761  1.00  0.00    -0.356 A  
HETATM   14  C   UNL     1      -9.765   5.657  68.747  1.00  0.00    -0.178 A  
HETATM   15  C   UNL     1      -9.102   6.647  68.023  1.00  0.00    -0.114 A  
BRANCH   8  16
HETATM   16  O   UNL     1     -10.187   9.705  69.805  1.00  0.00    -0.205 OA 
BRANCH  16  17
HETATM   17  C   UNL     1     -10.800  10.731  69.124  1.00  0.00    -0.237 A  
HETATM   18  C   UNL     1     -11.787  12.947  69.375  1.00  0.00    -0.371 A  
HETATM   19  C   UNL     1     -11.976  13.024  67.993  1.00  0.00    -0.335 A  
HETATM   20  C   UNL     1     -11.039  10.797  67.754  1.00  0.00    -0.381 A  
HETATM   21  C   UNL     1     -11.196  11.809  69.932  1.00  0.00    -0.093 A  
HETATM   22  C   UNL     1     -11.600  11.953  67.190  1.00  0.00    -0.363 A  
ENDBRANCH  16  17
ENDBRANCH   8  16
BRANCH  10  23
HETATM   23  S   UNL     1     -11.928   7.821  71.346  1.00  0.00    -0.314 S  
HETATM   24  O   UNL     1     -12.569   6.625  71.839  1.00  0.00    -0.350 OA 
HETATM   25  H2  UNL     1      -9.911   8.496  72.540  1.00  0.00     0.000 HD 
HETATM   26  H1  UNL     1     -11.578   8.644  73.296  1.00  0.00     0.000 HD 
HETATM   27  N   UNL     1     -10.927   8.404  72.550  1.00  0.00    -0.355 N  
HETATM   28  O   UNL     1     -12.703   8.970  70.921  1.00  0.00    -0.156 OA 
ENDBRANCH  10  23
ENDBRANCH   5   7
ENDBRANCH   4   5
ENDBRANCH   3   4
ENDBRANCH   2   3
TORSDOF 7
ENDMDL
MODEL      173
REMARK 921   NORMALIZED FREE ENERGY PREDICTED BY IDOCK:   -3.37 KCAL/MOL
REMARK 922        TOTAL FREE ENERGY PREDICTED BY IDOCK:   -5.51 KCAL/MOL
REMARK 923 INTER-LIGAND FREE ENERGY PREDICTED BY IDOCK:   -4.94 KCAL/MOL
REMARK 924 INTRA-LIGAND FREE ENERGY PREDICTED BY IDOCK:   -0.57 KCAL/MOL
REMARK 927      BINDING AFFINITY PREDICTED BY RF-SCORE:    0.00 PKD
ROOT
HETATM    1  C   UNL     1      -6.390   7.622  72.831  1.00  0.00    -0.061 C  
HETATM    2  C   UNL     1      -7.566   6.799  72.339  1.00  0.00    -0.093 C  
ENDROOT
BRANCH   2   3
HETATM    3  C   UNL     1      -8.733   7.703  71.929  1.00  0.00    -0.138 C  
BRANCH   3   4
HETATM    4  C   UNL     1      -8.342   8.589  70.757  1.00  0.00    -0.139 C  
BRANCH   4   5
HETATM    5  N   UNL     1      -9.364   9.592  70.469  1.00  0.00    -0.326 NA 
HETATM    6  H   UNL     1     -10.252   9.576  70.970  1.00  0.00     0.000 HD 
BRANCH   5   7
HETATM    7  C   UNL     1      -9.123  10.571  69.508  1.00  0.00    -0.040 A  
HETATM    8  C   UNL     1     -10.148  11.296  68.860  1.00  0.00    -0.170 A  
HETATM    9  C   UNL     1      -5.982  12.193  68.157  1.00  0.00    -0.055 C  
HETATM   10  C   UNL     1      -9.784  12.329  67.966  1.00  0.00    -0.205 A  
HETATM   11  O   UNL     1      -5.634  12.680  66.953  1.00  0.00    -0.326 OA 
HETATM   12  O   UNL     1      -5.173  11.963  69.041  1.00  0.00    -0.051 OA 
HETATM   13  C   UNL     1      -8.437  12.650  67.703  1.00  0.00    -0.173 A  
HETATM   14  C   UNL     1      -7.432  11.916  68.319  1.00  0.00    -0.104 A  
HETATM   15  C   UNL     1      -7.786  10.901  69.205  1.00  0.00    -0.127 A  
BRANCH   8  16
HETATM   16  O   UNL     1     -11.475  10.918  68.903  1.00  0.00    -0.255 OA 
BRANCH  16  17
HETATM   17  C   UNL     1     -12.186  10.802  70.075  1.00  0.00    -0.334 A  
HETATM   18  C   UNL     1     -13.132  12.060  71.936  1.00  0.00    -0.475 A  
HETATM   19  C   UNL     1     -13.705  10.891  72.442  1.00  0.00     0.357 A  
HETATM   20  C   UNL     1     -12.719   9.634  70.614  1.00  0.00    -0.095 A  
HETATM   21  C   UNL     1     -12.385  12.013  70.757  1.00  0.00    -0.403 A  
HETATM   22  C   UNL     1     -13.498   9.686  71.779  1.00  0.00    -0.477 A  
ENDBRANCH  16  17
ENDBRANCH   8  16
BRANCH  10  23
HETATM   23  S   UNL     1     -11.016  13.308  67.160  1.00  0.00    -0.277 S  
HETATM   24  O   UNL     1     -11.747  14.076  68.140  1.00  0.00    -0.313 OA 
HETATM   25  H2  UNL     1      -9.098  14.438  66.163  1.00  0.00     0.000 HD 
HETATM   26  H1  UNL     1     -10.823  14.935  65.776  1.00  0.00     0.000 HD 
HETATM   27  N   UNL     1     -10.113  14.370  66.241  1.00  0.00    -0.286 N  
HETATM   28  O   UNL     1     -11.700  12.472  66.195  1.00  0.00    -0.377 OA 
ENDBRANCH  10  23
ENDBRANCH   5   7
ENDBRANCH   4   5
ENDBRANCH   3   4
ENDBRANCH   2   3
TORSDOF 7
ENDMDL
MODEL      174
REMARK 921   NORMALIZED FREE ENERGY PREDICTED BY IDOCK:   -3.35 KCAL/MOL
REMARK 922        TOTAL FREE ENERGY PREDICTED BY IDOCK:   -5.48 KCAL/MOL
REMARK 923 INTER-LIGAND FREE ENERGY PREDICTED BY IDOCK:   -5.37 KCAL/MOL
REMARK 924 INTRA-LIGAND FREE ENERGY PREDICTED BY IDOCK:   -0.11 KCAL/MOL
REMARK 927      BINDING AFFINITY PREDICTED BY RF-SCORE:    0.00 PKD
ROOT
HETATM    1  C   UNL     1     -13.694   9.747  72.173  1.00  0.00    -0.350 C  
HETATM    2  C   UNL     1     -12.566   9.369  71.231  1.00  0.00    -0.403 C  
ENDROOT
BRANCH   2   3
HETATM    3  C   UNL     1     -11.481   8.579  71.968  1.00  0.00    -0.431 C  
BRANCH   3   4
HETATM    4  C   UNL     1     -10.812   7.582  71.036  1.00  0.00    -0.235 C  
BRANCH   4   5
HETATM    5  N   UNL     1      -9.590   8.123  70.446  1.00  0.00    -0.170 NA 
HETATM    6  H   UNL     1      -8.777   8.308  71.033  1.00  0.00     0.000 HD 
BRANCH   5   7
HETATM    7  C   UNL     1      -9.537   8.385  69.079  1.00  0.00    -0.160 A  
HETATM    8  C   UNL     1      -8.878   7.549  68.151  1.00  0.00    -0.127 A  
HETATM    9  C   UNL     1     -11.128  11.000  66.854  1.00  0.00    -0.213 C  
HETATM   10  C   UNL     1      -8.964   7.866  66.775  1.00  0.00    -0.145 A  
HETATM   11  O   UNL     1     -10.732  11.629  65.734  1.00  0.00    -0.266 OA 
HETATM   12  O   UNL     1     -12.067  11.381  67.534  1.00  0.00    -0.592 OA 
HETATM   13  C   UNL     1      -9.683   8.987  66.310  1.00  0.00    -0.345 A  
HETATM   14  C   UNL     1     -10.305   9.822  67.228  1.00  0.00    -0.308 A  
HETATM   15  C   UNL     1     -10.227   9.511  68.584  1.00  0.00    -0.215 A  
BRANCH   8  16
HETATM   16  O   UNL     1      -7.993   6.560  68.529  1.00  0.00    -0.107 OA 
BRANCH  16  17
HETATM   17  C   UNL     1      -8.270   5.641  69.515  1.00  0.00    -0.103 A  
HETATM   18  C   UNL     1      -9.624   3.688  70.062  1.00  0.00    -0.244 A  
HETATM   19  C   UNL     1      -8.968   3.571  71.290  1.00  0.00    -0.158 A  
HETATM   20  C   UNL     1      -7.657   5.546  70.761  1.00  0.00    -0.090 A  
HETATM   21  C   UNL     1      -9.270   4.713  69.181  1.00  0.00    -0.184 A  
HETATM   22  C   UNL     1      -7.988   4.497  71.632  1.00  0.00    -0.100 A  
ENDBRANCH  16  17
ENDBRANCH   8  16
BRANCH  10  23
HETATM   23  S   UNL     1      -8.205   6.836  65.556  1.00  0.00    -0.128 S  
HETATM   24  O   UNL     1      -8.265   7.480  64.266  1.00  0.00    -0.103 OA 
HETATM   25  H2  UNL     1      -6.174   7.252  66.842  1.00  0.00     0.000 HD 
HETATM   26  H1  UNL     1      -6.168   6.200  65.336  1.00  0.00     0.000 HD 
HETATM   27  N   UNL     1      -6.606   6.794  66.039  1.00  0.00    -0.050 N  
HETATM   28  O   UNL     1      -8.684   5.481  65.745  1.00  0.00    -0.142 OA 
ENDBRANCH  10  23
ENDBRANCH   5   7
ENDBRANCH   4   5
ENDBRANCH   3   4
ENDBRANCH   2   3
TORSDOF 7
ENDMDL
MODEL      175
REMARK 921   NORMALIZED FREE ENERGY PREDICTED BY IDOCK:   -3.34 KCAL/MOL
REMARK 922        TOTAL FREE ENERGY PREDICTED BY IDOCK:   -5.47 KCAL/MOL
REMARK 923 INTER-LIGAND FREE ENERGY PREDICTED BY IDOCK:   -5.03 KCAL/MOL
REMARK 924 INTRA-LIGAND FREE ENERGY PREDICTED BY IDOCK:   -0.44 KCAL/MOL
REMARK 927      BINDING AFFINITY PREDICTED BY RF-SCORE:    0.00 PKD
ROOT
HETATM    1  C   UNL     1      -7.594   5.701  64.328  1.00  0.00    -0.080 C  
HETATM    2  C   UNL     1      -6.938   6.824  65.110  1.00  0.00    -0.055 C  
ENDROOT
BRANCH   2   3
HETATM    3  C   UNL     1      -7.655   8.154  64.861  1.00  0.00    -0.098 C  
BRANCH   3   4
HETATM    4  C   UNL     1      -8.827   8.322  65.815  1.00  0.00    -0.155 C  
BRANCH   4   5
HETATM    5  N   UNL     1      -8.395   8.347  67.210  1.00  0.00    -0.122 NA 
HETATM    6  H   UNL     1      -7.606   8.930  67.490  1.00  0.00     0.000 HD 
BRANCH   5   7
HETATM    7  C   UNL     1      -9.061   7.574  68.157  1.00  0.00    -0.128 A  
HETATM    8  C   UNL     1      -9.841   8.120  69.200  1.00  0.00    -0.182 A  
HETATM    9  C   UNL     1      -9.599   3.852  68.584  1.00  0.00    -0.111 C  
HETATM   10  C   UNL     1     -10.547   7.238  70.050  1.00  0.00    -0.233 A  
HETATM   11  O   UNL     1      -9.722   3.050  69.657  1.00  0.00    -0.088 OA 
HETATM   12  O   UNL     1      -9.389   3.430  67.459  1.00  0.00    -0.183 OA 
HETATM   13  C   UNL     1     -10.489   5.839  69.888  1.00  0.00    -0.360 A  
HETATM   14  C   UNL     1      -9.699   5.304  68.881  1.00  0.00    -0.207 A  
HETATM   15  C   UNL     1      -9.007   6.170  68.036  1.00  0.00    -0.113 A  
BRANCH   8  16
HETATM   16  O   UNL     1      -9.792   9.453  69.553  1.00  0.00    -0.167 OA 
BRANCH  16  17
HETATM   17  C   UNL     1     -10.062  10.475  68.672  1.00  0.00    -0.180 A  
HETATM   18  C   UNL     1      -9.236  12.602  67.811  1.00  0.00    -0.195 A  
HETATM   19  C   UNL     1     -10.291  12.646  66.896  1.00  0.00    -0.244 A  
HETATM   20  C   UNL     1     -11.137  10.554  67.790  1.00  0.00    -0.382 A  
HETATM   21  C   UNL     1      -9.122  11.519  68.686  1.00  0.00    -0.124 A  
HETATM   22  C   UNL     1     -11.233  11.623  66.888  1.00  0.00    -0.376 A  
ENDBRANCH  16  17
ENDBRANCH   8  16
BRANCH  10  23
HETATM   23  S   UNL     1     -11.580   7.856  71.344  1.00  0.00    -0.280 S  
HETATM   24  O   UNL     1     -12.439   6.801  71.830  1.00  0.00    -0.353 OA 
HETATM   25  H2  UNL     1      -9.475   8.130  72.545  1.00  0.00     0.000 HD 
HETATM   26  H1  UNL     1     -11.087   8.589  73.298  1.00  0.00     0.000 HD 
HETATM   27  N   UNL     1     -10.490   8.232  72.552  1.00  0.00    -0.333 N  
HETATM   28  O   UNL     1     -12.121   9.133  70.922  1.00  0.00    -0.283 OA 
ENDBRANCH  10  23
ENDBRANCH   5   7
ENDBRANCH   4   5
ENDBRANCH   3   4
ENDBRANCH   2   3
TORSDOF 7
ENDMDL
MODEL      176
REMARK 921   NORMALIZED FREE ENERGY PREDICTED BY IDOCK:   -3.33 KCAL/MOL
REMARK 922        TOTAL FREE ENERGY PREDICTED BY IDOCK:   -5.45 KCAL/MOL
REMARK 923 INTER-LIGAND FREE ENERGY PREDICTED BY IDOCK:   -5.38 KCAL/MOL
REMARK 924 INTRA-LIGAND FREE ENERGY PREDICTED BY IDOCK:   -0.07 KCAL/MOL
REMARK 927      BINDING AFFINITY PREDICTED BY RF-SCORE:    0.00 PKD
ROOT
HETATM    1  C   UNL     1     -10.204  10.990  65.098  1.00  0.00    -0.352 C  
HETATM    2  C   UNL     1     -11.006  11.413  66.315  1.00  0.00    -0.303 C  
ENDROOT
BRANCH   2   3
HETATM    3  C   UNL     1     -10.090  11.988  67.399  1.00  0.00    -0.206 C  
BRANCH   3   4
HETATM    4  C   UNL     1      -9.245  10.893  68.029  1.00  0.00    -0.156 C  
BRANCH   4   5
HETATM    5  N   UNL     1     -10.044   9.720  68.375  1.00  0.00    -0.160 NA 
HETATM    6  H   UNL     1     -11.035   9.823  68.595  1.00  0.00     0.000 HD 
BRANCH   5   7
HETATM    7  C   UNL     1      -9.451   8.461  68.403  1.00  0.00    -0.139 A  
HETATM    8  C   UNL     1      -9.471   7.615  69.534  1.00  0.00    -0.152 A  
HETATM    9  C   UNL     1      -7.763   6.306  65.789  1.00  0.00    -0.091 C  
HETATM   10  C   UNL     1      -8.914   6.320  69.420  1.00  0.00    -0.126 A  
HETATM   11  O   UNL     1      -6.753   5.419  65.830  1.00  0.00    -0.053 OA 
HETATM   12  O   UNL     1      -8.190   6.779  64.749  1.00  0.00    -0.121 OA 
HETATM   13  C   UNL     1      -8.340   5.856  68.219  1.00  0.00    -0.112 A  
HETATM   14  C   UNL     1      -8.296   6.700  67.118  1.00  0.00    -0.113 A  
HETATM   15  C   UNL     1      -8.849   7.975  67.223  1.00  0.00    -0.135 A  
BRANCH   8  16
HETATM   16  O   UNL     1      -9.824   8.056  70.793  1.00  0.00    -0.182 OA 
BRANCH  16  17
HETATM   17  C   UNL     1     -11.082   8.521  71.101  1.00  0.00    -0.260 A  
HETATM   18  C   UNL     1     -13.371   7.835  71.585  1.00  0.00    -0.386 A  
HETATM   19  C   UNL     1     -13.721   9.163  71.838  1.00  0.00    -0.485 A  
HETATM   20  C   UNL     1     -11.453   9.847  71.307  1.00  0.00    -0.435 A  
HETATM   21  C   UNL     1     -12.058   7.519  71.226  1.00  0.00    -0.351 A  
HETATM   22  C   UNL     1     -12.762  10.161  71.701  1.00  0.00    -0.549 A  
ENDBRANCH  16  17
ENDBRANCH   8  16
BRANCH  10  23
HETATM   23  S   UNL     1      -8.950   5.193  70.781  1.00  0.00    -0.137 S  
HETATM   24  O   UNL     1      -8.231   3.989  70.439  1.00  0.00    -0.057 OA 
HETATM   25  H2  UNL     1      -7.638   6.913  71.908  1.00  0.00     0.000 HD 
HETATM   26  H1  UNL     1      -8.103   5.346  72.746  1.00  0.00     0.000 HD 
HETATM   27  N   UNL     1      -8.082   5.996  71.961  1.00  0.00    -0.107 N  
HETATM   28  O   UNL     1     -10.306   5.141  71.291  1.00  0.00    -0.217 OA 
ENDBRANCH  10  23
ENDBRANCH   5   7
ENDBRANCH   4   5
ENDBRANCH   3   4
ENDBRANCH   2   3
TORSDOF 7
ENDMDL
MODEL      177
REMARK 921   NORMALIZED FREE ENERGY PREDICTED BY IDOCK:   -3.28 KCAL/MOL
REMARK 922        TOTAL FREE ENERGY PREDICTED BY IDOCK:   -5.38 KCAL/MOL
REMARK 923 INTER-LIGAND FREE ENERGY PREDICTED BY IDOCK:   -4.67 KCAL/MOL
REMARK 924 INTRA-LIGAND FREE ENERGY PREDICTED BY IDOCK:   -0.71 KCAL/MOL
REMARK 927      BINDING AFFINITY PREDICTED BY RF-SCORE:    0.00 PKD
ROOT
HETATM    1  C   UNL     1     -13.278  12.295  64.204  1.00  0.00     0.062 C  
HETATM    2  C   UNL     1     -12.277  11.816  63.168  1.00  0.00    -0.273 C  
ENDROOT
BRANCH   2   3
HETATM    3  C   UNL     1     -10.871  12.333  63.487  1.00  0.00    -0.508 C  
BRANCH   3   4
HETATM    4  C   UNL     1     -10.868  13.120  64.788  1.00  0.00    -0.352 C  
BRANCH   4   5
HETATM    5  N   UNL     1      -9.595  13.801  65.009  1.00  0.00    -0.445 NA 
HETATM    6  H   UNL     1      -8.957  13.959  64.228  1.00  0.00     0.000 HD 
BRANCH   5   7
HETATM    7  C   UNL     1      -9.253  14.234  66.287  1.00  0.00    -0.151 A  
HETATM    8  C   UNL     1      -8.198  13.677  67.043  1.00  0.00    -0.037 A  
HETATM    9  C   UNL     1     -10.429  17.083  68.484  1.00  0.00    -0.373 C  
HETATM   10  C   UNL     1      -7.883  14.256  68.294  1.00  0.00    -0.141 A  
HETATM   11  O   UNL     1     -10.567  17.233  69.813  1.00  0.00    -0.142 OA 
HETATM   12  O   UNL     1     -10.934  17.843  67.673  1.00  0.00    -0.310 OA 
HETATM   13  C   UNL     1      -8.591  15.364  68.804  1.00  0.00    -0.190 A  
HETATM   14  C   UNL     1      -9.645  15.891  68.072  1.00  0.00    -0.211 A  
HETATM   15  C   UNL     1      -9.956  15.327  66.836  1.00  0.00    -0.243 A  
BRANCH   8  16
HETATM   16  O   UNL     1      -7.593  12.480  66.717  1.00  0.00     0.016 OA 
BRANCH  16  17
HETATM   17  C   UNL     1      -8.255  11.274  66.733  1.00  0.00    -0.158 A  
HETATM   18  C   UNL     1     -10.178  10.096  67.661  1.00  0.00    -0.246 A  
HETATM   19  C   UNL     1      -9.873   8.976  66.883  1.00  0.00    -0.288 A  
HETATM   20  C   UNL     1      -7.931  10.136  66.000  1.00  0.00    -0.124 A  
HETATM   21  C   UNL     1      -9.376  11.238  67.578  1.00  0.00    -0.166 A  
HETATM   22  C   UNL     1      -8.755   9.002  66.056  1.00  0.00    -0.184 A  
ENDBRANCH  16  17
ENDBRANCH   8  16
BRANCH  10  23
HETATM   23  S   UNL     1      -6.543  13.640  69.268  1.00  0.00    -0.091 S  
HETATM   24  O   UNL     1      -5.289  13.942  68.621  1.00  0.00    -0.080 OA 
HETATM   25  H2  UNL     1      -7.306  15.289  70.896  1.00  0.00     0.000 HD 
HETATM   26  H1  UNL     1      -5.865  14.198  71.225  1.00  0.00     0.000 HD 
HETATM   27  N   UNL     1      -6.638  14.554  70.663  1.00  0.00    -0.018 N  
HETATM   28  O   UNL     1      -6.869  12.291  69.687  1.00  0.00    -0.014 OA 
ENDBRANCH  10  23
ENDBRANCH   5   7
ENDBRANCH   4   5
ENDBRANCH   3   4
ENDBRANCH   2   3
TORSDOF 7
ENDMDL
MODEL      178
REMARK 921   NORMALIZED FREE ENERGY PREDICTED BY IDOCK:   -3.26 KCAL/MOL
REMARK 922        TOTAL FREE ENERGY PREDICTED BY IDOCK:   -5.35 KCAL/MOL
REMARK 923 INTER-LIGAND FREE ENERGY PREDICTED BY IDOCK:   -4.94 KCAL/MOL
REMARK 924 INTRA-LIGAND FREE ENERGY PREDICTED BY IDOCK:   -0.41 KCAL/MOL
REMARK 927      BINDING AFFINITY PREDICTED BY RF-SCORE:    0.00 PKD
ROOT
HETATM    1  C   UNL     1      -8.867   9.512  64.004  1.00  0.00    -0.243 C  
HETATM    2  C   UNL     1      -7.910   8.958  65.044  1.00  0.00    -0.112 C  
ENDROOT
BRANCH   2   3
HETATM    3  C   UNL     1      -8.666   8.162  66.113  1.00  0.00    -0.179 C  
BRANCH   3   4
HETATM    4  C   UNL     1      -9.727   9.024  66.777  1.00  0.00    -0.216 C  
BRANCH   4   5
HETATM    5  N   UNL     1      -9.387   9.335  68.163  1.00  0.00    -0.134 NA 
HETATM    6  H   UNL     1      -8.518   8.984  68.567  1.00  0.00     0.000 HD 
BRANCH   5   7
HETATM    7  C   UNL     1     -10.251  10.110  68.932  1.00  0.00    -0.199 A  
HETATM    8  C   UNL     1     -10.352  11.514  68.814  1.00  0.00    -0.196 A  
HETATM    9  C   UNL     1     -12.956   9.296  71.450  1.00  0.00    -0.326 C  
HETATM   10  C   UNL     1     -11.328  12.189  69.584  1.00  0.00    -0.153 A  
HETATM   11  O   UNL     1     -13.406   9.910  72.559  1.00  0.00    -0.313 OA 
HETATM   12  O   UNL     1     -13.222   8.137  71.178  1.00  0.00    -0.172 OA 
HETATM   13  C   UNL     1     -12.192  11.504  70.461  1.00  0.00    -0.469 A  
HETATM   14  C   UNL     1     -12.071  10.128  70.596  1.00  0.00    -0.411 A  
HETATM   15  C   UNL     1     -11.115   9.458  69.836  1.00  0.00    -0.223 A  
BRANCH   8  16
HETATM   16  O   UNL     1      -9.421  12.278  68.141  1.00  0.00    -0.203 OA 
BRANCH  16  17
HETATM   17  C   UNL     1      -8.143  12.490  68.606  1.00  0.00    -0.013 A  
HETATM   18  C   UNL     1      -6.491  14.213  69.106  1.00  0.00    -0.111 A  
HETATM   19  C   UNL     1      -5.625  13.241  69.613  1.00  0.00    -0.100 A  
HETATM   20  C   UNL     1      -7.253  11.525  69.067  1.00  0.00    -0.106 A  
HETATM   21  C   UNL     1      -7.744  13.837  68.614  1.00  0.00    -0.120 A  
HETATM   22  C   UNL     1      -6.009  11.905  69.593  1.00  0.00    -0.114 A  
ENDBRANCH  16  17
ENDBRANCH   8  16
BRANCH  10  23
HETATM   23  S   UNL     1     -11.541  13.938  69.447  1.00  0.00    -0.312 S  
HETATM   24  O   UNL     1     -11.838  14.289  68.078  1.00  0.00    -0.332 OA 
HETATM   25  H2  UNL     1     -13.480  13.555  70.876  1.00  0.00     0.000 HD 
HETATM   26  H1  UNL     1     -13.031  15.235  70.284  1.00  0.00     0.000 HD 
HETATM   27  N   UNL     1     -12.908  14.226  70.363  1.00  0.00    -0.294 N  
HETATM   28  O   UNL     1     -10.466  14.585  70.173  1.00  0.00     0.109 OA 
ENDBRANCH  10  23
ENDBRANCH   5   7
ENDBRANCH   4   5
ENDBRANCH   3   4
ENDBRANCH   2   3
TORSDOF 7
ENDMDL
MODEL      179
REMARK 921   NORMALIZED FREE ENERGY PREDICTED BY IDOCK:   -3.26 KCAL/MOL
REMARK 922        TOTAL FREE ENERGY PREDICTED BY IDOCK:   -5.35 KCAL/MOL
REMARK 923 INTER-LIGAND FREE ENERGY PREDICTED BY IDOCK:   -4.38 KCAL/MOL
REMARK 924 INTRA-LIGAND FREE ENERGY PREDICTED BY IDOCK:   -0.97 KCAL/MOL
REMARK 927      BINDING AFFINITY PREDICTED BY RF-SCORE:    0.00 PKD
ROOT
HETATM    1  C   UNL     1      -7.922   1.935  68.677  1.00  0.00    -0.061 C  
HETATM    2  C   UNL     1      -8.439   1.777  70.095  1.00  0.00    -0.081 C  
ENDROOT
BRANCH   2   3
HETATM    3  C   UNL     1      -9.453   2.875  70.432  1.00  0.00    -0.201 C  
BRANCH   3   4
HETATM    4  C   UNL     1      -9.494   3.926  69.335  1.00  0.00    -0.190 C  
BRANCH   4   5
HETATM    5  N   UNL     1     -10.388   5.031  69.674  1.00  0.00    -0.246 NA 
HETATM    6  H   UNL     1     -11.383   4.858  69.817  1.00  0.00     0.000 HD 
BRANCH   5   7
HETATM    7  C   UNL     1      -9.879   6.321  69.800  1.00  0.00    -0.165 A  
HETATM    8  C   UNL     1     -10.077   7.335  68.837  1.00  0.00    -0.180 A  
HETATM    9  C   UNL     1      -8.042   8.148  72.558  1.00  0.00    -0.150 C  
HETATM   10  C   UNL     1      -9.590   8.634  69.112  1.00  0.00    -0.163 A  
HETATM   11  O   UNL     1      -7.098   9.107  72.567  1.00  0.00    -0.309 OA 
HETATM   12  O   UNL     1      -8.320   7.480  73.540  1.00  0.00    -0.125 OA 
HETATM   13  C   UNL     1      -8.914   8.940  70.311  1.00  0.00    -0.201 A  
HETATM   14  C   UNL     1      -8.696   7.935  71.242  1.00  0.00    -0.149 A  
HETATM   15  C   UNL     1      -9.179   6.654  70.978  1.00  0.00    -0.160 A  
BRANCH   8  16
HETATM   16  O   UNL     1     -10.542   7.078  67.563  1.00  0.00    -0.222 OA 
BRANCH  16  17
HETATM   17  C   UNL     1      -9.906   6.228  66.687  1.00  0.00    -0.154 A  
HETATM   18  C   UNL     1     -10.233   4.305  65.223  1.00  0.00    -0.234 A  
HETATM   19  C   UNL     1      -8.911   4.410  64.783  1.00  0.00    -0.149 A  
HETATM   20  C   UNL     1      -8.577   6.292  66.280  1.00  0.00    -0.138 A  
HETATM   21  C   UNL     1     -10.725   5.214  66.164  1.00  0.00    -0.247 A  
HETATM   22  C   UNL     1      -8.091   5.402  65.311  1.00  0.00    -0.123 A  
ENDBRANCH  16  17
ENDBRANCH   8  16
BRANCH  10  23
HETATM   23  S   UNL     1      -9.847   9.960  67.972  1.00  0.00    -0.151 S  
HETATM   24  O   UNL     1     -11.262  10.149  67.754  1.00  0.00    -0.289 OA 
HETATM   25  H2  UNL     1      -8.867  11.327  69.739  1.00  0.00     0.000 HD 
HETATM   26  H1  UNL     1      -9.418  12.054  68.144  1.00  0.00     0.000 HD 
HETATM   27  N   UNL     1      -9.269  11.289  68.802  1.00  0.00    -0.163 N  
HETATM   28  O   UNL     1      -8.930   9.789  66.863  1.00  0.00    -0.136 OA 
ENDBRANCH  10  23
ENDBRANCH   5   7
ENDBRANCH   4   5
ENDBRANCH   3   4
ENDBRANCH   2   3
TORSDOF 7
ENDMDL
MODEL      180
REMARK 921   NORMALIZED FREE ENERGY PREDICTED BY IDOCK:   -3.25 KCAL/MOL
REMARK 922        TOTAL FREE ENERGY PREDICTED BY IDOCK:   -5.34 KCAL/MOL
REMARK 923 INTER-LIGAND FREE ENERGY PREDICTED BY IDOCK:   -4.62 KCAL/MOL
REMARK 924 INTRA-LIGAND FREE ENERGY PREDICTED BY IDOCK:   -0.72 KCAL/MOL
REMARK 927      BINDING AFFINITY PREDICTED BY RF-SCORE:    0.00 PKD
ROOT
HETATM    1  C   UNL     1      -5.370  11.132  70.736  1.00  0.00    -0.123 C  
HETATM    2  C   UNL     1      -5.693  11.816  69.421  1.00  0.00    -0.067 C  
ENDROOT
BRANCH   2   3
HETATM    3  C   UNL     1      -5.742  10.800  68.275  1.00  0.00    -0.043 C  
BRANCH   3   4
HETATM    4  C   UNL     1      -6.284   9.466  68.760  1.00  0.00    -0.044 C  
BRANCH   4   5
HETATM    5  N   UNL     1      -7.525   9.102  68.079  1.00  0.00    -0.084 NA 
HETATM    6  H   UNL     1      -7.493   8.603  67.190  1.00  0.00     0.000 HD 
BRANCH   5   7
HETATM    7  C   UNL     1      -8.751   9.439  68.646  1.00  0.00    -0.131 A  
HETATM    8  C   UNL     1      -9.476   8.581  69.502  1.00  0.00    -0.165 A  
HETATM    9  C   UNL     1     -10.834  12.599  68.686  1.00  0.00    -0.249 C  
HETATM   10  C   UNL     1     -10.668   9.062  70.091  1.00  0.00    -0.233 A  
HETATM   11  O   UNL     1     -12.157  12.836  68.711  1.00  0.00    -0.276 OA 
HETATM   12  O   UNL     1     -10.010  13.455  68.411  1.00  0.00    -0.235 OA 
HETATM   13  C   UNL     1     -11.150  10.364  69.846  1.00  0.00    -0.367 A  
HETATM   14  C   UNL     1     -10.451  11.195  68.982  1.00  0.00    -0.233 A  
HETATM   15  C   UNL     1      -9.273  10.727  68.403  1.00  0.00    -0.164 A  
BRANCH   8  16
HETATM   16  O   UNL     1      -9.189   7.237  69.635  1.00  0.00    -0.144 OA 
BRANCH  16  17
HETATM   17  C   UNL     1      -9.189   6.360  68.575  1.00  0.00    -0.124 A  
HETATM   18  C   UNL     1      -8.060   4.417  67.628  1.00  0.00    -0.099 A  
HETATM   19  C   UNL     1      -9.005   4.363  66.600  1.00  0.00    -0.117 A  
HETATM   20  C   UNL     1     -10.096   6.328  67.519  1.00  0.00    -0.186 A  
HETATM   21  C   UNL     1      -8.158   5.406  68.610  1.00  0.00    -0.091 A  
HETATM   22  C   UNL     1     -10.018   5.315  66.552  1.00  0.00    -0.228 A  
ENDBRANCH  16  17
ENDBRANCH   8  16
BRANCH  10  23
HETATM   23  S   UNL     1     -11.597   8.058  71.211  1.00  0.00    -0.280 S  
HETATM   24  O   UNL     1     -11.990   6.832  70.557  1.00  0.00    -0.386 OA 
HETATM   25  H2  UNL     1      -9.500   7.956  72.454  1.00  0.00     0.000 HD 
HETATM   26  H1  UNL     1     -11.016   7.098  73.039  1.00  0.00     0.000 HD 
HETATM   27  N   UNL     1     -10.480   7.677  72.393  1.00  0.00    -0.229 N  
HETATM   28  O   UNL     1     -12.568   8.902  71.877  1.00  0.00    -0.328 OA 
ENDBRANCH  10  23
ENDBRANCH   5   7
ENDBRANCH   4   5
ENDBRANCH   3   4
ENDBRANCH   2   3
TORSDOF 7
ENDMDL
MODEL      181
REMARK 921   NORMALIZED FREE ENERGY PREDICTED BY IDOCK:   -3.22 KCAL/MOL
REMARK 922        TOTAL FREE ENERGY PREDICTED BY IDOCK:   -5.30 KCAL/MOL
REMARK 923 INTER-LIGAND FREE ENERGY PREDICTED BY IDOCK:   -5.14 KCAL/MOL
REMARK 924 INTRA-LIGAND FREE ENERGY PREDICTED BY IDOCK:   -0.16 KCAL/MOL
REMARK 927      BINDING AFFINITY PREDICTED BY RF-SCORE:    0.00 PKD
ROOT
HETATM    1  C   UNL     1      -9.123   4.288  68.064  1.00  0.00    -0.165 C  
HETATM    2  C   UNL     1      -8.734   5.530  67.283  1.00  0.00    -0.107 C  
ENDROOT
BRANCH   2   3
HETATM    3  C   UNL     1      -9.043   6.798  68.085  1.00  0.00    -0.123 C  
BRANCH   3   4
HETATM    4  C   UNL     1      -9.008   8.025  67.188  1.00  0.00    -0.135 C  
BRANCH   4   5
HETATM    5  N   UNL     1      -8.980   9.264  67.961  1.00  0.00    -0.128 NA 
HETATM    6  H   UNL     1      -8.634  10.125  67.535  1.00  0.00     0.000 HD 
BRANCH   5   7
HETATM    7  C   UNL     1      -9.427   9.269  69.279  1.00  0.00    -0.160 A  
HETATM    8  C   UNL     1     -10.729   9.661  69.660  1.00  0.00    -0.240 A  
HETATM    9  C   UNL     1      -7.922   8.116  72.555  1.00  0.00    -0.144 C  
HETATM   10  C   UNL     1     -11.102   9.541  71.018  1.00  0.00    -0.363 A  
HETATM   11  O   UNL     1      -8.016   8.552  73.823  1.00  0.00    -0.374 OA 
HETATM   12  O   UNL     1      -7.062   7.335  72.183  1.00  0.00    -0.066 OA 
HETATM   13  C   UNL     1     -10.215   9.048  71.996  1.00  0.00    -0.270 A  
HETATM   14  C   UNL     1      -8.926   8.691  71.625  1.00  0.00    -0.305 A  
HETATM   15  C   UNL     1      -8.555   8.803  70.286  1.00  0.00    -0.158 A  
BRANCH   8  16
HETATM   16  O   UNL     1     -11.585  10.338  68.814  1.00  0.00    -0.177 OA 
BRANCH  16  17
HETATM   17  C   UNL     1     -11.350  11.621  68.375  1.00  0.00    -0.279 A  
HETATM   18  C   UNL     1     -11.798  13.196  66.568  1.00  0.00    -0.456 A  
HETATM   19  C   UNL     1     -11.132  14.201  67.273  1.00  0.00    -0.315 A  
HETATM   20  C   UNL     1     -10.644  12.615  69.046  1.00  0.00    -0.079 A  
HETATM   21  C   UNL     1     -11.910  11.917  67.122  1.00  0.00    -0.216 A  
HETATM   22  C   UNL     1     -10.561  13.908  68.507  1.00  0.00    -0.260 A  
ENDBRANCH  16  17
ENDBRANCH   8  16
BRANCH  10  23
HETATM   23  S   UNL     1     -12.732   9.967  71.553  1.00  0.00    -0.465 S  
HETATM   24  O   UNL     1     -13.007  11.348  71.232  1.00  0.00    -0.385 OA 
HETATM   25  H2  UNL     1     -13.430   8.342  69.873  1.00  0.00     0.000 HD 
HETATM   26  H1  UNL     1     -14.648   9.255  70.902  1.00  0.00     0.000 HD 
HETATM   27  N   UNL     1     -13.708   9.010  70.593  1.00  0.00     0.379 N  
HETATM   28  O   UNL     1     -12.918   9.455  72.896  1.00  0.00    -0.146 OA 
ENDBRANCH  10  23
ENDBRANCH   5   7
ENDBRANCH   4   5
ENDBRANCH   3   4
ENDBRANCH   2   3
TORSDOF 7
ENDMDL
MODEL      182
REMARK 921   NORMALIZED FREE ENERGY PREDICTED BY IDOCK:   -3.17 KCAL/MOL
REMARK 922        TOTAL FREE ENERGY PREDICTED BY IDOCK:   -5.24 KCAL/MOL
REMARK 923 INTER-LIGAND FREE ENERGY PREDICTED BY IDOCK:   -4.89 KCAL/MOL
REMARK 924 INTRA-LIGAND FREE ENERGY PREDICTED BY IDOCK:   -0.35 KCAL/MOL
REMARK 927      BINDING AFFINITY PREDICTED BY RF-SCORE:    0.00 PKD
ROOT
HETATM    1  C   UNL     1      -9.328  10.313  65.731  1.00  0.00    -0.233 C  
HETATM    2  C   UNL     1      -9.790  10.531  67.160  1.00  0.00    -0.213 C  
ENDROOT
BRANCH   2   3
HETATM    3  C   UNL     1     -10.628   9.346  67.651  1.00  0.00    -0.333 C  
BRANCH   3   4
HETATM    4  C   UNL     1     -10.394   8.123  66.779  1.00  0.00    -0.291 C  
BRANCH   4   5
HETATM    5  N   UNL     1     -10.995   6.922  67.354  1.00  0.00    -0.513 NA 
HETATM    6  H   UNL     1     -11.743   6.437  66.858  1.00  0.00     0.000 HD 
BRANCH   5   7
HETATM    7  C   UNL     1     -10.544   6.440  68.579  1.00  0.00    -0.252 A  
HETATM    8  C   UNL     1      -9.217   6.012  68.809  1.00  0.00    -0.123 A  
HETATM    9  C   UNL     1     -12.108   6.157  72.014  1.00  0.00    -0.198 C  
HETATM   10  C   UNL     1      -8.848   5.625  70.118  1.00  0.00    -0.138 A  
HETATM   11  O   UNL     1     -11.981   5.275  73.021  1.00  0.00    -0.220 OA 
HETATM   12  O   UNL     1     -13.019   6.967  71.950  1.00  0.00    -0.320 OA 
HETATM   13  C   UNL     1      -9.762   5.651  71.190  1.00  0.00    -0.218 A  
HETATM   14  C   UNL     1     -11.072   6.044  70.956  1.00  0.00    -0.348 A  
HETATM   15  C   UNL     1     -11.440   6.431  69.669  1.00  0.00    -0.446 A  
BRANCH   8  16
HETATM   16  O   UNL     1      -8.323   5.764  67.787  1.00  0.00    -0.105 OA 
BRANCH  16  17
HETATM   17  C   UNL     1      -8.573   4.875  66.767  1.00  0.00    -0.108 A  
HETATM   18  C   UNL     1      -9.193   2.569  66.275  1.00  0.00    -0.046 A  
HETATM   19  C   UNL     1      -9.240   2.868  64.911  1.00  0.00    -0.148 A  
HETATM   20  C   UNL     1      -8.574   5.150  65.403  1.00  0.00    -0.146 A  
HETATM   21  C   UNL     1      -8.868   3.570  67.194  1.00  0.00    -0.146 A  
HETATM   22  C   UNL     1      -8.934   4.155  64.482  1.00  0.00    -0.142 A  
ENDBRANCH  16  17
ENDBRANCH   8  16
BRANCH  10  23
HETATM   23  S   UNL     1      -7.192   5.128  70.484  1.00  0.00    -0.063 S  
HETATM   24  O   UNL     1      -6.936   5.284  71.896  1.00  0.00    -0.065 OA 
HETATM   25  H2  UNL     1      -7.977   2.922  69.800  1.00  0.00     0.000 HD 
HETATM   26  H1  UNL     1      -6.248   3.206  70.350  1.00  0.00     0.000 HD 
HETATM   27  N   UNL     1      -7.203   3.493  70.139  1.00  0.00    -0.041 N  
HETATM   28  O   UNL     1      -6.313   5.710  69.490  1.00  0.00    -0.033 OA 
ENDBRANCH  10  23
ENDBRANCH   5   7
ENDBRANCH   4   5
ENDBRANCH   3   4
ENDBRANCH   2   3
TORSDOF 7
ENDMDL
MODEL      183
REMARK 921   NORMALIZED FREE ENERGY PREDICTED BY IDOCK:   -3.16 KCAL/MOL
REMARK 922        TOTAL FREE ENERGY PREDICTED BY IDOCK:   -5.22 KCAL/MOL
REMARK 923 INTER-LIGAND FREE ENERGY PREDICTED BY IDOCK:   -4.57 KCAL/MOL
REMARK 924 INTRA-LIGAND FREE ENERGY PREDICTED BY IDOCK:   -0.65 KCAL/MOL
REMARK 927      BINDING AFFINITY PREDICTED BY RF-SCORE:    0.00 PKD
ROOT
HETATM    1  C   UNL     1     -12.645   9.921  71.239  1.00  0.00    -0.480 C  
HETATM    2  C   UNL     1     -11.441  10.341  70.417  1.00  0.00    -0.415 C  
ENDROOT
BRANCH   2   3
HETATM    3  C   UNL     1     -11.875  11.115  69.169  1.00  0.00    -0.419 C  
BRANCH   3   4
HETATM    4  C   UNL     1     -11.187  10.567  67.929  1.00  0.00    -0.289 C  
BRANCH   4   5
HETATM    5  N   UNL     1     -10.680   9.214  68.140  1.00  0.00    -0.415 NA 
HETATM    6  H   UNL     1     -11.022   8.656  68.923  1.00  0.00     0.000 HD 
BRANCH   5   7
HETATM    7  C   UNL     1      -9.730   8.685  67.271  1.00  0.00    -0.185 A  
HETATM    8  C   UNL     1      -9.030   7.484  67.518  1.00  0.00    -0.126 A  
HETATM    9  C   UNL     1      -8.535   9.640  63.809  1.00  0.00    -0.188 C  
HETATM   10  C   UNL     1      -8.152   6.995  66.523  1.00  0.00    -0.111 A  
HETATM   11  O   UNL     1      -7.349   9.556  63.182  1.00  0.00    -0.106 OA 
HETATM   12  O   UNL     1      -9.459  10.322  63.396  1.00  0.00    -0.278 OA 
HETATM   13  C   UNL     1      -7.957   7.671  65.301  1.00  0.00    -0.129 A  
HETATM   14  C   UNL     1      -8.624   8.866  65.073  1.00  0.00    -0.202 A  
HETATM   15  C   UNL     1      -9.494   9.349  66.049  1.00  0.00    -0.304 A  
BRANCH   8  16
HETATM   16  O   UNL     1      -9.006   6.871  68.755  1.00  0.00    -0.132 OA 
BRANCH  16  17
HETATM   17  C   UNL     1      -8.616   7.516  69.906  1.00  0.00    -0.139 A  
HETATM   18  C   UNL     1      -6.833   8.841  70.912  1.00  0.00    -0.068 A  
HETATM   19  C   UNL     1      -7.599   9.001  72.069  1.00  0.00     0.191 A  
HETATM   20  C   UNL     1      -9.350   7.639  71.082  1.00  0.00    -0.161 A  
HETATM   21  C   UNL     1      -7.344   8.108  69.837  1.00  0.00    -0.065 A  
HETATM   22  C   UNL     1      -8.852   8.403  72.148  1.00  0.00    -0.285 A  
ENDBRANCH  16  17
ENDBRANCH   8  16
BRANCH  10  23
HETATM   23  S   UNL     1      -7.283   5.472  66.747  1.00  0.00    -0.079 S  
HETATM   24  O   UNL     1      -6.670   5.448  68.054  1.00  0.00    -0.051 OA 
HETATM   25  H2  UNL     1      -9.507   4.480  66.615  1.00  0.00     0.000 HD 
HETATM   26  H1  UNL     1      -8.002   3.455  66.858  1.00  0.00     0.000 HD 
HETATM   27  N   UNL     1      -8.504   4.333  66.728  1.00  0.00    -0.104 N  
HETATM   28  O   UNL     1      -6.512   5.209  65.548  1.00  0.00    -0.034 OA 
ENDBRANCH  10  23
ENDBRANCH   5   7
ENDBRANCH   4   5
ENDBRANCH   3   4
ENDBRANCH   2   3
TORSDOF 7
ENDMDL
MODEL      184
REMARK 921   NORMALIZED FREE ENERGY PREDICTED BY IDOCK:   -3.16 KCAL/MOL
REMARK 922        TOTAL FREE ENERGY PREDICTED BY IDOCK:   -5.21 KCAL/MOL
REMARK 923 INTER-LIGAND FREE ENERGY PREDICTED BY IDOCK:   -4.64 KCAL/MOL
REMARK 924 INTRA-LIGAND FREE ENERGY PREDICTED BY IDOCK:   -0.57 KCAL/MOL
REMARK 927      BINDING AFFINITY PREDICTED BY RF-SCORE:    0.00 PKD
ROOT
HETATM    1  C   UNL     1     -13.951   9.017  72.642  1.00  0.00    -0.381 C  
HETATM    2  C   UNL     1     -12.877   8.303  71.842  1.00  0.00    -0.371 C  
ENDROOT
BRANCH   2   3
HETATM    3  C   UNL     1     -11.580   8.188  72.649  1.00  0.00    -0.441 C  
BRANCH   3   4
HETATM    4  C   UNL     1     -10.447   7.670  71.778  1.00  0.00    -0.205 C  
BRANCH   4   5
HETATM    5  N   UNL     1      -9.453   8.705  71.506  1.00  0.00    -0.224 NA 
HETATM    6  H   UNL     1      -8.817   9.010  72.243  1.00  0.00     0.000 HD 
BRANCH   5   7
HETATM    7  C   UNL     1      -9.374   9.276  70.239  1.00  0.00    -0.239 A  
HETATM    8  C   UNL     1      -8.661   8.697  69.166  1.00  0.00    -0.136 A  
HETATM    9  C   UNL     1     -11.004  12.284  68.619  1.00  0.00    -0.239 C  
HETATM   10  C   UNL     1      -8.725   9.318  67.897  1.00  0.00    -0.124 A  
HETATM   11  O   UNL     1     -10.603  13.165  67.686  1.00  0.00    -0.224 OA 
HETATM   12  O   UNL     1     -11.973  12.470  69.337  1.00  0.00    -0.298 OA 
HETATM   13  C   UNL     1      -9.471  10.494  67.678  1.00  0.00    -0.164 A  
HETATM   14  C   UNL     1     -10.148  11.076  68.740  1.00  0.00    -0.214 A  
HETATM   15  C   UNL     1     -10.093  10.464  69.991  1.00  0.00    -0.078 A  
BRANCH   8  16
HETATM   16  O   UNL     1      -7.751   7.674  69.337  1.00  0.00    -0.102 OA 
BRANCH  16  17
HETATM   17  C   UNL     1      -8.121   6.370  69.575  1.00  0.00    -0.118 A  
HETATM   18  C   UNL     1      -7.516   4.342  70.787  1.00  0.00    -0.052 A  
HETATM   19  C   UNL     1      -8.680   3.717  70.331  1.00  0.00    -0.129 A  
HETATM   20  C   UNL     1      -9.252   5.721  69.086  1.00  0.00    -0.135 A  
HETATM   21  C   UNL     1      -7.246   5.662  70.414  1.00  0.00    -0.071 A  
HETATM   22  C   UNL     1      -9.542   4.409  69.487  1.00  0.00    -0.271 A  
ENDBRANCH  16  17
ENDBRANCH   8  16
BRANCH  10  23
HETATM   23  S   UNL     1      -7.897   8.619  66.501  1.00  0.00    -0.100 S  
HETATM   24  O   UNL     1      -6.634   8.053  66.915  1.00  0.00    -0.055 OA 
HETATM   25  H2  UNL     1      -9.783   7.072  66.482  1.00  0.00     0.000 HD 
HETATM   26  H1  UNL     1      -8.426   6.960  65.248  1.00  0.00     0.000 HD 
HETATM   27  N   UNL     1      -8.904   7.363  66.054  1.00  0.00    -0.163 N  
HETATM   28  O   UNL     1      -7.976   9.565  65.406  1.00  0.00    -0.108 OA 
ENDBRANCH  10  23
ENDBRANCH   5   7
ENDBRANCH   4   5
ENDBRANCH   3   4
ENDBRANCH   2   3
TORSDOF 7
ENDMDL
MODEL      185
REMARK 921   NORMALIZED FREE ENERGY PREDICTED BY IDOCK:   -3.07 KCAL/MOL
REMARK 922        TOTAL FREE ENERGY PREDICTED BY IDOCK:   -5.09 KCAL/MOL
REMARK 923 INTER-LIGAND FREE ENERGY PREDICTED BY IDOCK:   -4.17 KCAL/MOL
REMARK 924 INTRA-LIGAND FREE ENERGY PREDICTED BY IDOCK:   -0.92 KCAL/MOL
REMARK 927      BINDING AFFINITY PREDICTED BY RF-SCORE:    0.00 PKD
ROOT
HETATM    1  C   UNL     1      -9.542  14.084  66.670  1.00  0.00    -0.299 C  
HETATM    2  C   UNL     1      -9.192  13.069  67.743  1.00  0.00    -0.200 C  
ENDROOT
BRANCH   2   3
HETATM    3  C   UNL     1      -7.808  12.462  67.490  1.00  0.00    -0.169 C  
BRANCH   3   4
HETATM    4  C   UNL     1      -7.167  12.020  68.795  1.00  0.00    -0.108 C  
BRANCH   4   5
HETATM    5  N   UNL     1      -6.810  10.604  68.774  1.00  0.00    -0.058 NA 
HETATM    6  H   UNL     1      -5.900  10.311  68.418  1.00  0.00     0.000 HD 
BRANCH   5   7
HETATM    7  C   UNL     1      -7.715   9.654  69.241  1.00  0.00    -0.095 A  
HETATM    8  C   UNL     1      -8.461   8.806  68.394  1.00  0.00    -0.130 A  
HETATM    9  C   UNL     1      -8.654   8.410  72.690  1.00  0.00    -0.171 C  
HETATM   10  C   UNL     1      -9.284   7.816  68.981  1.00  0.00    -0.143 A  
HETATM   11  O   UNL     1      -9.799   7.960  73.233  1.00  0.00    -0.293 OA 
HETATM   12  O   UNL     1      -7.688   8.743  73.356  1.00  0.00    -0.394 OA 
HETATM   13  C   UNL     1      -9.381   7.659  70.378  1.00  0.00    -0.160 A  
HETATM   14  C   UNL     1      -8.669   8.512  71.209  1.00  0.00    -0.228 A  
HETATM   15  C   UNL     1      -7.852   9.485  70.635  1.00  0.00    -0.149 A  
BRANCH   8  16
HETATM   16  O   UNL     1      -8.582   9.021  67.036  1.00  0.00    -0.115 OA 
BRANCH  16  17
HETATM   17  C   UNL     1      -7.780   8.405  66.102  1.00  0.00    -0.097 A  
HETATM   18  C   UNL     1      -7.533   7.936  63.722  1.00  0.00    -0.114 A  
HETATM   19  C   UNL     1      -6.297   7.333  63.965  1.00  0.00    -0.044 A  
HETATM   20  C   UNL     1      -6.571   7.757  66.339  1.00  0.00    -0.050 A  
HETATM   21  C   UNL     1      -8.264   8.474  64.785  1.00  0.00    -0.164 A  
HETATM   22  C   UNL     1      -5.821   7.248  65.269  1.00  0.00    -0.037 A  
ENDBRANCH  16  17
ENDBRANCH   8  16
BRANCH  10  23
HETATM   23  S   UNL     1     -10.206   6.690  67.978  1.00  0.00    -0.184 S  
HETATM   24  O   UNL     1      -9.337   5.644  67.494  1.00  0.00    -0.110 OA 
HETATM   25  H2  UNL     1     -11.379   6.199  70.060  1.00  0.00     0.000 HD 
HETATM   26  H1  UNL     1     -11.811   5.360  68.483  1.00  0.00     0.000 HD 
HETATM   27  N   UNL     1     -11.280   6.010  69.062  1.00  0.00    -0.329 N  
HETATM   28  O   UNL     1     -11.033   7.462  67.072  1.00  0.00    -0.332 OA 
ENDBRANCH  10  23
ENDBRANCH   5   7
ENDBRANCH   4   5
ENDBRANCH   3   4
ENDBRANCH   2   3
TORSDOF 7
ENDMDL
MODEL      186
REMARK 921   NORMALIZED FREE ENERGY PREDICTED BY IDOCK:   -3.07 KCAL/MOL
REMARK 922        TOTAL FREE ENERGY PREDICTED BY IDOCK:   -5.09 KCAL/MOL
REMARK 923 INTER-LIGAND FREE ENERGY PREDICTED BY IDOCK:   -4.44 KCAL/MOL
REMARK 924 INTRA-LIGAND FREE ENERGY PREDICTED BY IDOCK:   -0.65 KCAL/MOL
REMARK 927      BINDING AFFINITY PREDICTED BY RF-SCORE:    0.00 PKD
ROOT
HETATM    1  C   UNL     1     -11.804  14.816  66.994  1.00  0.00    -0.290 C  
HETATM    2  C   UNL     1     -11.932  13.389  67.494  1.00  0.00    -0.381 C  
ENDROOT
BRANCH   2   3
HETATM    3  C   UNL     1     -10.691  12.975  68.289  1.00  0.00    -0.261 C  
BRANCH   3   4
HETATM    4  C   UNL     1     -10.969  11.728  69.113  1.00  0.00    -0.209 C  
BRANCH   4   5
HETATM    5  N   UNL     1     -10.100  10.617  68.731  1.00  0.00    -0.183 NA 
HETATM    6  H   UNL     1      -9.366  10.758  68.037  1.00  0.00     0.000 HD 
BRANCH   5   7
HETATM    7  C   UNL     1     -10.274   9.367  69.318  1.00  0.00    -0.202 A  
HETATM    8  C   UNL     1      -9.368   8.296  69.154  1.00  0.00    -0.151 A  
HETATM    9  C   UNL     1     -12.779   7.960  71.782  1.00  0.00    -0.329 C  
HETATM   10  C   UNL     1      -9.600   7.098  69.869  1.00  0.00    -0.163 A  
HETATM   11  O   UNL     1     -13.328   6.744  71.954  1.00  0.00    -0.271 OA 
HETATM   12  O   UNL     1     -13.222   8.970  72.304  1.00  0.00    -0.401 OA 
HETATM   13  C   UNL     1     -10.704   6.944  70.731  1.00  0.00    -0.262 A  
HETATM   14  C   UNL     1     -11.609   7.988  70.868  1.00  0.00    -0.284 A  
HETATM   15  C   UNL     1     -11.382   9.172  70.169  1.00  0.00    -0.164 A  
BRANCH   8  16
HETATM   16  O   UNL     1      -8.385   8.288  68.185  1.00  0.00    -0.126 OA 
BRANCH  16  17
HETATM   17  C   UNL     1      -7.363   9.208  68.143  1.00  0.00    -0.079 A  
HETATM   18  C   UNL     1      -5.615  10.269  69.471  1.00  0.00    -0.038 A  
HETATM   19  C   UNL     1      -5.157  10.944  68.337  1.00  0.00    -0.036 A  
HETATM   20  C   UNL     1      -6.930   9.923  67.030  1.00  0.00    -0.088 A  
HETATM   21  C   UNL     1      -6.706   9.402  69.370  1.00  0.00    -0.048 A  
HETATM   22  C   UNL     1      -5.813  10.767  67.124  1.00  0.00    -0.050 A  
ENDBRANCH  16  17
ENDBRANCH   8  16
BRANCH  10  23
HETATM   23  S   UNL     1      -8.479   5.737  69.748  1.00  0.00    -0.124 S  
HETATM   24  O   UNL     1      -7.182   6.126  70.252  1.00  0.00    -0.078 OA 
HETATM   25  H2  UNL     1      -9.967   4.698  71.377  1.00  0.00     0.000 HD 
HETATM   26  H1  UNL     1      -8.481   3.832  70.733  1.00  0.00     0.000 HD 
HETATM   27  N   UNL     1      -9.128   4.617  70.803  1.00  0.00    -0.124 N  
HETATM   28  O   UNL     1      -8.629   5.141  68.436  1.00  0.00    -0.098 OA 
ENDBRANCH  10  23
ENDBRANCH   5   7
ENDBRANCH   4   5
ENDBRANCH   3   4
ENDBRANCH   2   3
TORSDOF 7
ENDMDL
MODEL      187
REMARK 921   NORMALIZED FREE ENERGY PREDICTED BY IDOCK:   -3.05 KCAL/MOL
REMARK 922        TOTAL FREE ENERGY PREDICTED BY IDOCK:   -5.07 KCAL/MOL
REMARK 923 INTER-LIGAND FREE ENERGY PREDICTED BY IDOCK:   -4.08 KCAL/MOL
REMARK 924 INTRA-LIGAND FREE ENERGY PREDICTED BY IDOCK:   -0.98 KCAL/MOL
REMARK 927      BINDING AFFINITY PREDICTED BY RF-SCORE:    0.00 PKD
ROOT
HETATM    1  C   UNL     1      -6.885   7.956  73.375  1.00  0.00    -0.111 C  
HETATM    2  C   UNL     1      -7.726   6.790  72.890  1.00  0.00    -0.094 C  
ENDROOT
BRANCH   2   3
HETATM    3  C   UNL     1      -9.124   7.260  72.477  1.00  0.00    -0.161 C  
BRANCH   3   4
HETATM    4  C   UNL     1      -9.055   8.606  71.774  1.00  0.00    -0.247 C  
BRANCH   4   5
HETATM    5  N   UNL     1     -10.186   8.808  70.871  1.00  0.00    -0.211 NA 
HETATM    6  H   UNL     1     -11.082   8.359  71.065  1.00  0.00     0.000 HD 
BRANCH   5   7
HETATM    7  C   UNL     1     -10.040   9.615  69.746  1.00  0.00    -0.233 A  
HETATM    8  C   UNL     1      -9.330   9.220  68.591  1.00  0.00    -0.139 A  
HETATM    9  C   UNL     1     -11.452  12.979  68.740  1.00  0.00    -0.298 C  
HETATM   10  C   UNL     1      -9.322  10.085  67.473  1.00  0.00    -0.144 A  
HETATM   11  O   UNL     1     -10.976  14.003  68.010  1.00  0.00    -0.242 OA 
HETATM   12  O   UNL     1     -12.429  13.076  69.463  1.00  0.00    -0.082 OA 
HETATM   13  C   UNL     1      -9.996  11.324  67.482  1.00  0.00    -0.203 A  
HETATM   14  C   UNL     1     -10.668  11.722  68.629  1.00  0.00    -0.252 A  
HETATM   15  C   UNL     1     -10.683  10.870  69.731  1.00  0.00    -0.193 A  
BRANCH   8  16
HETATM   16  O   UNL     1      -8.484   8.130  68.567  1.00  0.00    -0.125 OA 
BRANCH  16  17
HETATM   17  C   UNL     1      -8.923   6.834  68.710  1.00  0.00    -0.130 A  
HETATM   18  C   UNL     1      -8.313   4.631  69.561  1.00  0.00    -0.080 A  
HETATM   19  C   UNL     1      -9.582   4.149  69.234  1.00  0.00    -0.256 A  
HETATM   20  C   UNL     1     -10.167   6.330  68.343  1.00  0.00    -0.200 A  
HETATM   21  C   UNL     1      -7.991   5.967  69.305  1.00  0.00    -0.103 A  
HETATM   22  C   UNL     1     -10.503   4.999  68.630  1.00  0.00    -0.027 A  
ENDBRANCH  16  17
ENDBRANCH   8  16
BRANCH  10  23
HETATM   23  S   UNL     1      -8.496   9.631  65.978  1.00  0.00    -0.126 S  
HETATM   24  O   UNL     1      -9.050   8.398  65.469  1.00  0.00    -0.152 OA 
HETATM   25  H2  UNL     1      -9.503  11.673  65.103  1.00  0.00     0.000 HD 
HETATM   26  H1  UNL     1      -8.437  10.596  64.063  1.00  0.00     0.000 HD 
HETATM   27  N   UNL     1      -8.914  10.859  64.926  1.00  0.00    -0.182 N  
HETATM   28  O   UNL     1      -7.070   9.788  66.182  1.00  0.00    -0.093 OA 
ENDBRANCH  10  23
ENDBRANCH   5   7
ENDBRANCH   4   5
ENDBRANCH   3   4
ENDBRANCH   2   3
TORSDOF 7
ENDMDL
MODEL      188
REMARK 921   NORMALIZED FREE ENERGY PREDICTED BY IDOCK:   -3.05 KCAL/MOL
REMARK 922        TOTAL FREE ENERGY PREDICTED BY IDOCK:   -5.07 KCAL/MOL
REMARK 923 INTER-LIGAND FREE ENERGY PREDICTED BY IDOCK:   -4.60 KCAL/MOL
REMARK 924 INTRA-LIGAND FREE ENERGY PREDICTED BY IDOCK:   -0.46 KCAL/MOL
REMARK 927      BINDING AFFINITY PREDICTED BY RF-SCORE:    0.00 PKD
ROOT
HETATM    1  C   UNL     1     -10.837  12.312  68.789  1.00  0.00    -0.266 C  
HETATM    2  C   UNL     1     -10.674  12.162  67.288  1.00  0.00    -0.264 C  
ENDROOT
BRANCH   2   3
HETATM    3  C   UNL     1     -10.118  10.780  66.934  1.00  0.00    -0.255 C  
BRANCH   3   4
HETATM    4  C   UNL     1     -10.849   9.691  67.703  1.00  0.00    -0.212 C  
BRANCH   4   5
HETATM    5  N   UNL     1     -10.559   8.361  67.172  1.00  0.00    -0.391 NA 
HETATM    6  H   UNL     1     -10.455   8.224  66.167  1.00  0.00     0.000 HD 
BRANCH   5   7
HETATM    7  C   UNL     1     -10.425   7.282  68.041  1.00  0.00    -0.197 A  
HETATM    8  C   UNL     1      -9.847   6.048  67.669  1.00  0.00    -0.123 A  
HETATM    9  C   UNL     1     -11.082   6.804  71.738  1.00  0.00    -0.242 C  
HETATM   10  C   UNL     1      -9.680   5.052  68.659  1.00  0.00    -0.158 A  
HETATM   11  O   UNL     1     -11.491   5.759  72.479  1.00  0.00    -0.293 OA 
HETATM   12  O   UNL     1     -11.078   7.951  72.151  1.00  0.00    -0.255 OA 
HETATM   13  C   UNL     1     -10.076   5.256  69.997  1.00  0.00    -0.336 A  
HETATM   14  C   UNL     1     -10.670   6.458  70.353  1.00  0.00    -0.317 A  
HETATM   15  C   UNL     1     -10.831   7.445  69.382  1.00  0.00    -0.184 A  
BRANCH   8  16
HETATM   16  O   UNL     1      -9.621   5.694  66.354  1.00  0.00    -0.151 OA 
BRANCH  16  17
HETATM   17  C   UNL     1      -8.524   6.117  65.639  1.00  0.00    -0.151 A  
HETATM   18  C   UNL     1      -7.355   5.891  63.511  1.00  0.00    -0.064 A  
HETATM   19  C   UNL     1      -6.441   6.873  63.904  1.00  0.00    -0.042 A  
HETATM   20  C   UNL     1      -7.579   7.058  66.041  1.00  0.00    -0.096 A  
HETATM   21  C   UNL     1      -8.392   5.524  64.373  1.00  0.00    -0.115 A  
HETATM   22  C   UNL     1      -6.559   7.452  65.163  1.00  0.00    -0.044 A  
ENDBRANCH  16  17
ENDBRANCH   8  16
BRANCH  10  23
HETATM   23  S   UNL     1      -8.919   3.505  68.271  1.00  0.00    -0.148 S  
HETATM   24  O   UNL     1      -9.451   2.997  67.029  1.00  0.00    -0.163 OA 
HETATM   25  H2  UNL     1      -6.891   4.845  68.073  1.00  0.00     0.000 HD 
HETATM   26  H1  UNL     1      -6.883   3.029  67.794  1.00  0.00     0.000 HD 
HETATM   27  N   UNL     1      -7.322   3.922  68.018  1.00  0.00    -0.062 N  
HETATM   28  O   UNL     1      -8.904   2.694  69.472  1.00  0.00    -0.073 OA 
ENDBRANCH  10  23
ENDBRANCH   5   7
ENDBRANCH   4   5
ENDBRANCH   3   4
ENDBRANCH   2   3
TORSDOF 7
ENDMDL
MODEL      189
REMARK 921   NORMALIZED FREE ENERGY PREDICTED BY IDOCK:   -3.04 KCAL/MOL
REMARK 922        TOTAL FREE ENERGY PREDICTED BY IDOCK:   -5.05 KCAL/MOL
REMARK 923 INTER-LIGAND FREE ENERGY PREDICTED BY IDOCK:   -4.57 KCAL/MOL
REMARK 924 INTRA-LIGAND FREE ENERGY PREDICTED BY IDOCK:   -0.48 KCAL/MOL
REMARK 927      BINDING AFFINITY PREDICTED BY RF-SCORE:    0.00 PKD
ROOT
HETATM    1  C   UNL     1     -11.668  12.644  68.833  1.00  0.00    -0.370 C  
HETATM    2  C   UNL     1     -11.541  12.530  67.325  1.00  0.00    -0.434 C  
ENDROOT
BRANCH   2   3
HETATM    3  C   UNL     1     -10.503  11.471  66.942  1.00  0.00    -0.270 C  
BRANCH   3   4
HETATM    4  C   UNL     1     -10.895  10.108  67.491  1.00  0.00    -0.290 C  
BRANCH   4   5
HETATM    5  N   UNL     1      -9.727   9.322  67.880  1.00  0.00    -0.149 NA 
HETATM    6  H   UNL     1      -8.836   9.458  67.402  1.00  0.00     0.000 HD 
BRANCH   5   7
HETATM    7  C   UNL     1      -9.831   8.386  68.906  1.00  0.00    -0.180 A  
HETATM    8  C   UNL     1      -8.780   7.522  69.283  1.00  0.00    -0.136 A  
HETATM    9  C   UNL     1     -12.503   7.603  71.469  1.00  0.00    -0.336 C  
HETATM   10  C   UNL     1      -8.968   6.673  70.398  1.00  0.00    -0.152 A  
HETATM   11  O   UNL     1     -12.910   6.470  72.068  1.00  0.00    -0.276 OA 
HETATM   12  O   UNL     1     -13.153   8.635  71.488  1.00  0.00    -0.326 OA 
HETATM   13  C   UNL     1     -10.170   6.663  71.135  1.00  0.00    -0.216 A  
HETATM   14  C   UNL     1     -11.213   7.492  70.744  1.00  0.00    -0.287 A  
HETATM   15  C   UNL     1     -11.029   8.334  69.649  1.00  0.00    -0.092 A  
BRANCH   8  16
HETATM   16  O   UNL     1      -7.658   7.322  68.504  1.00  0.00    -0.111 OA 
BRANCH  16  17
HETATM   17  C   UNL     1      -7.718   6.920  67.189  1.00  0.00    -0.108 A  
HETATM   18  C   UNL     1      -8.714   5.292  65.672  1.00  0.00    -0.146 A  
HETATM   19  C   UNL     1      -8.120   5.936  64.584  1.00  0.00    -0.132 A  
HETATM   20  C   UNL     1      -7.090   7.525  66.104  1.00  0.00    -0.070 A  
HETATM   21  C   UNL     1      -8.517   5.788  66.963  1.00  0.00    -0.107 A  
HETATM   22  C   UNL     1      -7.314   7.048  64.804  1.00  0.00    -0.085 A  
ENDBRANCH  16  17
ENDBRANCH   8  16
BRANCH  10  23
HETATM   23  S   UNL     1      -7.676   5.604  70.954  1.00  0.00    -0.098 S  
HETATM   24  O   UNL     1      -7.358   4.644  69.923  1.00  0.00    -0.052 OA 
HETATM   25  H2  UNL     1      -6.334   7.641  70.939  1.00  0.00     0.000 HD 
HETATM   26  H1  UNL     1      -5.628   6.020  71.438  1.00  0.00     0.000 HD 
HETATM   27  N   UNL     1      -6.374   6.637  71.117  1.00  0.00    -0.040 N  
HETATM   28  O   UNL     1      -7.985   5.182  72.305  1.00  0.00    -0.105 OA 
ENDBRANCH  10  23
ENDBRANCH   5   7
ENDBRANCH   4   5
ENDBRANCH   3   4
ENDBRANCH   2   3
TORSDOF 7
ENDMDL
MODEL      190
REMARK 921   NORMALIZED FREE ENERGY PREDICTED BY IDOCK:   -2.99 KCAL/MOL
REMARK 922        TOTAL FREE ENERGY PREDICTED BY IDOCK:   -4.98 KCAL/MOL
REMARK 923 INTER-LIGAND FREE ENERGY PREDICTED BY IDOCK:   -4.44 KCAL/MOL
REMARK 924 INTRA-LIGAND FREE ENERGY PREDICTED BY IDOCK:   -0.54 KCAL/MOL
REMARK 927      BINDING AFFINITY PREDICTED BY RF-SCORE:    0.00 PKD
ROOT
HETATM    1  C   UNL     1      -8.166   2.579  70.542  1.00  0.00    -0.067 C  
HETATM    2  C   UNL     1      -9.548   3.206  70.525  1.00  0.00    -0.201 C  
ENDROOT
BRANCH   2   3
HETATM    3  C   UNL     1      -9.717   4.186  71.690  1.00  0.00    -0.246 C  
BRANCH   3   4
HETATM    4  C   UNL     1      -9.337   5.596  71.268  1.00  0.00    -0.147 C  
BRANCH   4   5
HETATM    5  N   UNL     1     -10.154   6.070  70.154  1.00  0.00    -0.184 NA 
HETATM    6  H   UNL     1     -11.166   6.153  70.261  1.00  0.00     0.000 HD 
BRANCH   5   7
HETATM    7  C   UNL     1      -9.551   6.409  68.946  1.00  0.00    -0.126 A  
HETATM    8  C   UNL     1      -8.764   7.568  68.766  1.00  0.00    -0.128 A  
HETATM    9  C   UNL     1      -9.228   4.662  65.604  1.00  0.00    -0.151 C  
HETATM   10  C   UNL     1      -8.126   7.766  67.519  1.00  0.00    -0.124 A  
HETATM   11  O   UNL     1      -9.172   5.097  64.333  1.00  0.00     0.002 OA 
HETATM   12  O   UNL     1      -9.437   3.498  65.900  1.00  0.00    -0.169 OA 
HETATM   13  C   UNL     1      -8.257   6.846  66.459  1.00  0.00    -0.117 A  
HETATM   14  C   UNL     1      -9.054   5.723  66.629  1.00  0.00    -0.133 A  
HETATM   15  C   UNL     1      -9.681   5.521  67.858  1.00  0.00    -0.155 A  
BRANCH   8  16
HETATM   16  O   UNL     1      -8.748   8.610  69.670  1.00  0.00    -0.128 OA 
BRANCH  16  17
HETATM   17  C   UNL     1      -9.858   9.367  69.967  1.00  0.00    -0.221 A  
HETATM   18  C   UNL     1     -11.167  11.301  69.265  1.00  0.00    -0.336 A  
HETATM   19  C   UNL     1     -12.110  11.029  70.260  1.00  0.00    -0.448 A  
HETATM   20  C   UNL     1     -10.777   9.134  70.986  1.00  0.00    -0.363 A  
HETATM   21  C   UNL     1     -10.054  10.469  69.119  1.00  0.00    -0.240 A  
HETATM   22  C   UNL     1     -11.913   9.948  71.112  1.00  0.00    -0.473 A  
ENDBRANCH  16  17
ENDBRANCH   8  16
BRANCH  10  23
HETATM   23  S   UNL     1      -7.088   9.168  67.243  1.00  0.00    -0.079 S  
HETATM   24  O   UNL     1      -6.292   9.427  68.420  1.00  0.00    -0.052 OA 
HETATM   25  H2  UNL     1      -6.041   7.741  65.565  1.00  0.00     0.000 HD 
HETATM   26  H1  UNL     1      -5.463   9.458  65.872  1.00  0.00     0.000 HD 
HETATM   27  N   UNL     1      -6.063   8.648  66.031  1.00  0.00    -0.048 N  
HETATM   28  O   UNL     1      -7.886  10.211  66.630  1.00  0.00    -0.107 OA 
ENDBRANCH  10  23
ENDBRANCH   5   7
ENDBRANCH   4   5
ENDBRANCH   3   4
ENDBRANCH   2   3
TORSDOF 7
ENDMDL
MODEL      191
REMARK 921   NORMALIZED FREE ENERGY PREDICTED BY IDOCK:   -2.90 KCAL/MOL
REMARK 922        TOTAL FREE ENERGY PREDICTED BY IDOCK:   -4.85 KCAL/MOL
REMARK 923 INTER-LIGAND FREE ENERGY PREDICTED BY IDOCK:   -4.58 KCAL/MOL
REMARK 924 INTRA-LIGAND FREE ENERGY PREDICTED BY IDOCK:   -0.27 KCAL/MOL
REMARK 927      BINDING AFFINITY PREDICTED BY RF-SCORE:    0.00 PKD
ROOT
HETATM    1  C   UNL     1     -12.528  11.650  64.176  1.00  0.00    -0.087 C  
HETATM    2  C   UNL     1     -12.359  13.157  64.224  1.00  0.00    -0.421 C  
ENDROOT
BRANCH   2   3
HETATM    3  C   UNL     1     -12.343  13.659  65.672  1.00  0.00    -0.518 C  
BRANCH   3   4
HETATM    4  C   UNL     1     -11.609  12.679  66.574  1.00  0.00    -0.381 C  
BRANCH   4   5
HETATM    5  N   UNL     1     -10.186  12.993  66.675  1.00  0.00    -0.252 NA 
HETATM    6  H   UNL     1      -9.528  12.607  65.998  1.00  0.00     0.000 HD 
BRANCH   5   7
HETATM    7  C   UNL     1      -9.730  13.821  67.697  1.00  0.00    -0.227 A  
HETATM    8  C   UNL     1      -8.364  14.093  67.929  1.00  0.00    -0.162 A  
HETATM    9  C   UNL     1     -11.456  16.039  70.232  1.00  0.00    -0.359 C  
HETATM   10  C   UNL     1      -8.021  15.021  68.940  1.00  0.00    -0.169 A  
HETATM   11  O   UNL     1     -11.173  16.395  71.498  1.00  0.00    -0.176 OA 
HETATM   12  O   UNL     1     -12.551  16.210  69.722  1.00  0.00    -0.067 OA 
HETATM   13  C   UNL     1      -8.998  15.672  69.719  1.00  0.00    -0.006 A  
HETATM   14  C   UNL     1     -10.339  15.381  69.509  1.00  0.00    -0.269 A  
HETATM   15  C   UNL     1     -10.682  14.472  68.510  1.00  0.00    -0.253 A  
BRANCH   8  16
HETATM   16  O   UNL     1      -7.346  13.357  67.358  1.00  0.00    -0.163 OA 
BRANCH  16  17
HETATM   17  C   UNL     1      -7.207  11.999  67.539  1.00  0.00    -0.127 A  
HETATM   18  C   UNL     1      -6.066  10.010  66.710  1.00  0.00    -0.060 A  
HETATM   19  C   UNL     1      -6.639   9.250  67.733  1.00  0.00    -0.063 A  
HETATM   20  C   UNL     1      -7.813  11.223  68.523  1.00  0.00    -0.138 A  
HETATM   21  C   UNL     1      -6.345  11.377  66.622  1.00  0.00    -0.127 A  
HETATM   22  C   UNL     1      -7.506   9.859  68.634  1.00  0.00    -0.075 A  
ENDBRANCH  16  17
ENDBRANCH   8  16
BRANCH  10  23
HETATM   23  S   UNL     1      -6.333  15.444  69.249  1.00  0.00    -0.138 S  
HETATM   24  O   UNL     1      -5.573  14.249  69.532  1.00  0.00    -0.090 OA 
HETATM   25  H2  UNL     1      -6.350  16.145  66.912  1.00  0.00     0.000 HD 
HETATM   26  H1  UNL     1      -4.845  16.290  67.956  1.00  0.00     0.000 HD 
HETATM   27  N   UNL     1      -5.819  16.046  67.778  1.00  0.00    -0.132 N  
HETATM   28  O   UNL     1      -6.307  16.583  70.144  1.00  0.00    -0.123 OA 
ENDBRANCH  10  23
ENDBRANCH   5   7
ENDBRANCH   4   5
ENDBRANCH   3   4
ENDBRANCH   2   3
TORSDOF 7
ENDMDL
MODEL      192
REMARK 921   NORMALIZED FREE ENERGY PREDICTED BY IDOCK:   -2.79 KCAL/MOL
REMARK 922        TOTAL FREE ENERGY PREDICTED BY IDOCK:   -4.70 KCAL/MOL
REMARK 923 INTER-LIGAND FREE ENERGY PREDICTED BY IDOCK:   -4.14 KCAL/MOL
REMARK 924 INTRA-LIGAND FREE ENERGY PREDICTED BY IDOCK:   -0.56 KCAL/MOL
REMARK 927      BINDING AFFINITY PREDICTED BY RF-SCORE:    0.00 PKD
ROOT
HETATM    1  C   UNL     1      -6.602   6.694  73.235  1.00  0.00    -0.064 C  
HETATM    2  C   UNL     1      -8.065   6.929  72.907  1.00  0.00    -0.115 C  
ENDROOT
BRANCH   2   3
HETATM    3  C   UNL     1      -8.335   8.415  72.648  1.00  0.00    -0.206 C  
BRANCH   3   4
HETATM    4  C   UNL     1      -9.587   8.597  71.805  1.00  0.00    -0.290 C  
BRANCH   4   5
HETATM    5  N   UNL     1      -9.292   9.228  70.521  1.00  0.00    -0.246 NA 
HETATM    6  H   UNL     1      -9.278  10.245  70.443  1.00  0.00     0.000 HD 
BRANCH   5   7
HETATM    7  C   UNL     1      -9.029   8.440  69.404  1.00  0.00    -0.153 A  
HETATM    8  C   UNL     1      -8.389   8.923  68.242  1.00  0.00    -0.125 A  
HETATM    9  C   UNL     1      -9.427   4.751  68.655  1.00  0.00    -0.150 C  
HETATM   10  C   UNL     1      -8.092   8.010  67.203  1.00  0.00    -0.117 A  
HETATM   11  O   UNL     1      -9.716   4.057  67.540  1.00  0.00    -0.184 OA 
HETATM   12  O   UNL     1      -9.481   4.265  69.773  1.00  0.00    -0.153 OA 
HETATM   13  C   UNL     1      -8.421   6.642  67.295  1.00  0.00    -0.120 A  
HETATM   14  C   UNL     1      -9.076   6.175  68.426  1.00  0.00    -0.113 A  
HETATM   15  C   UNL     1      -9.365   7.070  69.454  1.00  0.00    -0.146 A  
BRANCH   8  16
HETATM   16  O   UNL     1      -8.217  10.268  67.985  1.00  0.00    -0.111 OA 
BRANCH  16  17
HETATM   17  C   UNL     1      -9.251  11.103  67.630  1.00  0.00    -0.151 A  
HETATM   18  C   UNL     1     -10.056  13.402  67.757  1.00  0.00    -0.232 A  
HETATM   19  C   UNL     1     -11.153  13.066  66.959  1.00  0.00    -0.311 A  
HETATM   20  C   UNL     1     -10.373  10.768  66.878  1.00  0.00    -0.290 A  
HETATM   21  C   UNL     1      -9.110  12.426  68.082  1.00  0.00    -0.200 A  
HETATM   22  C   UNL     1     -11.305  11.754  66.522  1.00  0.00    -0.370 A  
ENDBRANCH  16  17
ENDBRANCH   8  16
BRANCH  10  23
HETATM   23  S   UNL     1      -7.248   8.538  65.743  1.00  0.00    -0.077 S  
HETATM   24  O   UNL     1      -8.143   9.311  64.914  1.00  0.00    -0.117 OA 
HETATM   25  H2  UNL     1      -5.891   9.829  67.306  1.00  0.00     0.000 HD 
HETATM   26  H1  UNL     1      -5.588   9.873  65.494  1.00  0.00     0.000 HD 
HETATM   27  N   UNL     1      -6.075   9.568  66.337  1.00  0.00    -0.059 N  
HETATM   28  O   UNL     1      -6.513   7.408  65.210  1.00  0.00    -0.040 OA 
ENDBRANCH  10  23
ENDBRANCH   5   7
ENDBRANCH   4   5
ENDBRANCH   3   4
ENDBRANCH   2   3
TORSDOF 7
ENDMDL
MODEL      193
REMARK 921   NORMALIZED FREE ENERGY PREDICTED BY IDOCK:   -2.68 KCAL/MOL
REMARK 922        TOTAL FREE ENERGY PREDICTED BY IDOCK:   -4.54 KCAL/MOL
REMARK 923 INTER-LIGAND FREE ENERGY PREDICTED BY IDOCK:   -3.63 KCAL/MOL
REMARK 924 INTRA-LIGAND FREE ENERGY PREDICTED BY IDOCK:   -0.91 KCAL/MOL
REMARK 927      BINDING AFFINITY PREDICTED BY RF-SCORE:    0.00 PKD
ROOT
HETATM    1  C   UNL     1      -7.927   8.147  74.294  1.00  0.00    -0.310 C  
HETATM    2  C   UNL     1      -8.719   6.983  73.726  1.00  0.00    -0.187 C  
ENDROOT
BRANCH   2   3
HETATM    3  C   UNL     1      -7.785   5.926  73.130  1.00  0.00    -0.102 C  
BRANCH   3   4
HETATM    4  C   UNL     1      -8.168   5.617  71.691  1.00  0.00    -0.119 C  
BRANCH   4   5
HETATM    5  N   UNL     1      -9.020   6.657  71.119  1.00  0.00    -0.145 NA 
HETATM    6  H   UNL     1      -9.524   7.299  71.732  1.00  0.00     0.000 HD 
BRANCH   5   7
HETATM    7  C   UNL     1      -9.141   6.771  69.737  1.00  0.00    -0.143 A  
HETATM    8  C   UNL     1      -8.873   7.962  69.027  1.00  0.00    -0.145 A  
HETATM    9  C   UNL     1      -9.881   4.304  66.964  1.00  0.00    -0.179 C  
HETATM   10  C   UNL     1      -8.943   7.938  67.615  1.00  0.00    -0.131 A  
HETATM   11  O   UNL     1     -10.523   4.398  65.787  1.00  0.00    -0.256 OA 
HETATM   12  O   UNL     1      -9.605   3.237  67.488  1.00  0.00    -0.205 OA 
HETATM   13  C   UNL     1      -9.275   6.767  66.903  1.00  0.00    -0.162 A  
HETATM   14  C   UNL     1      -9.567   5.606  67.605  1.00  0.00    -0.126 A  
HETATM   15  C   UNL     1      -9.493   5.623  68.997  1.00  0.00    -0.159 A  
BRANCH   8  16
HETATM   16  O   UNL     1      -8.741   9.189  69.644  1.00  0.00    -0.130 OA 
BRANCH  16  17
HETATM   17  C   UNL     1      -7.543   9.663  70.127  1.00  0.00    -0.158 A  
HETATM   18  C   UNL     1      -6.066  11.603  70.165  1.00  0.00    -0.155 A  
HETATM   19  C   UNL     1      -5.211  10.940  71.049  1.00  0.00    -0.109 A  
HETATM   20  C   UNL     1      -6.659   8.993  70.968  1.00  0.00    -0.080 A  
HETATM   21  C   UNL     1      -7.227  10.968  69.715  1.00  0.00    -0.008 A  
HETATM   22  C   UNL     1      -5.512   9.642  71.448  1.00  0.00    -0.073 A  
ENDBRANCH  16  17
ENDBRANCH   8  16
BRANCH  10  23
HETATM   23  S   UNL     1      -8.571   9.379  66.663  1.00  0.00    -0.132 S  
HETATM   24  O   UNL     1      -7.147   9.618  66.674  1.00  0.00    -0.084 OA 
HETATM   25  H2  UNL     1      -9.394   8.044  64.794  1.00  0.00     0.000 HD 
HETATM   26  H1  UNL     1      -8.792   9.765  64.564  1.00  0.00     0.000 HD 
HETATM   27  N   UNL     1      -9.007   8.933  65.113  1.00  0.00    -0.176 N  
HETATM   28  O   UNL     1      -9.512  10.420  67.027  1.00  0.00    -0.159 OA 
ENDBRANCH  10  23
ENDBRANCH   5   7
ENDBRANCH   4   5
ENDBRANCH   3   4
ENDBRANCH   2   3
TORSDOF 7
ENDMDL
MODEL      194
REMARK 921   NORMALIZED FREE ENERGY PREDICTED BY IDOCK:   -2.68 KCAL/MOL
REMARK 922        TOTAL FREE ENERGY PREDICTED BY IDOCK:   -4.54 KCAL/MOL
REMARK 923 INTER-LIGAND FREE ENERGY PREDICTED BY IDOCK:   -3.22 KCAL/MOL
REMARK 924 INTRA-LIGAND FREE ENERGY PREDICTED BY IDOCK:   -1.32 KCAL/MOL
REMARK 927      BINDING AFFINITY PREDICTED BY RF-SCORE:    0.00 PKD
ROOT
HETATM    1  C   UNL     1      -7.871  13.458  68.354  1.00  0.00    -0.138 C  
HETATM    2  C   UNL     1      -7.940  12.031  68.864  1.00  0.00     0.069 C  
ENDROOT
BRANCH   2   3
HETATM    3  C   UNL     1      -6.623  11.626  69.534  1.00  0.00    -0.111 C  
BRANCH   3   4
HETATM    4  C   UNL     1      -6.720  10.223  70.111  1.00  0.00    -0.146 C  
BRANCH   4   5
HETATM    5  N   UNL     1      -6.701   9.202  69.066  1.00  0.00    -0.054 NA 
HETATM    6  H   UNL     1      -6.102   9.318  68.249  1.00  0.00     0.000 HD 
BRANCH   5   7
HETATM    7  C   UNL     1      -7.502   8.070  69.189  1.00  0.00    -0.095 A  
HETATM    8  C   UNL     1      -7.964   7.319  68.085  1.00  0.00    -0.123 A  
HETATM    9  C   UNL     1      -8.745   6.052  72.140  1.00  0.00    -0.132 C  
HETATM   10  C   UNL     1      -8.697   6.135  68.332  1.00  0.00    -0.115 A  
HETATM   11  O   UNL     1      -9.872   5.359  72.380  1.00  0.00    -0.160 OA 
HETATM   12  O   UNL     1      -7.958   6.367  73.017  1.00  0.00    -0.105 OA 
HETATM   13  C   UNL     1      -8.979   5.690  69.639  1.00  0.00    -0.135 A  
HETATM   14  C   UNL     1      -8.549   6.445  70.721  1.00  0.00    -0.135 A  
HETATM   15  C   UNL     1      -7.822   7.610  70.483  1.00  0.00    -0.095 A  
BRANCH   8  16
HETATM   16  O   UNL     1      -7.908   7.783  66.787  1.00  0.00    -0.103 OA 
BRANCH  16  17
HETATM   17  C   UNL     1      -8.508   8.953  66.381  1.00  0.00    -0.117 A  
HETATM   18  C   UNL     1     -10.614  10.183  66.361  1.00  0.00    -0.155 A  
HETATM   19  C   UNL     1      -9.975  11.276  65.771  1.00  0.00    -0.281 A  
HETATM   20  C   UNL     1      -7.892  10.029  65.746  1.00  0.00    -0.128 A  
HETATM   21  C   UNL     1      -9.880   9.034  66.669  1.00  0.00    -0.316 A  
HETATM   22  C   UNL     1      -8.620  11.195  65.468  1.00  0.00    -0.045 A  
ENDBRANCH  16  17
ENDBRANCH   8  16
BRANCH  10  23
HETATM   23  S   UNL     1      -9.261   5.122  66.998  1.00  0.00    -0.122 S  
HETATM   24  O   UNL     1      -8.153   4.789  66.134  1.00  0.00    -0.106 OA 
HETATM   25  H2  UNL     1      -9.735   3.507  68.764  1.00  0.00     0.000 HD 
HETATM   26  H1  UNL     1     -10.080   3.139  66.997  1.00  0.00     0.000 HD 
HETATM   27  N   UNL     1      -9.755   3.724  67.767  1.00  0.00    -0.132 N  
HETATM   28  O   UNL     1     -10.479   5.704  66.470  1.00  0.00    -0.242 OA 
ENDBRANCH  10  23
ENDBRANCH   5   7
ENDBRANCH   4   5
ENDBRANCH   3   4
ENDBRANCH   2   3
TORSDOF 7
ENDMDL
MODEL      195
REMARK 921   NORMALIZED FREE ENERGY PREDICTED BY IDOCK:   -2.65 KCAL/MOL
REMARK 922        TOTAL FREE ENERGY PREDICTED BY IDOCK:   -4.50 KCAL/MOL
REMARK 923 INTER-LIGAND FREE ENERGY PREDICTED BY IDOCK:   -4.42 KCAL/MOL
REMARK 924 INTRA-LIGAND FREE ENERGY PREDICTED BY IDOCK:   -0.08 KCAL/MOL
REMARK 927      BINDING AFFINITY PREDICTED BY RF-SCORE:    0.00 PKD
ROOT
HETATM    1  C   UNL     1      -9.701   2.762  71.138  1.00  0.00    -0.184 C  
HETATM    2  C   UNL     1     -10.081   3.260  72.521  1.00  0.00    -0.229 C  
ENDROOT
BRANCH   2   3
HETATM    3  C   UNL     1     -10.062   4.791  72.574  1.00  0.00    -0.234 C  
BRANCH   3   4
HETATM    4  C   UNL     1      -9.407   5.278  73.856  1.00  0.00    -0.129 C  
BRANCH   4   5
HETATM    5  N   UNL     1      -8.465   6.367  73.607  1.00  0.00    -0.122 NA 
HETATM    6  H   UNL     1      -8.205   7.000  74.363  1.00  0.00     0.000 HD 
BRANCH   5   7
HETATM    7  C   UNL     1      -7.923   6.537  72.337  1.00  0.00    -0.101 A  
HETATM    8  C   UNL     1      -7.919   7.771  71.650  1.00  0.00    -0.097 A  
HETATM    9  C   UNL     1      -5.963   4.289  70.006  1.00  0.00    -0.018 C  
HETATM   10  C   UNL     1      -7.261   7.849  70.401  1.00  0.00    -0.053 A  
HETATM   11  O   UNL     1      -5.896   4.174  68.668  1.00  0.00    -0.023 OA 
HETATM   12  O   UNL     1      -5.529   3.442  70.770  1.00  0.00    -0.011 OA 
HETATM   13  C   UNL     1      -6.616   6.735  69.826  1.00  0.00    -0.048 A  
HETATM   14  C   UNL     1      -6.646   5.516  70.489  1.00  0.00    -0.040 A  
HETATM   15  C   UNL     1      -7.289   5.436  71.723  1.00  0.00    -0.090 A  
BRANCH   8  16
HETATM   16  O   UNL     1      -8.691   8.847  72.039  1.00  0.00    -0.365 OA 
BRANCH  16  17
HETATM   17  C   UNL     1     -10.022   8.976  71.713  1.00  0.00    -0.289 A  
HETATM   18  C   UNL     1     -12.282   8.362  72.391  1.00  0.00    -0.430 A  
HETATM   19  C   UNL     1     -12.808   9.147  71.362  1.00  0.00    -0.376 A  
HETATM   20  C   UNL     1     -10.554   9.715  70.660  1.00  0.00    -0.386 A  
HETATM   21  C   UNL     1     -10.898   8.285  72.566  1.00  0.00    -0.421 A  
HETATM   22  C   UNL     1     -11.944   9.820  70.504  1.00  0.00    -0.282 A  
ENDBRANCH  16  17
ENDBRANCH   8  16
BRANCH  10  23
HETATM   23  S   UNL     1      -7.175   9.374  69.513  1.00  0.00    -0.073 S  
HETATM   24  O   UNL     1      -7.063  10.475  70.441  1.00  0.00    -0.273 OA 
HETATM   25  H2  UNL     1      -5.061   8.479  68.688  1.00  0.00     0.000 HD 
HETATM   26  H1  UNL     1      -5.682  10.129  68.170  1.00  0.00     0.000 HD 
HETATM   27  N   UNL     1      -5.731   9.249  68.683  1.00  0.00    -0.041 N  
HETATM   28  O   UNL     1      -8.196   9.358  68.484  1.00  0.00    -0.111 OA 
ENDBRANCH  10  23
ENDBRANCH   5   7
ENDBRANCH   4   5
ENDBRANCH   3   4
ENDBRANCH   2   3
TORSDOF 7
ENDMDL
MODEL      196
REMARK 921   NORMALIZED FREE ENERGY PREDICTED BY IDOCK:   -2.51 KCAL/MOL
REMARK 922        TOTAL FREE ENERGY PREDICTED BY IDOCK:   -4.30 KCAL/MOL
REMARK 923 INTER-LIGAND FREE ENERGY PREDICTED BY IDOCK:   -4.11 KCAL/MOL
REMARK 924 INTRA-LIGAND FREE ENERGY PREDICTED BY IDOCK:   -0.19 KCAL/MOL
REMARK 927      BINDING AFFINITY PREDICTED BY RF-SCORE:    0.00 PKD
ROOT
HETATM    1  C   UNL     1      -8.121   3.674  63.550  1.00  0.00    -0.088 C  
HETATM    2  C   UNL     1      -8.008   4.320  64.919  1.00  0.00    -0.093 C  
ENDROOT
BRANCH   2   3
HETATM    3  C   UNL     1      -7.975   5.847  64.800  1.00  0.00    -0.126 C  
BRANCH   3   4
HETATM    4  C   UNL     1      -9.005   6.482  65.721  1.00  0.00    -0.039 C  
BRANCH   4   5
HETATM    5  N   UNL     1      -8.426   6.854  67.010  1.00  0.00    -0.120 NA 
HETATM    6  H   UNL     1      -7.559   7.390  67.046  1.00  0.00     0.000 HD 
BRANCH   5   7
HETATM    7  C   UNL     1      -9.061   6.476  68.190  1.00  0.00    -0.114 A  
HETATM    8  C   UNL     1      -9.852   7.353  68.965  1.00  0.00    -0.168 A  
HETATM    9  C   UNL     1      -9.474   3.176  69.996  1.00  0.00    -0.148 C  
HETATM   10  C   UNL     1     -10.523   6.836  70.098  1.00  0.00    -0.209 A  
HETATM   11  O   UNL     1      -9.564   2.834  71.294  1.00  0.00    -0.144 OA 
HETATM   12  O   UNL     1      -9.257   2.367  69.109  1.00  0.00    -0.115 OA 
HETATM   13  C   UNL     1     -10.421   5.481  70.473  1.00  0.00    -0.347 A  
HETATM   14  C   UNL     1      -9.620   4.629  69.727  1.00  0.00    -0.258 A  
HETATM   15  C   UNL     1      -8.961   5.132  68.606  1.00  0.00    -0.122 A  
BRANCH   8  16
HETATM   16  O   UNL     1      -9.845   8.722  68.790  1.00  0.00    -0.163 OA 
BRANCH  16  17
HETATM   17  C   UNL     1      -8.707   9.488  68.898  1.00  0.00    -0.133 A  
HETATM   18  C   UNL     1      -6.989  10.252  70.450  1.00  0.00    -0.081 A  
HETATM   19  C   UNL     1      -6.318  10.886  69.402  1.00  0.00    -0.070 A  
HETATM   20  C   UNL     1      -8.057  10.165  67.870  1.00  0.00    -0.109 A  
HETATM   21  C   UNL     1      -8.172   9.553  70.195  1.00  0.00    -0.192 A  
HETATM   22  C   UNL     1      -6.852  10.838  68.119  1.00  0.00    -0.068 A  
ENDBRANCH  16  17
ENDBRANCH   8  16
BRANCH  10  23
HETATM   23  S   UNL     1     -11.568   7.867  71.082  1.00  0.00    -0.280 S  
HETATM   24  O   UNL     1     -12.756   7.139  71.461  1.00  0.00    -0.362 OA 
HETATM   25  H2  UNL     1      -9.727   7.770  72.679  1.00  0.00     0.000 HD 
HETATM   26  H1  UNL     1     -11.262   8.718  73.027  1.00  0.00     0.000 HD 
HETATM   27  N   UNL     1     -10.659   8.123  72.459  1.00  0.00    -0.318 N  
HETATM   28  O   UNL     1     -11.652   9.167  70.447  1.00  0.00    -0.242 OA 
ENDBRANCH  10  23
ENDBRANCH   5   7
ENDBRANCH   4   5
ENDBRANCH   3   4
ENDBRANCH   2   3
TORSDOF 7
ENDMDL
MODEL      197
REMARK 921   NORMALIZED FREE ENERGY PREDICTED BY IDOCK:   -2.49 KCAL/MOL
REMARK 922        TOTAL FREE ENERGY PREDICTED BY IDOCK:   -4.28 KCAL/MOL
REMARK 923 INTER-LIGAND FREE ENERGY PREDICTED BY IDOCK:   -3.77 KCAL/MOL
REMARK 924 INTRA-LIGAND FREE ENERGY PREDICTED BY IDOCK:   -0.51 KCAL/MOL
REMARK 927      BINDING AFFINITY PREDICTED BY RF-SCORE:    0.00 PKD
ROOT
HETATM    1  C   UNL     1     -11.939  12.387  68.216  1.00  0.00    -0.270 C  
HETATM    2  C   UNL     1     -11.288  12.746  66.893  1.00  0.00    -0.371 C  
ENDROOT
BRANCH   2   3
HETATM    3  C   UNL     1      -9.765  12.604  66.976  1.00  0.00    -0.225 C  
BRANCH   3   4
HETATM    4  C   UNL     1      -9.361  11.877  68.249  1.00  0.00    -0.193 C  
BRANCH   4   5
HETATM    5  N   UNL     1      -8.110  11.141  68.081  1.00  0.00    -0.122 NA 
HETATM    6  H   UNL     1      -7.347  11.546  67.537  1.00  0.00     0.000 HD 
BRANCH   5   7
HETATM    7  C   UNL     1      -7.960   9.886  68.665  1.00  0.00    -0.087 A  
HETATM    8  C   UNL     1      -8.357   8.683  68.041  1.00  0.00    -0.123 A  
HETATM    9  C   UNL     1      -6.311   8.662  71.844  1.00  0.00    -0.073 C  
HETATM   10  C   UNL     1      -8.074   7.459  68.689  1.00  0.00    -0.125 A  
HETATM   11  O   UNL     1      -6.578   7.660  72.700  1.00  0.00    -0.058 OA 
HETATM   12  O   UNL     1      -5.548   9.576  72.108  1.00  0.00    -0.148 OA 
HETATM   13  C   UNL     1      -7.415   7.408  69.934  1.00  0.00    -0.085 A  
HETATM   14  C   UNL     1      -7.051   8.593  70.559  1.00  0.00    -0.044 A  
HETATM   15  C   UNL     1      -7.323   9.802  69.921  1.00  0.00    -0.134 A  
BRANCH   8  16
HETATM   16  O   UNL     1      -9.179   8.650  66.933  1.00  0.00    -0.146 OA 
BRANCH  16  17
HETATM   17  C   UNL     1      -8.834   9.209  65.723  1.00  0.00    -0.175 A  
HETATM   18  C   UNL     1      -7.035   9.411  64.091  1.00  0.00    -0.099 A  
HETATM   19  C   UNL     1      -7.881  10.126  63.240  1.00  0.00    -0.155 A  
HETATM   20  C   UNL     1      -9.654   9.965  64.890  1.00  0.00    -0.356 A  
HETATM   21  C   UNL     1      -7.514   8.952  65.320  1.00  0.00    -0.089 A  
HETATM   22  C   UNL     1      -9.185  10.398  63.641  1.00  0.00    -0.310 A  
ENDBRANCH  16  17
ENDBRANCH   8  16
BRANCH  10  23
HETATM   23  S   UNL     1      -8.500   5.916  67.941  1.00  0.00    -0.106 S  
HETATM   24  O   UNL     1      -9.868   5.957  67.479  1.00  0.00    -0.114 OA 
HETATM   25  H2  UNL     1      -6.818   6.546  66.290  1.00  0.00     0.000 HD 
HETATM   26  H1  UNL     1      -7.750   4.968  66.168  1.00  0.00     0.000 HD 
HETATM   27  N   UNL     1      -7.505   5.858  66.600  1.00  0.00    -0.086 N  
HETATM   28  O   UNL     1      -8.026   4.849  68.799  1.00  0.00    -0.080 OA 
ENDBRANCH  10  23
ENDBRANCH   5   7
ENDBRANCH   4   5
ENDBRANCH   3   4
ENDBRANCH   2   3
TORSDOF 7
ENDMDL
MODEL      198
REMARK 921   NORMALIZED FREE ENERGY PREDICTED BY IDOCK:   -2.49 KCAL/MOL
REMARK 922        TOTAL FREE ENERGY PREDICTED BY IDOCK:   -4.28 KCAL/MOL
REMARK 923 INTER-LIGAND FREE ENERGY PREDICTED BY IDOCK:   -4.09 KCAL/MOL
REMARK 924 INTRA-LIGAND FREE ENERGY PREDICTED BY IDOCK:   -0.19 KCAL/MOL
REMARK 927      BINDING AFFINITY PREDICTED BY RF-SCORE:    0.00 PKD
ROOT
HETATM    1  C   UNL     1     -11.633  12.030  68.403  1.00  0.00    -0.368 C  
HETATM    2  C   UNL     1     -11.381  11.825  66.920  1.00  0.00    -0.386 C  
ENDROOT
BRANCH   2   3
HETATM    3  C   UNL     1     -10.473  10.614  66.683  1.00  0.00    -0.296 C  
BRANCH   3   4
HETATM    4  C   UNL     1     -10.793   9.499  67.665  1.00  0.00    -0.187 C  
BRANCH   4   5
HETATM    5  N   UNL     1     -10.102   8.258  67.324  1.00  0.00    -0.221 NA 
HETATM    6  H   UNL     1     -10.086   7.930  66.358  1.00  0.00     0.000 HD 
BRANCH   5   7
HETATM    7  C   UNL     1      -9.464   7.523  68.320  1.00  0.00    -0.144 A  
HETATM    8  C   UNL     1      -9.332   6.117  68.288  1.00  0.00    -0.116 A  
HETATM    9  C   UNL     1      -7.505   8.467  71.417  1.00  0.00    -0.094 C  
HETATM   10  C   UNL     1      -8.586   5.484  69.309  1.00  0.00    -0.104 A  
HETATM   11  O   UNL     1      -7.355   7.900  72.628  1.00  0.00    -0.083 OA 
HETATM   12  O   UNL     1      -7.181   9.618  71.177  1.00  0.00    -0.328 OA 
HETATM   13  C   UNL     1      -7.980   6.213  70.352  1.00  0.00    -0.108 A  
HETATM   14  C   UNL     1      -8.136   7.591  70.397  1.00  0.00    -0.111 A  
HETATM   15  C   UNL     1      -8.865   8.220  69.390  1.00  0.00    -0.146 A  
BRANCH   8  16
HETATM   16  O   UNL     1     -10.055   5.316  67.427  1.00  0.00    -0.164 OA 
BRANCH  16  17
HETATM   17  C   UNL     1      -9.656   5.045  66.138  1.00  0.00    -0.168 A  
HETATM   18  C   UNL     1      -7.952   5.526  64.463  1.00  0.00    -0.119 A  
HETATM   19  C   UNL     1      -8.540   4.606  63.593  1.00  0.00    -0.132 A  
HETATM   20  C   UNL     1     -10.264   4.167  65.245  1.00  0.00    -0.204 A  
HETATM   21  C   UNL     1      -8.505   5.737  65.729  1.00  0.00    -0.143 A  
HETATM   22  C   UNL     1      -9.690   3.930  63.988  1.00  0.00    -0.167 A  
ENDBRANCH  16  17
ENDBRANCH   8  16
BRANCH  10  23
HETATM   23  S   UNL     1      -8.339   3.734  69.301  1.00  0.00    -0.065 S  
HETATM   24  O   UNL     1      -9.571   3.069  68.945  1.00  0.00    -0.147 OA 
HETATM   25  H2  UNL     1      -6.833   4.213  67.444  1.00  0.00     0.000 HD 
HETATM   26  H1  UNL     1      -7.110   2.501  68.049  1.00  0.00     0.000 HD 
HETATM   27  N   UNL     1      -7.252   3.511  68.053  1.00  0.00    -0.051 N  
HETATM   28  O   UNL     1      -7.607   3.374  70.499  1.00  0.00    -0.040 OA 
ENDBRANCH  10  23
ENDBRANCH   5   7
ENDBRANCH   4   5
ENDBRANCH   3   4
ENDBRANCH   2   3
TORSDOF 7
ENDMDL
MODEL      199
REMARK 921   NORMALIZED FREE ENERGY PREDICTED BY IDOCK:   -2.30 KCAL/MOL
REMARK 922        TOTAL FREE ENERGY PREDICTED BY IDOCK:   -4.00 KCAL/MOL
REMARK 923 INTER-LIGAND FREE ENERGY PREDICTED BY IDOCK:   -3.87 KCAL/MOL
REMARK 924 INTRA-LIGAND FREE ENERGY PREDICTED BY IDOCK:   -0.14 KCAL/MOL
REMARK 927      BINDING AFFINITY PREDICTED BY RF-SCORE:    0.00 PKD
ROOT
HETATM    1  C   UNL     1     -11.149  11.833  63.658  1.00  0.00    -0.518 C  
HETATM    2  C   UNL     1      -9.832  11.444  63.013  1.00  0.00    -0.373 C  
ENDROOT
BRANCH   2   3
HETATM    3  C   UNL     1      -9.233  10.211  63.695  1.00  0.00    -0.320 C  
BRANCH   3   4
HETATM    4  C   UNL     1      -9.898   9.961  65.039  1.00  0.00    -0.252 C  
BRANCH   4   5
HETATM    5  N   UNL     1      -8.941   9.510  66.045  1.00  0.00    -0.154 NA 
HETATM    6  H   UNL     1      -8.245  10.157  66.416  1.00  0.00     0.000 HD 
BRANCH   5   7
HETATM    7  C   UNL     1      -8.979   8.194  66.499  1.00  0.00    -0.158 A  
HETATM    8  C   UNL     1      -9.249   7.839  67.839  1.00  0.00    -0.137 A  
HETATM    9  C   UNL     1      -8.752   4.829  64.782  1.00  0.00    -0.153 C  
HETATM   10  C   UNL     1      -9.352   6.467  68.168  1.00  0.00    -0.109 A  
HETATM   11  O   UNL     1      -8.253   3.635  65.145  1.00  0.00    -0.096 OA 
HETATM   12  O   UNL     1      -9.035   5.108  63.628  1.00  0.00    -0.043 OA 
HETATM   13  C   UNL     1      -9.190   5.453  67.202  1.00  0.00    -0.111 A  
HETATM   14  C   UNL     1      -8.896   5.805  65.892  1.00  0.00    -0.153 A  
HETATM   15  C   UNL     1      -8.799   7.155  65.562  1.00  0.00     0.017 A  
BRANCH   8  16
HETATM   16  O   UNL     1      -9.221   8.749  68.875  1.00  0.00    -0.141 OA 
BRANCH  16  17
HETATM   17  C   UNL     1      -8.108   9.494  69.192  1.00  0.00    -0.103 A  
HETATM   18  C   UNL     1      -5.819   9.357  70.021  1.00  0.00    -0.035 A  
HETATM   19  C   UNL     1      -5.659  10.730  69.820  1.00  0.00    -0.044 A  
HETATM   20  C   UNL     1      -7.955  10.870  69.043  1.00  0.00    -0.131 A  
HETATM   21  C   UNL     1      -7.034   8.746  69.701  1.00  0.00    -0.050 A  
HETATM   22  C   UNL     1      -6.725  11.478  69.331  1.00  0.00    -0.116 A  
ENDBRANCH  16  17
ENDBRANCH   8  16
BRANCH  10  23
HETATM   23  S   UNL     1      -9.737   5.955  69.815  1.00  0.00    -0.167 S  
HETATM   24  O   UNL     1     -10.191   4.584  69.807  1.00  0.00    -0.201 OA 
HETATM   25  H2  UNL     1      -7.348   6.265  70.195  1.00  0.00     0.000 HD 
HETATM   26  H1  UNL     1      -8.477   5.708  71.533  1.00  0.00     0.000 HD 
HETATM   27  N   UNL     1      -8.255   6.004  70.583  1.00  0.00    -0.119 N  
HETATM   28  O   UNL     1     -10.515   7.002  70.446  1.00  0.00    -0.201 OA 
ENDBRANCH  10  23
ENDBRANCH   5   7
ENDBRANCH   4   5
ENDBRANCH   3   4
ENDBRANCH   2   3
TORSDOF 7
ENDMDL
MODEL      200
REMARK 921   NORMALIZED FREE ENERGY PREDICTED BY IDOCK:   -2.27 KCAL/MOL
REMARK 922        TOTAL FREE ENERGY PREDICTED BY IDOCK:   -3.97 KCAL/MOL
REMARK 923 INTER-LIGAND FREE ENERGY PREDICTED BY IDOCK:   -4.42 KCAL/MOL
REMARK 924 INTRA-LIGAND FREE ENERGY PREDICTED BY IDOCK:    0.45 KCAL/MOL
REMARK 927      BINDING AFFINITY PREDICTED BY RF-SCORE:    0.00 PKD
ROOT
HETATM    1  C   UNL     1      -9.741  10.720  62.760  1.00  0.00    -0.297 C  
HETATM    2  C   UNL     1      -9.818  12.022  63.535  1.00  0.00    -0.314 C  
ENDROOT
BRANCH   2   3
HETATM    3  C   UNL     1     -11.254  12.303  63.990  1.00  0.00    -0.456 C  
BRANCH   3   4
HETATM    4  C   UNL     1     -11.393  13.735  64.481  1.00  0.00    -0.380 C  
BRANCH   4   5
HETATM    5  N   UNL     1     -10.598  13.979  65.682  1.00  0.00    -0.295 NA 
HETATM    6  H   UNL     1     -10.238  14.914  65.876  1.00  0.00     0.000 HD 
BRANCH   5   7
HETATM    7  C   UNL     1     -10.331  12.933  66.561  1.00  0.00    -0.264 A  
HETATM    8  C   UNL     1     -11.144  12.625  67.675  1.00  0.00    -0.263 A  
HETATM    9  C   UNL     1      -7.760  10.156  66.620  1.00  0.00    -0.106 C  
HETATM   10  C   UNL     1     -10.827  11.484  68.449  1.00  0.00    -0.211 A  
HETATM   11  O   UNL     1      -7.117   9.509  67.608  1.00  0.00    -0.080 OA 
HETATM   12  O   UNL     1      -7.410  10.104  65.453  1.00  0.00    -0.133 OA 
HETATM   13  C   UNL     1      -9.728  10.656  68.143  1.00  0.00    -0.167 A  
HETATM   14  C   UNL     1      -8.914  10.978  67.066  1.00  0.00    -0.151 A  
HETATM   15  C   UNL     1      -9.226  12.098  66.297  1.00  0.00    -0.183 A  
BRANCH   8  16
HETATM   16  O   UNL     1     -12.107  13.485  68.161  1.00  0.00    -0.346 OA 
BRANCH  16  17
HETATM   17  C   UNL     1     -11.845  14.450  69.107  1.00  0.00    -0.323 A  
HETATM   18  C   UNL     1     -12.755  15.587  71.062  1.00  0.00    -0.526 A  
HETATM   19  C   UNL     1     -11.555  16.282  71.222  1.00  0.00    -0.402 A  
HETATM   20  C   UNL     1     -10.671  15.185  69.245  1.00  0.00    -0.250 A  
HETATM   21  C   UNL     1     -12.893  14.672  70.015  1.00  0.00    -0.094 A  
HETATM   22  C   UNL     1     -10.519  16.077  70.317  1.00  0.00    -0.115 A  
ENDBRANCH  16  17
ENDBRANCH   8  16
BRANCH  10  23
HETATM   23  S   UNL     1     -11.831  11.013  69.824  1.00  0.00    -0.377 S  
HETATM   24  O   UNL     1     -13.221  11.261  69.522  1.00  0.00     0.401 OA 
HETATM   25  H2  UNL     1     -11.031   8.767  69.310  1.00  0.00     0.000 HD 
HETATM   26  H1  UNL     1     -12.186   9.088  70.702  1.00  0.00     0.000 HD 
HETATM   27  N   UNL     1     -11.607   9.360  69.908  1.00  0.00    -0.027 N  
HETATM   28  O   UNL     1     -11.219  11.531  71.032  1.00  0.00     0.944 OA 
ENDBRANCH  10  23
ENDBRANCH   5   7
ENDBRANCH   4   5
ENDBRANCH   3   4
ENDBRANCH   2   3
TORSDOF 7
ENDMDL
MODEL      201
REMARK 921   NORMALIZED FREE ENERGY PREDICTED BY IDOCK:   -2.25 KCAL/MOL
REMARK 922        TOTAL FREE ENERGY PREDICTED BY IDOCK:   -3.94 KCAL/MOL
REMARK 923 INTER-LIGAND FREE ENERGY PREDICTED BY IDOCK:   -3.37 KCAL/MOL
REMARK 924 INTRA-LIGAND FREE ENERGY PREDICTED BY IDOCK:   -0.57 KCAL/MOL
REMARK 927      BINDING AFFINITY PREDICTED BY RF-SCORE:    0.00 PKD
ROOT
HETATM    1  C   UNL     1      -5.284   7.026  74.496  1.00  0.00    -0.054 C  
HETATM    2  C   UNL     1      -6.791   7.026  74.317  1.00  0.00    -0.085 C  
ENDROOT
BRANCH   2   3
HETATM    3  C   UNL     1      -7.255   8.292  73.590  1.00  0.00    -0.171 C  
BRANCH   3   4
HETATM    4  C   UNL     1      -8.627   8.086  72.969  1.00  0.00    -0.204 C  
BRANCH   4   5
HETATM    5  N   UNL     1      -8.572   8.096  71.509  1.00  0.00    -0.127 NA 
HETATM    6  H   UNL     1      -8.493   8.981  71.007  1.00  0.00     0.000 HD 
BRANCH   5   7
HETATM    7  C   UNL     1      -8.626   6.897  70.804  1.00  0.00    -0.144 A  
HETATM    8  C   UNL     1      -8.245   6.771  69.450  1.00  0.00    -0.128 A  
HETATM    9  C   UNL     1      -9.416   3.326  71.777  1.00  0.00    -0.145 C  
HETATM   10  C   UNL     1      -8.256   5.485  68.861  1.00  0.00    -0.099 A  
HETATM   11  O   UNL     1      -9.999   2.298  71.135  1.00  0.00    -0.097 OA 
HETATM   12  O   UNL     1      -9.238   3.341  72.984  1.00  0.00    -0.090 OA 
HETATM   13  C   UNL     1      -8.638   4.336  69.583  1.00  0.00    -0.103 A  
HETATM   14  C   UNL     1      -9.040   4.467  70.905  1.00  0.00    -0.185 A  
HETATM   15  C   UNL     1      -9.025   5.731  71.491  1.00  0.00    -0.146 A  
BRANCH   8  16
HETATM   16  O   UNL     1      -8.054   7.857  68.621  1.00  0.00    -0.122 OA 
BRANCH  16  17
HETATM   17  C   UNL     1      -8.981   8.863  68.474  1.00  0.00    -0.134 A  
HETATM   18  C   UNL     1      -9.285  11.282  68.518  1.00  0.00    -0.181 A  
HETATM   19  C   UNL     1     -10.618  11.126  68.129  1.00  0.00    -0.227 A  
HETATM   20  C   UNL     1     -10.324   8.716  68.136  1.00  0.00    -0.267 A  
HETATM   21  C   UNL     1      -8.474  10.156  68.681  1.00  0.00    -0.122 A  
HETATM   22  C   UNL     1     -11.130   9.847  67.939  1.00  0.00    -0.216 A  
ENDBRANCH  16  17
ENDBRANCH   8  16
BRANCH  10  23
HETATM   23  S   UNL     1      -7.743   5.249  67.187  1.00  0.00    -0.097 S  
HETATM   24  O   UNL     1      -8.425   6.191  66.330  1.00  0.00    -0.121 OA 
HETATM   25  H2  UNL     1      -5.569   5.976  68.020  1.00  0.00     0.000 HD 
HETATM   26  H1  UNL     1      -5.830   5.527  66.258  1.00  0.00     0.000 HD 
HETATM   27  N   UNL     1      -6.125   5.663  67.224  1.00  0.00    -0.028 N  
HETATM   28  O   UNL     1      -7.755   3.828  66.904  1.00  0.00    -0.079 OA 
ENDBRANCH  10  23
ENDBRANCH   5   7
ENDBRANCH   4   5
ENDBRANCH   3   4
ENDBRANCH   2   3
TORSDOF 7
ENDMDL
MODEL      202
REMARK 921   NORMALIZED FREE ENERGY PREDICTED BY IDOCK:   -1.90 KCAL/MOL
REMARK 922        TOTAL FREE ENERGY PREDICTED BY IDOCK:   -3.45 KCAL/MOL
REMARK 923 INTER-LIGAND FREE ENERGY PREDICTED BY IDOCK:   -3.99 KCAL/MOL
REMARK 924 INTRA-LIGAND FREE ENERGY PREDICTED BY IDOCK:    0.54 KCAL/MOL
REMARK 927      BINDING AFFINITY PREDICTED BY RF-SCORE:    0.00 PKD
ROOT
HETATM    1  C   UNL     1      -8.798  19.629  66.236  1.00  0.00    -0.410 C  
HETATM    2  C   UNL     1     -10.204  19.957  66.706  1.00  0.00    -0.603 C  
ENDROOT
BRANCH   2   3
HETATM    3  C   UNL     1     -11.154  18.784  66.446  1.00  0.00     0.262 C  
BRANCH   3   4
HETATM    4  C   UNL     1     -10.626  17.898  65.329  1.00  0.00     0.286 C  
BRANCH   4   5
HETATM    5  N   UNL     1      -9.612  16.963  65.810  1.00  0.00    -0.540 NA 
HETATM    6  H   UNL     1      -8.672  16.978  65.412  1.00  0.00     0.000 HD 
BRANCH   5   7
HETATM    7  C   UNL     1      -9.930  16.050  66.811  1.00  0.00    -0.258 A  
HETATM    8  C   UNL     1      -9.737  14.656  66.686  1.00  0.00    -0.270 A  
HETATM    9  C   UNL     1     -11.127  16.400  70.385  1.00  0.00    -0.233 C  
HETATM   10  C   UNL     1     -10.013  13.832  67.802  1.00  0.00    -0.242 A  
HETATM   11  O   UNL     1     -11.930  15.661  71.170  1.00  0.00    -0.336 OA 
HETATM   12  O   UNL     1     -10.805  17.546  70.654  1.00  0.00     0.719 OA 
HETATM   13  C   UNL     1     -10.474  14.360  69.025  1.00  0.00    -0.227 A  
HETATM   14  C   UNL     1     -10.690  15.726  69.136  1.00  0.00    -0.246 A  
HETATM   15  C   UNL     1     -10.415  16.543  68.041  1.00  0.00    -0.313 A  
BRANCH   8  16
HETATM   16  O   UNL     1      -9.486  14.040  65.477  1.00  0.00    -0.070 OA 
BRANCH  16  17
HETATM   17  C   UNL     1     -10.482  13.588  64.642  1.00  0.00    -0.421 A  
HETATM   18  C   UNL     1     -11.039  11.890  62.983  1.00  0.00    -0.085 A  
HETATM   19  C   UNL     1     -12.348  12.375  62.920  1.00  0.00     0.199 A  
HETATM   20  C   UNL     1     -11.774  14.094  64.535  1.00  0.00    -0.426 A  
HETATM   21  C   UNL     1     -10.118  12.491  63.844  1.00  0.00    -0.308 A  
HETATM   22  C   UNL     1     -12.710  13.471  63.696  1.00  0.00     0.099 A  
ENDBRANCH  16  17
ENDBRANCH   8  16
BRANCH  10  23
HETATM   23  S   UNL     1      -9.746  12.086  67.729  1.00  0.00    -0.197 S  
HETATM   24  O   UNL     1      -8.350  11.816  67.477  1.00  0.00    -0.141 OA 
HETATM   25  H2  UNL     1     -10.394  12.148  70.080  1.00  0.00     0.000 HD 
HETATM   26  H1  UNL     1      -9.943  10.577  69.240  1.00  0.00     0.000 HD 
HETATM   27  N   UNL     1     -10.097  11.584  69.283  1.00  0.00     0.031 N  
HETATM   28  O   UNL     1     -10.786  11.502  66.907  1.00  0.00    -0.256 OA 
ENDBRANCH  10  23
ENDBRANCH   5   7
ENDBRANCH   4   5
ENDBRANCH   3   4
ENDBRANCH   2   3
TORSDOF 7
ENDMDL
MODEL      203
REMARK 921   NORMALIZED FREE ENERGY PREDICTED BY IDOCK:   -1.86 KCAL/MOL
REMARK 922        TOTAL FREE ENERGY PREDICTED BY IDOCK:   -3.38 KCAL/MOL
REMARK 923 INTER-LIGAND FREE ENERGY PREDICTED BY IDOCK:   -4.03 KCAL/MOL
REMARK 924 INTRA-LIGAND FREE ENERGY PREDICTED BY IDOCK:    0.65 KCAL/MOL
REMARK 927      BINDING AFFINITY PREDICTED BY RF-SCORE:    0.00 PKD
ROOT
HETATM    1  C   UNL     1     -14.092   9.204  71.719  1.00  0.00    -0.313 C  
HETATM    2  C   UNL     1     -12.959   8.382  71.133  1.00  0.00    -0.065 C  
ENDROOT
BRANCH   2   3
HETATM    3  C   UNL     1     -11.962   7.972  72.220  1.00  0.00    -0.412 C  
BRANCH   3   4
HETATM    4  C   UNL     1     -10.532   8.121  71.725  1.00  0.00    -0.242 C  
BRANCH   4   5
HETATM    5  N   UNL     1     -10.299   9.431  71.122  1.00  0.00    -0.315 NA 
HETATM    6  H   UNL     1     -10.448  10.279  71.668  1.00  0.00     0.000 HD 
BRANCH   5   7
HETATM    7  C   UNL     1      -9.872   9.519  69.800  1.00  0.00    -0.215 A  
HETATM    8  C   UNL     1      -9.253   8.455  69.108  1.00  0.00    -0.150 A  
HETATM    9  C   UNL     1     -10.199  12.170  67.118  1.00  0.00    -0.210 C  
HETATM   10  C   UNL     1      -8.942   8.628  67.739  1.00  0.00    -0.136 A  
HETATM   11  O   UNL     1      -9.412  12.560  66.100  1.00  0.00    -0.237 OA 
HETATM   12  O   UNL     1     -11.139  12.832  67.524  1.00  0.00    -0.244 OA 
HETATM   13  C   UNL     1      -9.227   9.826  67.054  1.00  0.00    -0.166 A  
HETATM   14  C   UNL     1      -9.809  10.881  67.744  1.00  0.00    -0.194 A  
HETATM   15  C   UNL     1     -10.122  10.713  69.091  1.00  0.00    -0.234 A  
BRANCH   8  16
HETATM   16  O   UNL     1      -8.759   7.334  69.744  1.00  0.00    -0.140 OA 
BRANCH  16  17
HETATM   17  C   UNL     1      -7.583   7.332  70.458  1.00  0.00    -0.088 A  
HETATM   18  C   UNL     1      -6.074   5.929  71.762  1.00  0.00    -0.036 A  
HETATM   19  C   UNL     1      -5.180   6.996  71.885  1.00  0.00    -0.032 A  
HETATM   20  C   UNL     1      -6.709   8.403  70.629  1.00  0.00    -0.038 A  
HETATM   21  C   UNL     1      -7.263   6.098  71.047  1.00  0.00    -0.075 A  
HETATM   22  C   UNL     1      -5.500   8.225  71.317  1.00  0.00    -0.033 A  
ENDBRANCH  16  17
ENDBRANCH   8  16
BRANCH  10  23
HETATM   23  S   UNL     1      -8.212   7.319  66.801  1.00  0.00    -0.124 S  
HETATM   24  O   UNL     1      -7.381   6.508  67.659  1.00  0.00    -0.090 OA 
HETATM   25  H2  UNL     1     -10.517   6.559  66.553  1.00  0.00     0.000 HD 
HETATM   26  H1  UNL     1      -9.110   5.647  65.801  1.00  0.00     0.000 HD 
HETATM   27  N   UNL     1      -9.531   6.402  66.342  1.00  0.00    -0.157 N  
HETATM   28  O   UNL     1      -7.701   7.877  65.565  1.00  0.00    -0.090 OA 
ENDBRANCH  10  23
ENDBRANCH   5   7
ENDBRANCH   4   5
ENDBRANCH   3   4
ENDBRANCH   2   3
TORSDOF 7
ENDMDL
MODEL      204
REMARK 921   NORMALIZED FREE ENERGY PREDICTED BY IDOCK:   -1.84 KCAL/MOL
REMARK 922        TOTAL FREE ENERGY PREDICTED BY IDOCK:   -3.35 KCAL/MOL
REMARK 923 INTER-LIGAND FREE ENERGY PREDICTED BY IDOCK:   -3.13 KCAL/MOL
REMARK 924 INTRA-LIGAND FREE ENERGY PREDICTED BY IDOCK:   -0.23 KCAL/MOL
REMARK 927      BINDING AFFINITY PREDICTED BY RF-SCORE:    0.00 PKD
ROOT
HETATM    1  C   UNL     1      -5.731   8.510  73.859  1.00  0.00    -0.109 C  
HETATM    2  C   UNL     1      -6.724   8.250  72.740  1.00  0.00    -0.109 C  
ENDROOT
BRANCH   2   3
HETATM    3  C   UNL     1      -6.256   8.898  71.433  1.00  0.00    -0.064 C  
BRANCH   3   4
HETATM    4  C   UNL     1      -7.440   9.425  70.638  1.00  0.00    -0.136 C  
BRANCH   4   5
HETATM    5  N   UNL     1      -7.482   8.866  69.289  1.00  0.00    -0.073 NA 
HETATM    6  H   UNL     1      -7.161   9.421  68.496  1.00  0.00     0.000 HD 
BRANCH   5   7
HETATM    7  C   UNL     1      -7.960   7.575  69.088  1.00  0.00    -0.121 A  
HETATM    8  C   UNL     1      -7.757   6.845  67.896  1.00  0.00    -0.112 A  
HETATM    9  C   UNL     1      -9.709   5.058  71.310  1.00  0.00    -0.173 C  
HETATM   10  C   UNL     1      -8.211   5.507  67.837  1.00  0.00    -0.100 A  
HETATM   11  O   UNL     1     -10.631   4.106  71.085  1.00  0.00     0.187 OA 
HETATM   12  O   UNL     1      -9.428   5.461  72.427  1.00  0.00    -0.143 OA 
HETATM   13  C   UNL     1      -8.859   4.888  68.925  1.00  0.00    -0.115 A  
HETATM   14  C   UNL     1      -9.083   5.617  70.085  1.00  0.00    -0.159 A  
HETATM   15  C   UNL     1      -8.632   6.934  70.151  1.00  0.00    -0.141 A  
BRANCH   8  16
HETATM   16  O   UNL     1      -7.320   7.429  66.725  1.00  0.00    -0.087 OA 
BRANCH  16  17
HETATM   17  C   UNL     1      -8.051   8.369  66.035  1.00  0.00    -0.104 A  
HETATM   18  C   UNL     1     -10.196   9.525  65.957  1.00  0.00    -0.242 A  
HETATM   19  C   UNL     1      -9.740  10.310  64.895  1.00  0.00    -0.385 A  
HETATM   20  C   UNL     1      -7.624   9.121  64.944  1.00  0.00    -0.107 A  
HETATM   21  C   UNL     1      -9.352   8.567  66.525  1.00  0.00    -0.260 A  
HETATM   22  C   UNL     1      -8.458  10.107  64.396  1.00  0.00    -0.179 A  
ENDBRANCH  16  17
ENDBRANCH   8  16
BRANCH  10  23
HETATM   23  S   UNL     1      -7.945   4.522  66.394  1.00  0.00    -0.103 S  
HETATM   24  O   UNL     1      -6.528   4.357  66.169  1.00  0.00    -0.039 OA 
HETATM   25  H2  UNL     1      -9.008   2.765  67.711  1.00  0.00     0.000 HD 
HETATM   26  H1  UNL     1      -8.422   2.468  65.995  1.00  0.00     0.000 HD 
HETATM   27  N   UNL     1      -8.575   3.037  66.828  1.00  0.00    -0.106 N  
HETATM   28  O   UNL     1      -8.823   5.004  65.346  1.00  0.00    -0.144 OA 
ENDBRANCH  10  23
ENDBRANCH   5   7
ENDBRANCH   4   5
ENDBRANCH   3   4
ENDBRANCH   2   3
TORSDOF 7
ENDMDL
MODEL      205
REMARK 921   NORMALIZED FREE ENERGY PREDICTED BY IDOCK:   -1.73 KCAL/MOL
REMARK 922        TOTAL FREE ENERGY PREDICTED BY IDOCK:   -3.21 KCAL/MOL
REMARK 923 INTER-LIGAND FREE ENERGY PREDICTED BY IDOCK:   -3.60 KCAL/MOL
REMARK 924 INTRA-LIGAND FREE ENERGY PREDICTED BY IDOCK:    0.39 KCAL/MOL
REMARK 927      BINDING AFFINITY PREDICTED BY RF-SCORE:    0.00 PKD
ROOT
HETATM    1  C   UNL     1      -5.219  15.656  67.964  1.00  0.00    -0.132 C  
HETATM    2  C   UNL     1      -5.881  14.380  68.451  1.00  0.00    -0.105 C  
ENDROOT
BRANCH   2   3
HETATM    3  C   UNL     1      -7.230  14.165  67.759  1.00  0.00    -0.187 C  
BRANCH   3   4
HETATM    4  C   UNL     1      -8.209  15.267  68.133  1.00  0.00    -0.141 C  
BRANCH   4   5
HETATM    5  N   UNL     1      -9.555  14.990  67.638  1.00  0.00    -0.202 NA 
HETATM    6  H   UNL     1     -10.241  15.743  67.572  1.00  0.00     0.000 HD 
BRANCH   5   7
HETATM    7  C   UNL     1      -9.901  13.697  67.255  1.00  0.00    -0.241 A  
HETATM    8  C   UNL     1     -10.459  12.746  68.137  1.00  0.00    -0.236 A  
HETATM    9  C   UNL     1      -9.964  11.882  63.934  1.00  0.00    -0.329 C  
HETATM   10  C   UNL     1     -10.855  11.491  67.617  1.00  0.00    -0.227 A  
HETATM   11  O   UNL     1      -9.751  10.605  63.572  1.00  0.00    -0.291 OA 
HETATM   12  O   UNL     1      -9.988  12.804  63.136  1.00  0.00     0.060 OA 
HETATM   13  C   UNL     1     -10.704  11.167  66.254  1.00  0.00    -0.298 A  
HETATM   14  C   UNL     1     -10.129  12.093  65.395  1.00  0.00    -0.282 A  
HETATM   15  C   UNL     1      -9.742  13.332  65.901  1.00  0.00    -0.188 A  
BRANCH   8  16
HETATM   16  O   UNL     1     -10.455  12.902  69.508  1.00  0.00     0.258 OA 
BRANCH  16  17
HETATM   17  C   UNL     1     -11.240  13.824  70.162  1.00  0.00     0.154 A  
HETATM   18  C   UNL     1     -13.498  14.266  70.971  1.00  0.00    -0.274 A  
HETATM   19  C   UNL     1     -13.060  15.457  71.554  1.00  0.00    -0.545 A  
HETATM   20  C   UNL     1     -10.825  15.038  70.704  1.00  0.00    -0.134 A  
HETATM   21  C   UNL     1     -12.589  13.454  70.286  1.00  0.00    -0.187 A  
HETATM   22  C   UNL     1     -11.729  15.836  71.420  1.00  0.00    -0.508 A  
ENDBRANCH  16  17
ENDBRANCH   8  16
BRANCH  10  23
HETATM   23  S   UNL     1     -11.605  10.274  68.656  1.00  0.00     0.101 S  
HETATM   24  O   UNL     1     -11.627   8.999  67.978  1.00  0.00     0.775 OA 
HETATM   25  H2  UNL     1      -9.667  10.669  70.083  1.00  0.00     0.000 HD 
HETATM   26  H1  UNL     1     -10.973   9.458  70.536  1.00  0.00     0.000 HD 
HETATM   27  N   UNL     1     -10.539  10.160  69.937  1.00  0.00    -0.269 N  
HETATM   28  O   UNL     1     -12.809  10.845  69.226  1.00  0.00    -0.173 OA 
ENDBRANCH  10  23
ENDBRANCH   5   7
ENDBRANCH   4   5
ENDBRANCH   3   4
ENDBRANCH   2   3
TORSDOF 7
ENDMDL
MODEL      206
REMARK 921   NORMALIZED FREE ENERGY PREDICTED BY IDOCK:   -1.65 KCAL/MOL
REMARK 922        TOTAL FREE ENERGY PREDICTED BY IDOCK:   -3.10 KCAL/MOL
REMARK 923 INTER-LIGAND FREE ENERGY PREDICTED BY IDOCK:   -2.85 KCAL/MOL
REMARK 924 INTRA-LIGAND FREE ENERGY PREDICTED BY IDOCK:   -0.24 KCAL/MOL
REMARK 927      BINDING AFFINITY PREDICTED BY RF-SCORE:    0.00 PKD
ROOT
HETATM    1  C   UNL     1     -14.396   9.224  71.351  1.00  0.00     0.006 C  
HETATM    2  C   UNL     1     -13.298   8.476  70.618  1.00  0.00     0.670 C  
ENDROOT
BRANCH   2   3
HETATM    3  C   UNL     1     -12.177   8.071  71.580  1.00  0.00    -0.328 C  
BRANCH   3   4
HETATM    4  C   UNL     1     -10.815   8.389  70.984  1.00  0.00    -0.238 C  
BRANCH   4   5
HETATM    5  N   UNL     1     -10.555   9.827  70.955  1.00  0.00    -0.310 NA 
HETATM    6  H   UNL     1     -10.396  10.335  71.825  1.00  0.00     0.000 HD 
BRANCH   5   7
HETATM    7  C   UNL     1     -10.524  10.501  69.738  1.00  0.00    -0.200 A  
HETATM    8  C   UNL     1     -10.004   9.943  68.550  1.00  0.00    -0.159 A  
HETATM    9  C   UNL     1     -11.881  13.832  68.559  1.00  0.00    -0.370 C  
HETATM   10  C   UNL     1     -10.105  10.686  67.351  1.00  0.00    -0.194 A  
HETATM   11  O   UNL     1     -11.457  14.741  67.663  1.00  0.00    -0.323 OA 
HETATM   12  O   UNL     1     -12.742  14.069  69.390  1.00  0.00    -0.056 OA 
HETATM   13  C   UNL     1     -10.704  11.962  67.312  1.00  0.00    -0.276 A  
HETATM   14  C   UNL     1     -11.188  12.520  68.486  1.00  0.00    -0.322 A  
HETATM   15  C   UNL     1     -11.096  11.789  69.669  1.00  0.00    -0.139 A  
BRANCH   8  16
HETATM   16  O   UNL     1      -9.228   8.801  68.536  1.00  0.00    -0.141 OA 
BRANCH  16  17
HETATM   17  C   UNL     1      -7.896   8.793  68.884  1.00  0.00    -0.104 A  
HETATM   18  C   UNL     1      -5.875   7.429  68.900  1.00  0.00    -0.023 A  
HETATM   19  C   UNL     1      -5.142   8.513  69.389  1.00  0.00    -0.031 A  
HETATM   20  C   UNL     1      -7.167   9.852  69.418  1.00  0.00    -0.083 A  
HETATM   21  C   UNL     1      -7.241   7.574  68.644  1.00  0.00    -0.086 A  
HETATM   22  C   UNL     1      -5.790   9.717  69.643  1.00  0.00    -0.037 A  
ENDBRANCH  16  17
ENDBRANCH   8  16
BRANCH  10  23
HETATM   23  S   UNL     1      -9.519  10.025  65.820  1.00  0.00    -0.234 S  
HETATM   24  O   UNL     1      -8.088   9.845  65.882  1.00  0.00    -0.115 OA 
HETATM   25  H2  UNL     1     -10.848   8.078  66.448  1.00  0.00     0.000 HD 
HETATM   26  H1  UNL     1      -9.890   8.132  64.881  1.00  0.00     0.000 HD 
HETATM   27  N   UNL     1     -10.228   8.514  65.765  1.00  0.00     0.523 N  
HETATM   28  O   UNL     1     -10.140  10.765  64.739  1.00  0.00    -0.285 OA 
ENDBRANCH  10  23
ENDBRANCH   5   7
ENDBRANCH   4   5
ENDBRANCH   3   4
ENDBRANCH   2   3
TORSDOF 7
ENDMDL
MODEL      207
REMARK 921   NORMALIZED FREE ENERGY PREDICTED BY IDOCK:   -1.64 KCAL/MOL
REMARK 922        TOTAL FREE ENERGY PREDICTED BY IDOCK:   -3.07 KCAL/MOL
REMARK 923 INTER-LIGAND FREE ENERGY PREDICTED BY IDOCK:   -2.95 KCAL/MOL
REMARK 924 INTRA-LIGAND FREE ENERGY PREDICTED BY IDOCK:   -0.13 KCAL/MOL
REMARK 927      BINDING AFFINITY PREDICTED BY RF-SCORE:    0.00 PKD
ROOT
HETATM    1  C   UNL     1     -11.661   6.729  69.468  1.00  0.00    -0.183 C  
HETATM    2  C   UNL     1     -10.877   7.931  69.961  1.00  0.00    -0.238 C  
ENDROOT
BRANCH   2   3
HETATM    3  C   UNL     1     -10.641   7.847  71.472  1.00  0.00    -0.262 C  
BRANCH   3   4
HETATM    4  C   UNL     1      -9.254   8.356  71.830  1.00  0.00    -0.238 C  
BRANCH   4   5
HETATM    5  N   UNL     1      -8.204   7.588  71.166  1.00  0.00    -0.100 NA 
HETATM    6  H   UNL     1      -7.438   8.069  70.694  1.00  0.00     0.000 HD 
BRANCH   5   7
HETATM    7  C   UNL     1      -8.249   6.196  71.179  1.00  0.00    -0.123 A  
HETATM    8  C   UNL     1      -7.470   5.383  70.327  1.00  0.00    -0.072 A  
HETATM    9  C   UNL     1      -9.989   3.657  73.382  1.00  0.00    -0.119 C  
HETATM   10  C   UNL     1      -7.531   3.979  70.490  1.00  0.00    -0.045 A  
HETATM   11  O   UNL     1     -10.510   2.438  73.158  1.00  0.00    -0.126 OA 
HETATM   12  O   UNL     1     -10.223   4.306  74.388  1.00  0.00    -0.182 OA 
HETATM   13  C   UNL     1      -8.345   3.375  71.469  1.00  0.00    -0.080 A  
HETATM   14  C   UNL     1      -9.131   4.176  72.286  1.00  0.00    -0.148 A  
HETATM   15  C   UNL     1      -9.070   5.560  72.133  1.00  0.00    -0.152 A  
BRANCH   8  16
HETATM   16  O   UNL     1      -6.809   5.875  69.220  1.00  0.00    -0.057 OA 
BRANCH  16  17
HETATM   17  C   UNL     1      -7.458   6.444  68.148  1.00  0.00    -0.094 A  
HETATM   18  C   UNL     1      -7.872   8.550  66.990  1.00  0.00    -0.096 A  
HETATM   19  C   UNL     1      -8.577   7.868  65.995  1.00  0.00    -0.166 A  
HETATM   20  C   UNL     1      -8.204   5.781  67.178  1.00  0.00    -0.102 A  
HETATM   21  C   UNL     1      -7.312   7.838  68.055  1.00  0.00    -0.102 A  
HETATM   22  C   UNL     1      -8.738   6.490  66.092  1.00  0.00    -0.153 A  
ENDBRANCH  16  17
ENDBRANCH   8  16
BRANCH  10  23
HETATM   23  S   UNL     1      -6.545   2.906  69.490  1.00  0.00    -0.034 S  
HETATM   24  O   UNL     1      -5.354   3.599  69.058  1.00  0.00    -0.011 OA 
HETATM   25  H2  UNL     1      -6.317   1.619  71.550  1.00  0.00     0.000 HD 
HETATM   26  H1  UNL     1      -5.516   1.089  69.984  1.00  0.00     0.000 HD 
HETATM   27  N   UNL     1      -6.085   1.708  70.560  1.00  0.00    -0.018 N  
HETATM   28  O   UNL     1      -7.416   2.241  68.542  1.00  0.00    -0.047 OA 
ENDBRANCH  10  23
ENDBRANCH   5   7
ENDBRANCH   4   5
ENDBRANCH   3   4
ENDBRANCH   2   3
TORSDOF 7
ENDMDL
MODEL      208
REMARK 921   NORMALIZED FREE ENERGY PREDICTED BY IDOCK:   -1.49 KCAL/MOL
REMARK 922        TOTAL FREE ENERGY PREDICTED BY IDOCK:   -2.87 KCAL/MOL
REMARK 923 INTER-LIGAND FREE ENERGY PREDICTED BY IDOCK:   -4.61 KCAL/MOL
REMARK 924 INTRA-LIGAND FREE ENERGY PREDICTED BY IDOCK:    1.74 KCAL/MOL
REMARK 927      BINDING AFFINITY PREDICTED BY RF-SCORE:    0.00 PKD
ROOT
HETATM    1  C   UNL     1      -9.286  14.527  65.616  1.00  0.00     0.088 C  
HETATM    2  C   UNL     1      -8.977  13.180  66.244  1.00  0.00     0.098 C  
ENDROOT
BRANCH   2   3
HETATM    3  C   UNL     1      -8.737  13.322  67.750  1.00  0.00    -0.194 C  
BRANCH   3   4
HETATM    4  C   UNL     1      -9.212  14.679  68.247  1.00  0.00    -0.198 C  
BRANCH   4   5
HETATM    5  N   UNL     1     -10.670  14.776  68.252  1.00  0.00    -0.238 NA 
HETATM    6  H   UNL     1     -11.154  15.240  67.483  1.00  0.00     0.000 HD 
BRANCH   5   7
HETATM    7  C   UNL     1     -11.397  14.233  69.308  1.00  0.00    -0.283 A  
HETATM    8  C   UNL     1     -11.764  12.872  69.383  1.00  0.00    -0.321 A  
HETATM    9  C   UNL     1     -12.617  15.602  72.619  1.00  0.00    -0.433 C  
HETATM   10  C   UNL     1     -12.426  12.412  70.545  1.00  0.00    -0.187 A  
HETATM   11  O   UNL     1     -13.704  15.366  73.375  1.00  0.00    -0.348 OA 
HETATM   12  O   UNL     1     -11.888  16.566  72.784  1.00  0.00    -0.539 OA 
HETATM   13  C   UNL     1     -12.729  13.271  71.621  1.00  0.00    -0.327 A  
HETATM   14  C   UNL     1     -12.393  14.615  71.532  1.00  0.00    -0.415 A  
HETATM   15  C   UNL     1     -11.736  15.071  70.391  1.00  0.00    -0.336 A  
BRANCH   8  16
HETATM   16  O   UNL     1     -11.690  12.015  68.303  1.00  0.00    -0.310 OA 
BRANCH  16  17
HETATM   17  C   UNL     1     -12.011  12.393  67.020  1.00  0.00    -0.186 A  
HETATM   18  C   UNL     1     -13.225  14.044  65.699  1.00  0.00     0.034 A  
HETATM   19  C   UNL     1     -12.743  13.464  64.523  1.00  0.00    -0.190 A  
HETATM   20  C   UNL     1     -11.577  11.792  65.841  1.00  0.00    -0.200 A  
HETATM   21  C   UNL     1     -12.854  13.513  66.937  1.00  0.00     0.712 A  
HETATM   22  C   UNL     1     -11.921  12.345  64.599  1.00  0.00    -0.462 A  
ENDBRANCH  16  17
ENDBRANCH   8  16
BRANCH  10  23
HETATM   23  S   UNL     1     -12.869  10.711  70.725  1.00  0.00    -0.314 S  
HETATM   24  O   UNL     1     -13.435  10.220  69.491  1.00  0.00     0.591 OA 
HETATM   25  H2  UNL     1     -10.466  10.378  70.980  1.00  0.00     0.000 HD 
HETATM   26  H1  UNL     1     -11.651   8.976  71.056  1.00  0.00     0.000 HD 
HETATM   27  N   UNL     1     -11.395   9.958  70.952  1.00  0.00    -0.344 N  
HETATM   28  O   UNL     1     -13.564  10.554  71.987  1.00  0.00    -0.306 OA 
ENDBRANCH  10  23
ENDBRANCH   5   7
ENDBRANCH   4   5
ENDBRANCH   3   4
ENDBRANCH   2   3
TORSDOF 7
ENDMDL
MODEL      209
REMARK 921   NORMALIZED FREE ENERGY PREDICTED BY IDOCK:   -1.47 KCAL/MOL
REMARK 922        TOTAL FREE ENERGY PREDICTED BY IDOCK:   -2.83 KCAL/MOL
REMARK 923 INTER-LIGAND FREE ENERGY PREDICTED BY IDOCK:   -3.49 KCAL/MOL
REMARK 924 INTRA-LIGAND FREE ENERGY PREDICTED BY IDOCK:    0.65 KCAL/MOL
REMARK 927      BINDING AFFINITY PREDICTED BY RF-SCORE:    0.00 PKD
ROOT
HETATM    1  C   UNL     1     -11.337   6.606  68.285  1.00  0.00    -0.094 C  
HETATM    2  C   UNL     1     -10.495   7.824  68.615  1.00  0.00    -0.199 C  
ENDROOT
BRANCH   2   3
HETATM    3  C   UNL     1     -10.347   7.992  70.130  1.00  0.00    -0.215 C  
BRANCH   3   4
HETATM    4  C   UNL     1      -8.934   8.424  70.489  1.00  0.00    -0.150 C  
BRANCH   4   5
HETATM    5  N   UNL     1      -8.358   9.300  69.472  1.00  0.00    -0.122 NA 
HETATM    6  H   UNL     1      -8.322  10.308  69.625  1.00  0.00     0.000 HD 
BRANCH   5   7
HETATM    7  C   UNL     1      -7.856   8.757  68.292  1.00  0.00    -0.101 A  
HETATM    8  C   UNL     1      -7.496   9.532  67.168  1.00  0.00    -0.091 A  
HETATM    9  C   UNL     1      -6.839   5.264  67.247  1.00  0.00    -0.060 C  
HETATM   10  C   UNL     1      -6.913   8.881  66.056  1.00  0.00    -0.084 A  
HETATM   11  O   UNL     1      -6.883   4.596  66.081  1.00  0.00    -0.052 OA 
HETATM   12  O   UNL     1      -6.659   4.715  68.322  1.00  0.00    -0.043 OA 
HETATM   13  C   UNL     1      -6.688   7.490  66.038  1.00  0.00    -0.050 A  
HETATM   14  C   UNL     1      -7.070   6.726  67.132  1.00  0.00    -0.079 A  
HETATM   15  C   UNL     1      -7.639   7.364  68.233  1.00  0.00    -0.114 A  
BRANCH   8  16
HETATM   16  O   UNL     1      -7.863  10.854  67.021  1.00  0.00    -0.121 OA 
BRANCH  16  17
HETATM   17  C   UNL     1      -9.144  11.307  67.236  1.00  0.00    -0.156 A  
HETATM   18  C   UNL     1     -10.476  12.934  68.472  1.00  0.00    -0.260 A  
HETATM   19  C   UNL     1     -11.625  12.511  67.799  1.00  0.00    -0.401 A  
HETATM   20  C   UNL     1     -10.303  10.860  66.607  1.00  0.00    -0.289 A  
HETATM   21  C   UNL     1      -9.245  12.338  68.185  1.00  0.00    -0.197 A  
HETATM   22  C   UNL     1     -11.533  11.480  66.870  1.00  0.00    -0.261 A  
ENDBRANCH  16  17
ENDBRANCH   8  16
BRANCH  10  23
HETATM   23  S   UNL     1      -6.393   9.798  64.637  1.00  0.00    -0.112 S  
HETATM   24  O   UNL     1      -5.778  11.036  65.055  1.00  0.00    -0.056 OA 
HETATM   25  H2  UNL     1      -4.863   7.927  64.308  1.00  0.00     0.000 HD 
HETATM   26  H1  UNL     1      -4.905   9.358  63.156  1.00  0.00     0.000 HD 
HETATM   27  N   UNL     1      -5.205   8.829  63.975  1.00  0.00    -0.055 N  
HETATM   28  O   UNL     1      -7.469   9.781  63.667  1.00  0.00    -0.120 OA 
ENDBRANCH  10  23
ENDBRANCH   5   7
ENDBRANCH   4   5
ENDBRANCH   3   4
ENDBRANCH   2   3
TORSDOF 7
ENDMDL
MODEL      210
REMARK 921   NORMALIZED FREE ENERGY PREDICTED BY IDOCK:   -1.29 KCAL/MOL
REMARK 922        TOTAL FREE ENERGY PREDICTED BY IDOCK:   -2.58 KCAL/MOL
REMARK 923 INTER-LIGAND FREE ENERGY PREDICTED BY IDOCK:   -2.79 KCAL/MOL
REMARK 924 INTRA-LIGAND FREE ENERGY PREDICTED BY IDOCK:    0.21 KCAL/MOL
REMARK 927      BINDING AFFINITY PREDICTED BY RF-SCORE:    0.00 PKD
ROOT
HETATM    1  C   UNL     1      -6.557   8.797  72.297  1.00  0.00    -0.032 C  
HETATM    2  C   UNL     1      -7.607   8.476  71.249  1.00  0.00    -0.115 C  
ENDROOT
BRANCH   2   3
HETATM    3  C   UNL     1      -7.000   8.503  69.843  1.00  0.00    -0.043 C  
BRANCH   3   4
HETATM    4  C   UNL     1      -7.686   9.551  68.980  1.00  0.00    -0.076 C  
BRANCH   4   5
HETATM    5  N   UNL     1      -7.418   9.346  67.559  1.00  0.00    -0.090 NA 
HETATM    6  H   UNL     1      -7.036  10.105  66.995  1.00  0.00     0.000 HD 
BRANCH   5   7
HETATM    7  C   UNL     1      -7.686   8.111  66.974  1.00  0.00    -0.096 A  
HETATM    8  C   UNL     1      -7.209   7.732  65.700  1.00  0.00    -0.068 A  
HETATM    9  C   UNL     1      -9.406   4.963  68.182  1.00  0.00    -0.130 C  
HETATM   10  C   UNL     1      -7.468   6.419  65.243  1.00  0.00    -0.081 A  
HETATM   11  O   UNL     1     -10.149   4.021  67.574  1.00  0.00    -0.040 OA 
HETATM   12  O   UNL     1      -9.354   5.090  69.394  1.00  0.00    -0.109 OA 
HETATM   13  C   UNL     1      -8.187   5.486  66.019  1.00  0.00    -0.114 A  
HETATM   14  C   UNL     1      -8.679   5.871  67.258  1.00  0.00    -0.108 A  
HETATM   15  C   UNL     1      -8.422   7.162  67.715  1.00  0.00    -0.120 A  
BRANCH   8  16
HETATM   16  O   UNL     1      -6.679   8.634  64.800  1.00  0.00    -0.068 OA 
BRANCH  16  17
HETATM   17  C   UNL     1      -7.451   9.503  64.063  1.00  0.00    -0.122 A  
HETATM   18  C   UNL     1      -9.642  10.565  63.935  1.00  0.00    -0.363 A  
HETATM   19  C   UNL     1      -9.222  11.308  62.829  1.00  0.00    -0.354 A  
HETATM   20  C   UNL     1      -7.059  10.211  62.930  1.00  0.00    -0.130 A  
HETATM   21  C   UNL     1      -8.757   9.674  64.549  1.00  0.00    -0.227 A  
HETATM   22  C   UNL     1      -7.935  11.130  62.334  1.00  0.00    -0.118 A  
ENDBRANCH  16  17
ENDBRANCH   8  16
BRANCH  10  23
HETATM   23  S   UNL     1      -6.857   5.864  63.680  1.00  0.00    -0.039 S  
HETATM   24  O   UNL     1      -5.420   6.002  63.640  1.00  0.00    -0.017 OA 
HETATM   25  H2  UNL     1      -7.681   3.690  64.420  1.00  0.00     0.000 HD 
HETATM   26  H1  UNL     1      -6.867   3.913  62.788  1.00  0.00     0.000 HD 
HETATM   27  N   UNL     1      -7.220   4.233  63.689  1.00  0.00    -0.049 N  
HETATM   28  O   UNL     1      -7.697   6.424  62.640  1.00  0.00    -0.080 OA 
ENDBRANCH  10  23
ENDBRANCH   5   7
ENDBRANCH   4   5
ENDBRANCH   3   4
ENDBRANCH   2   3
TORSDOF 7
ENDMDL
MODEL      211
REMARK 921   NORMALIZED FREE ENERGY PREDICTED BY IDOCK:   -0.92 KCAL/MOL
REMARK 922        TOTAL FREE ENERGY PREDICTED BY IDOCK:   -2.06 KCAL/MOL
REMARK 923 INTER-LIGAND FREE ENERGY PREDICTED BY IDOCK:   -4.25 KCAL/MOL
REMARK 924 INTRA-LIGAND FREE ENERGY PREDICTED BY IDOCK:    2.19 KCAL/MOL
REMARK 927      BINDING AFFINITY PREDICTED BY RF-SCORE:    0.00 PKD
ROOT
HETATM    1  C   UNL     1      -5.186   7.135  72.878  1.00  0.00    -0.037 C  
HETATM    2  C   UNL     1      -5.829   5.911  72.253  1.00  0.00    -0.032 C  
ENDROOT
BRANCH   2   3
HETATM    3  C   UNL     1      -7.235   6.235  71.739  1.00  0.00    -0.087 C  
BRANCH   3   4
HETATM    4  C   UNL     1      -7.184   7.314  70.670  1.00  0.00    -0.066 C  
BRANCH   4   5
HETATM    5  N   UNL     1      -8.504   7.879  70.402  1.00  0.00    -0.129 NA 
HETATM    6  H   UNL     1      -9.344   7.367  70.674  1.00  0.00     0.000 HD 
BRANCH   5   7
HETATM    7  C   UNL     1      -8.614   9.118  69.776  1.00  0.00    -0.142 A  
HETATM    8  C   UNL     1      -9.842   9.664  69.341  1.00  0.00    -0.193 A  
HETATM    9  C   UNL     1      -6.162  11.906  69.046  1.00  0.00    -0.077 C  
HETATM   10  C   UNL     1      -9.846  10.970  68.798  1.00  0.00    -0.198 A  
HETATM   11  O   UNL     1      -6.043  12.798  68.046  1.00  0.00    -0.076 OA 
HETATM   12  O   UNL     1      -5.268  11.680  69.845  1.00  0.00    -0.064 OA 
HETATM   13  C   UNL     1      -8.666  11.733  68.677  1.00  0.00    -0.059 A  
HETATM   14  C   UNL     1      -7.458  11.182  69.079  1.00  0.00    -0.124 A  
HETATM   15  C   UNL     1      -7.449   9.898  69.620  1.00  0.00    -0.122 A  
BRANCH   8  16
HETATM   16  O   UNL     1     -10.998   8.919  69.235  1.00  0.00    -0.144 OA 
BRANCH  16  17
HETATM   17  C   UNL     1     -11.784   8.592  70.316  1.00  0.00     0.081 A  
HETATM   18  C   UNL     1     -13.148   9.522  72.110  1.00  0.00    -0.522 A  
HETATM   19  C   UNL     1     -13.517   8.234  72.503  1.00  0.00    -0.084 A  
HETATM   20  C   UNL     1     -12.118   7.311  70.747  1.00  0.00    -0.284 A  
HETATM   21  C   UNL     1     -12.293   9.696  71.019  1.00  0.00    -0.396 A  
HETATM   22  C   UNL     1     -13.004   7.136  71.820  1.00  0.00    -0.367 A  
ENDBRANCH  16  17
ENDBRANCH   8  16
BRANCH  10  23
HETATM   23  S   UNL     1     -11.353  11.733  68.280  1.00  0.00    -0.310 S  
HETATM   24  O   UNL     1     -11.815  11.122  67.056  1.00  0.00    -0.411 OA 
HETATM   25  H2  UNL     1     -12.248  10.767  70.334  1.00  0.00     0.000 HD 
HETATM   26  H1  UNL     1     -13.292  11.763  69.197  1.00  0.00     0.000 HD 
HETATM   27  N   UNL     1     -12.423  11.323  69.496  1.00  0.00    -0.161 N  
HETATM   28  O   UNL     1     -11.198  13.169  68.393  1.00  0.00    -0.240 OA 
ENDBRANCH  10  23
ENDBRANCH   5   7
ENDBRANCH   4   5
ENDBRANCH   3   4
ENDBRANCH   2   3
TORSDOF 7
ENDMDL
MODEL      212
REMARK 921   NORMALIZED FREE ENERGY PREDICTED BY IDOCK:   -0.90 KCAL/MOL
REMARK 922        TOTAL FREE ENERGY PREDICTED BY IDOCK:   -2.03 KCAL/MOL
REMARK 923 INTER-LIGAND FREE ENERGY PREDICTED BY IDOCK:   -2.71 KCAL/MOL
REMARK 924 INTRA-LIGAND FREE ENERGY PREDICTED BY IDOCK:    0.68 KCAL/MOL
REMARK 927      BINDING AFFINITY PREDICTED BY RF-SCORE:    0.00 PKD
ROOT
HETATM    1  C   UNL     1     -11.016  10.303  66.085  1.00  0.00     0.186 C  
HETATM    2  C   UNL     1     -10.075  10.311  64.895  1.00  0.00    -0.346 C  
ENDROOT
BRANCH   2   3
HETATM    3  C   UNL     1      -8.703   9.750  65.279  1.00  0.00    -0.182 C  
BRANCH   3   4
HETATM    4  C   UNL     1      -7.898  10.778  66.058  1.00  0.00    -0.149 C  
BRANCH   4   5
HETATM    5  N   UNL     1      -6.856  10.153  66.869  1.00  0.00    -0.082 NA 
HETATM    6  H   UNL     1      -5.879  10.412  66.735  1.00  0.00     0.000 HD 
BRANCH   5   7
HETATM    7  C   UNL     1      -7.200   9.203  67.827  1.00  0.00    -0.080 A  
HETATM    8  C   UNL     1      -6.604   9.134  69.106  1.00  0.00    -0.050 A  
HETATM    9  C   UNL     1      -9.863   6.520  68.011  1.00  0.00    -0.123 C  
HETATM   10  C   UNL     1      -7.095   8.184  70.031  1.00  0.00    -0.048 A  
HETATM   11  O   UNL     1      -9.913   5.301  68.576  1.00  0.00    -0.149 OA 
HETATM   12  O   UNL     1     -10.673   6.903  67.182  1.00  0.00    -0.291 OA 
HETATM   13  C   UNL     1      -8.152   7.307  69.711  1.00  0.00    -0.128 A  
HETATM   14  C   UNL     1      -8.716   7.358  68.444  1.00  0.00    -0.123 A  
HETATM   15  C   UNL     1      -8.239   8.296  67.531  1.00  0.00    -0.122 A  
BRANCH   8  16
HETATM   16  O   UNL     1      -5.444   9.807  69.429  1.00  0.00    -0.035 OA 
BRANCH  16  17
HETATM   17  C   UNL     1      -5.393  11.169  69.624  1.00  0.00    -0.043 A  
HETATM   18  C   UNL     1      -5.155  13.313  68.488  1.00  0.00    -0.073 A  
HETATM   19  C   UNL     1      -5.357  13.981  69.698  1.00  0.00    -0.092 A  
HETATM   20  C   UNL     1      -5.543  11.843  70.833  1.00  0.00    -0.071 A  
HETATM   21  C   UNL     1      -5.181  11.916  68.454  1.00  0.00    -0.046 A  
HETATM   22  C   UNL     1      -5.552  13.245  70.862  1.00  0.00    -0.195 A  
ENDBRANCH  16  17
ENDBRANCH   8  16
BRANCH  10  23
HETATM   23  S   UNL     1      -6.428   8.079  71.664  1.00  0.00    -0.046 S  
HETATM   24  O   UNL     1      -6.601   9.340  72.345  1.00  0.00    -0.307 OA 
HETATM   25  H2  UNL     1      -8.211   6.450  72.009  1.00  0.00     0.000 HD 
HETATM   26  H1  UNL     1      -7.032   6.893  73.347  1.00  0.00     0.000 HD 
HETATM   27  N   UNL     1      -7.416   6.953  72.404  1.00  0.00    -0.086 N  
HETATM   28  O   UNL     1      -5.131   7.437  71.585  1.00  0.00    -0.027 OA 
ENDBRANCH  10  23
ENDBRANCH   5   7
ENDBRANCH   4   5
ENDBRANCH   3   4
ENDBRANCH   2   3
TORSDOF 7
ENDMDL
MODEL      213
REMARK 921   NORMALIZED FREE ENERGY PREDICTED BY IDOCK:   -0.55 KCAL/MOL
REMARK 922        TOTAL FREE ENERGY PREDICTED BY IDOCK:   -1.55 KCAL/MOL
REMARK 923 INTER-LIGAND FREE ENERGY PREDICTED BY IDOCK:   -3.17 KCAL/MOL
REMARK 924 INTRA-LIGAND FREE ENERGY PREDICTED BY IDOCK:    1.62 KCAL/MOL
REMARK 927      BINDING AFFINITY PREDICTED BY RF-SCORE:    0.00 PKD
ROOT
HETATM    1  C   UNL     1     -11.293   6.645  68.230  1.00  0.00    -0.094 C  
HETATM    2  C   UNL     1     -10.390   7.860  68.129  1.00  0.00    -0.249 C  
ENDROOT
BRANCH   2   3
HETATM    3  C   UNL     1      -9.899   8.291  69.515  1.00  0.00    -0.181 C  
BRANCH   3   4
HETATM    4  C   UNL     1      -8.418   8.636  69.478  1.00  0.00    -0.129 C  
BRANCH   4   5
HETATM    5  N   UNL     1      -8.041   9.287  68.226  1.00  0.00    -0.106 NA 
HETATM    6  H   UNL     1      -8.009  10.305  68.168  1.00  0.00     0.000 HD 
BRANCH   5   7
HETATM    7  C   UNL     1      -7.726   8.515  67.111  1.00  0.00    -0.097 A  
HETATM    8  C   UNL     1      -7.480   9.058  65.831  1.00  0.00    -0.094 A  
HETATM    9  C   UNL     1      -7.020   4.832  66.595  1.00  0.00    -0.067 C  
HETATM   10  C   UNL     1      -7.080   8.187  64.791  1.00  0.00    -0.079 A  
HETATM   11  O   UNL     1      -7.249   3.978  65.581  1.00  0.00    -0.069 OA 
HETATM   12  O   UNL     1      -6.726   4.466  67.720  1.00  0.00    -0.049 OA 
HETATM   13  C   UNL     1      -6.925   6.801  64.996  1.00  0.00    -0.051 A  
HETATM   14  C   UNL     1      -7.195   6.266  66.248  1.00  0.00    -0.069 A  
HETATM   15  C   UNL     1      -7.584   7.121  67.277  1.00  0.00    -0.104 A  
BRANCH   8  16
HETATM   16  O   UNL     1      -7.801  10.358  65.495  1.00  0.00    -0.148 OA 
BRANCH  16  17
HETATM   17  C   UNL     1      -8.935  10.695  64.793  1.00  0.00    -0.199 A  
HETATM   18  C   UNL     1     -11.325  11.129  65.006  1.00  0.00     0.097 A  
HETATM   19  C   UNL     1     -11.388  11.470  63.652  1.00  0.00    -0.412 A  
HETATM   20  C   UNL     1      -9.019  10.988  63.434  1.00  0.00    -0.142 A  
HETATM   21  C   UNL     1     -10.104  10.752  65.570  1.00  0.00    -0.335 A  
HETATM   22  C   UNL     1     -10.237  11.400  62.875  1.00  0.00    -0.213 A  
ENDBRANCH  16  17
ENDBRANCH   8  16
BRANCH  10  23
HETATM   23  S   UNL     1      -6.708   8.808  63.179  1.00  0.00    -0.089 S  
HETATM   24  O   UNL     1      -5.966  10.042  63.289  1.00  0.00    -0.112 OA 
HETATM   25  H2  UNL     1      -5.358   6.785  62.992  1.00  0.00     0.000 HD 
HETATM   26  H1  UNL     1      -5.473   8.003  61.621  1.00  0.00     0.000 HD 
HETATM   27  N   UNL     1      -5.687   7.645  62.551  1.00  0.00    -0.054 N  
HETATM   28  O   UNL     1      -7.909   8.721  62.372  1.00  0.00    -0.123 OA 
ENDBRANCH  10  23
ENDBRANCH   5   7
ENDBRANCH   4   5
ENDBRANCH   3   4
ENDBRANCH   2   3
TORSDOF 7
ENDMDL
MODEL      214
REMARK 921   NORMALIZED FREE ENERGY PREDICTED BY IDOCK:   -0.27 KCAL/MOL
REMARK 922        TOTAL FREE ENERGY PREDICTED BY IDOCK:   -1.14 KCAL/MOL
REMARK 923 INTER-LIGAND FREE ENERGY PREDICTED BY IDOCK:   -2.16 KCAL/MOL
REMARK 924 INTRA-LIGAND FREE ENERGY PREDICTED BY IDOCK:    1.02 KCAL/MOL
REMARK 927      BINDING AFFINITY PREDICTED BY RF-SCORE:    0.00 PKD
ROOT
HETATM    1  C   UNL     1      -7.764   2.794  62.417  1.00  0.00    -0.054 C  
HETATM    2  C   UNL     1      -7.315   3.242  63.796  1.00  0.00    -0.058 C  
ENDROOT
BRANCH   2   3
HETATM    3  C   UNL     1      -6.630   4.611  63.729  1.00  0.00    -0.041 C  
BRANCH   3   4
HETATM    4  C   UNL     1      -7.155   5.530  64.820  1.00  0.00    -0.054 C  
BRANCH   4   5
HETATM    5  N   UNL     1      -6.384   5.405  66.055  1.00  0.00    -0.034 NA 
HETATM    6  H   UNL     1      -5.367   5.340  66.018  1.00  0.00     0.000 HD 
BRANCH   5   7
HETATM    7  C   UNL     1      -7.040   5.375  67.282  1.00  0.00    -0.070 A  
HETATM    8  C   UNL     1      -8.115   6.230  67.613  1.00  0.00    -0.117 A  
HETATM    9  C   UNL     1      -6.821   3.114  70.310  1.00  0.00    -0.034 C  
HETATM   10  C   UNL     1      -8.765   6.050  68.856  1.00  0.00    -0.122 A  
HETATM   11  O   UNL     1      -6.977   3.316  71.630  1.00  0.00    -0.030 OA 
HETATM   12  O   UNL     1      -6.301   2.112  69.847  1.00  0.00    -0.024 OA 
HETATM   13  C   UNL     1      -8.370   5.050  69.768  1.00  0.00    -0.088 A  
HETATM   14  C   UNL     1      -7.295   4.230  69.452  1.00  0.00    -0.051 A  
HETATM   15  C   UNL     1      -6.655   4.400  68.226  1.00  0.00    -0.046 A  
BRANCH   8  16
HETATM   16  O   UNL     1      -8.432   7.353  66.877  1.00  0.00    -0.118 OA 
BRANCH  16  17
HETATM   17  C   UNL     1      -7.713   8.524  66.944  1.00  0.00    -0.091 A  
HETATM   18  C   UNL     1      -7.228  10.458  68.348  1.00  0.00    -0.080 A  
HETATM   19  C   UNL     1      -6.293  10.908  67.413  1.00  0.00    -0.064 A  
HETATM   20  C   UNL     1      -6.817   9.008  65.995  1.00  0.00    -0.080 A  
HETATM   21  C   UNL     1      -7.926   9.270  68.115  1.00  0.00    -0.099 A  
HETATM   22  C   UNL     1      -6.091  10.182  66.244  1.00  0.00    -0.073 A  
ENDBRANCH  16  17
ENDBRANCH   8  16
BRANCH  10  23
HETATM   23  S   UNL     1     -10.147   7.052  69.311  1.00  0.00    -0.178 S  
HETATM   24  O   UNL     1      -9.689   8.358  69.723  1.00  0.00    -0.177 OA 
HETATM   25  H2  UNL     1     -10.744   6.848  66.954  1.00  0.00     0.000 HD 
HETATM   26  H1  UNL     1     -11.776   7.805  68.135  1.00  0.00     0.000 HD 
HETATM   27  N   UNL     1     -10.978   7.227  67.872  1.00  0.00    -0.098 N  
HETATM   28  O   UNL     1     -11.025   6.261  70.151  1.00  0.00    -0.282 OA 
ENDBRANCH  10  23
ENDBRANCH   5   7
ENDBRANCH   4   5
ENDBRANCH   3   4
ENDBRANCH   2   3
TORSDOF 7
ENDMDL
MODEL      215
REMARK 921   NORMALIZED FREE ENERGY PREDICTED BY IDOCK:   -0.10 KCAL/MOL
REMARK 922        TOTAL FREE ENERGY PREDICTED BY IDOCK:   -0.90 KCAL/MOL
REMARK 923 INTER-LIGAND FREE ENERGY PREDICTED BY IDOCK:   -2.25 KCAL/MOL
REMARK 924 INTRA-LIGAND FREE ENERGY PREDICTED BY IDOCK:    1.35 KCAL/MOL
REMARK 927      BINDING AFFINITY PREDICTED BY RF-SCORE:    0.00 PKD
ROOT
HETATM    1  C   UNL     1     -11.964   6.895  69.145  1.00  0.00     0.716 C  
HETATM    2  C   UNL     1     -11.400   8.221  69.621  1.00  0.00     0.206 C  
ENDROOT
BRANCH   2   3
HETATM    3  C   UNL     1     -11.687   8.435  71.110  1.00  0.00    -0.315 C  
BRANCH   3   4
HETATM    4  C   UNL     1     -10.739   9.466  71.700  1.00  0.00    -0.228 C  
BRANCH   4   5
HETATM    5  N   UNL     1      -9.354   9.221  71.305  1.00  0.00    -0.264 NA 
HETATM    6  H   UNL     1      -8.710  10.004  71.187  1.00  0.00     0.000 HD 
BRANCH   5   7
HETATM    7  C   UNL     1      -8.914   7.918  71.091  1.00  0.00    -0.138 A  
HETATM    8  C   UNL     1      -7.879   7.583  70.191  1.00  0.00    -0.098 A  
HETATM    9  C   UNL     1      -9.724   4.588  72.697  1.00  0.00    -0.144 C  
HETATM   10  C   UNL     1      -7.453   6.236  70.120  1.00  0.00    -0.094 A  
HETATM   11  O   UNL     1      -9.784   3.326  72.235  1.00  0.00    -0.134 OA 
HETATM   12  O   UNL     1     -10.196   4.926  73.769  1.00  0.00    -0.170 OA 
HETATM   13  C   UNL     1      -8.034   5.226  70.915  1.00  0.00    -0.099 A  
HETATM   14  C   UNL     1      -9.071   5.554  71.778  1.00  0.00    -0.151 A  
HETATM   15  C   UNL     1      -9.489   6.881  71.855  1.00  0.00    -0.146 A  
BRANCH   8  16
HETATM   16  O   UNL     1      -7.400   8.460  69.239  1.00  0.00    -0.068 OA 
BRANCH  16  17
HETATM   17  C   UNL     1      -8.220   9.195  68.414  1.00  0.00    -0.115 A  
HETATM   18  C   UNL     1      -9.088  11.433  67.987  1.00  0.00    -0.171 A  
HETATM   19  C   UNL     1      -9.736  10.968  66.840  1.00  0.00    -0.215 A  
HETATM   20  C   UNL     1      -8.910   8.731  67.297  1.00  0.00    -0.141 A  
HETATM   21  C   UNL     1      -8.330  10.551  68.762  1.00  0.00    -0.136 A  
HETATM   22  C   UNL     1      -9.642   9.623  66.500  1.00  0.00    -0.252 A  
ENDBRANCH  16  17
ENDBRANCH   8  16
BRANCH  10  23
HETATM   23  S   UNL     1      -6.130   5.757  69.052  1.00  0.00    -0.026 S  
HETATM   24  O   UNL     1      -6.633   5.542  67.716  1.00  0.00    -0.049 OA 
HETATM   25  H2  UNL     1      -5.292   8.002  69.507  1.00  0.00     0.000 HD 
HETATM   26  H1  UNL     1      -4.392   6.837  68.408  1.00  0.00     0.000 HD 
HETATM   27  N   UNL     1      -5.155   7.113  69.025  1.00  0.00    -0.014 N  
HETATM   28  O   UNL     1      -5.341   4.748  69.731  1.00  0.00    -0.006 OA 
ENDBRANCH  10  23
ENDBRANCH   5   7
ENDBRANCH   4   5
ENDBRANCH   3   4
ENDBRANCH   2   3
TORSDOF 7
ENDMDL
MODEL      216
REMARK 921   NORMALIZED FREE ENERGY PREDICTED BY IDOCK:    0.27 KCAL/MOL
REMARK 922        TOTAL FREE ENERGY PREDICTED BY IDOCK:   -0.38 KCAL/MOL
REMARK 923 INTER-LIGAND FREE ENERGY PREDICTED BY IDOCK:   -2.05 KCAL/MOL
REMARK 924 INTRA-LIGAND FREE ENERGY PREDICTED BY IDOCK:    1.67 KCAL/MOL
REMARK 927      BINDING AFFINITY PREDICTED BY RF-SCORE:    0.00 PKD
ROOT
HETATM    1  C   UNL     1     -11.124  20.121  67.907  1.00  0.00     0.386 C  
HETATM    2  C   UNL     1     -11.150  18.607  67.802  1.00  0.00     0.011 C  
ENDROOT
BRANCH   2   3
HETATM    3  C   UNL     1     -10.230  17.972  68.849  1.00  0.00    -0.320 C  
BRANCH   3   4
HETATM    4  C   UNL     1     -10.956  16.872  69.608  1.00  0.00    -0.001 C  
BRANCH   4   5
HETATM    5  N   UNL     1     -10.570  15.543  69.140  1.00  0.00    -0.221 NA 
HETATM    6  H   UNL     1     -11.204  14.753  69.265  1.00  0.00     0.000 HD 
BRANCH   5   7
HETATM    7  C   UNL     1      -9.336  15.355  68.524  1.00  0.00    -0.198 A  
HETATM    8  C   UNL     1      -8.695  14.100  68.429  1.00  0.00    -0.178 A  
HETATM    9  C   UNL     1      -7.032  17.613  66.544  1.00  0.00    -0.241 C  
HETATM   10  C   UNL     1      -7.485  14.012  67.702  1.00  0.00    -0.174 A  
HETATM   11  O   UNL     1      -5.696  17.686  66.411  1.00  0.00    -0.169 OA 
HETATM   12  O   UNL     1      -7.786  18.504  66.190  1.00  0.00    -0.310 OA 
HETATM   13  C   UNL     1      -6.905  15.135  67.078  1.00  0.00     0.308 A  
HETATM   14  C   UNL     1      -7.522  16.372  67.197  1.00  0.00    -0.227 A  
HETATM   15  C   UNL     1      -8.717  16.463  67.908  1.00  0.00    -0.179 A  
BRANCH   8  16
HETATM   16  O   UNL     1      -9.082  13.003  69.171  1.00  0.00     0.402 OA 
BRANCH  16  17
HETATM   17  C   UNL     1      -9.804  11.956  68.647  1.00  0.00    -0.131 A  
HETATM   18  C   UNL     1      -9.952   9.524  68.541  1.00  0.00    -0.184 A  
HETATM   19  C   UNL     1     -11.137   9.624  67.808  1.00  0.00    -0.089 A  
HETATM   20  C   UNL     1     -10.957  12.044  67.872  1.00  0.00    -0.266 A  
HETATM   21  C   UNL     1      -9.297  10.685  68.962  1.00  0.00    -0.191 A  
HETATM   22  C   UNL     1     -11.634  10.881  67.479  1.00  0.00    -0.102 A  
ENDBRANCH  16  17
ENDBRANCH   8  16
BRANCH  10  23
HETATM   23  S   UNL     1      -6.657  12.463  67.501  1.00  0.00    -0.155 S  
HETATM   24  O   UNL     1      -7.281  11.709  66.439  1.00  0.00    -0.022 OA 
HETATM   25  H2  UNL     1      -4.768  13.853  66.830  1.00  0.00     0.000 HD 
HETATM   26  H1  UNL     1      -4.655  12.019  66.873  1.00  0.00     0.000 HD 
HETATM   27  N   UNL     1      -5.132  12.913  66.989  1.00  0.00     0.261 N  
HETATM   28  O   UNL     1      -6.451  11.886  68.814  1.00  0.00    -0.061 OA 
ENDBRANCH  10  23
ENDBRANCH   5   7
ENDBRANCH   4   5
ENDBRANCH   3   4
ENDBRANCH   2   3
TORSDOF 7
ENDMDL
MODEL      217
REMARK 921   NORMALIZED FREE ENERGY PREDICTED BY IDOCK:    2.37 KCAL/MOL
REMARK 922        TOTAL FREE ENERGY PREDICTED BY IDOCK:    2.57 KCAL/MOL
REMARK 923 INTER-LIGAND FREE ENERGY PREDICTED BY IDOCK:   -1.71 KCAL/MOL
REMARK 924 INTRA-LIGAND FREE ENERGY PREDICTED BY IDOCK:    4.28 KCAL/MOL
REMARK 927      BINDING AFFINITY PREDICTED BY RF-SCORE:    0.00 PKD
ROOT
HETATM    1  C   UNL     1      -8.870   9.704  68.085  1.00  0.00    -0.119 C  
HETATM    2  C   UNL     1      -7.624   9.621  68.947  1.00  0.00    -0.076 C  
ENDROOT
BRANCH   2   3
HETATM    3  C   UNL     1      -6.859  10.948  68.930  1.00  0.00    -0.076 C  
BRANCH   3   4
HETATM    4  C   UNL     1      -7.811  12.122  69.097  1.00  0.00     0.288 C  
BRANCH   4   5
HETATM    5  N   UNL     1      -9.155  11.804  68.621  1.00  0.00    -0.349 NA 
HETATM    6  H   UNL     1      -9.283  11.349  67.717  1.00  0.00     0.000 HD 
BRANCH   5   7
HETATM    7  C   UNL     1     -10.261  12.123  69.404  1.00  0.00     0.492 A  
HETATM    8  C   UNL     1     -10.688  13.447  69.648  1.00  0.00     0.352 A  
HETATM    9  C   UNL     1     -12.948  10.064  71.096  1.00  0.00    -0.387 C  
HETATM   10  C   UNL     1     -11.878  13.650  70.385  1.00  0.00    -0.237 A  
HETATM   11  O   UNL     1     -13.654  10.214  72.230  1.00  0.00    -0.355 OA 
HETATM   12  O   UNL     1     -12.892   9.011  70.482  1.00  0.00     0.223 OA 
HETATM   13  C   UNL     1     -12.641  12.574  70.881  1.00  0.00    -0.331 A  
HETATM   14  C   UNL     1     -12.204  11.275  70.664  1.00  0.00    -0.489 A  
HETATM   15  C   UNL     1     -11.035  11.070  69.934  1.00  0.00    -0.218 A  
BRANCH   8  16
HETATM   16  O   UNL     1      -9.902  14.549  69.378  1.00  0.00    -0.081 OA 
BRANCH  16  17
HETATM   17  C   UNL     1      -9.775  15.092  68.120  1.00  0.00    -0.215 A  
HETATM   18  C   UNL     1      -9.083  14.614  65.831  1.00  0.00     0.117 A  
HETATM   19  C   UNL     1      -9.501  15.886  65.434  1.00  0.00     0.081 A  
HETATM   20  C   UNL     1     -10.142  16.375  67.724  1.00  0.00    -0.262 A  
HETATM   21  C   UNL     1      -9.227  14.221  67.164  1.00  0.00    -0.230 A  
HETATM   22  C   UNL     1     -10.030  16.759  66.380  1.00  0.00    -0.317 A  
ENDBRANCH  16  17
ENDBRANCH   8  16
BRANCH  10  23
HETATM   23  S   UNL     1     -12.494  15.279  70.683  1.00  0.00    -0.432 S  
HETATM   24  O   UNL     1     -11.496  16.255  70.314  1.00  0.00    -0.341 OA 
HETATM   25  H2  UNL     1     -14.102  14.712  68.938  1.00  0.00     0.000 HD 
HETATM   26  H1  UNL     1     -14.120  16.346  69.779  1.00  0.00     0.000 HD 
HETATM   27  N   UNL     1     -13.765  15.406  69.606  1.00  0.00     1.579 N  
HETATM   28  O   UNL     1     -13.116  15.296  71.992  1.00  0.00    -0.331 OA 
ENDBRANCH  10  23
ENDBRANCH   5   7
ENDBRANCH   4   5
ENDBRANCH   3   4
ENDBRANCH   2   3
TORSDOF 7
ENDMDL
MODEL      218
REMARK 921   NORMALIZED FREE ENERGY PREDICTED BY IDOCK:    2.57 KCAL/MOL
REMARK 922        TOTAL FREE ENERGY PREDICTED BY IDOCK:    2.85 KCAL/MOL
REMARK 923 INTER-LIGAND FREE ENERGY PREDICTED BY IDOCK:    0.72 KCAL/MOL
REMARK 924 INTRA-LIGAND FREE ENERGY PREDICTED BY IDOCK:    2.14 KCAL/MOL
REMARK 927      BINDING AFFINITY PREDICTED BY RF-SCORE:    0.00 PKD
ROOT
HETATM    1  C   UNL     1      -5.830  15.658  66.606  1.00  0.00     1.338 C  
HETATM    2  C   UNL     1      -5.198  15.094  67.866  1.00  0.00    -0.106 C  
ENDROOT
BRANCH   2   3
HETATM    3  C   UNL     1      -6.159  14.137  68.578  1.00  0.00    -0.091 C  
BRANCH   3   4
HETATM    4  C   UNL     1      -7.538  14.760  68.714  1.00  0.00    -0.137 C  
BRANCH   4   5
HETATM    5  N   UNL     1      -7.492  16.034  69.427  1.00  0.00    -0.228 NA 
HETATM    6  H   UNL     1      -7.205  16.063  70.405  1.00  0.00     0.000 HD 
BRANCH   5   7
HETATM    7  C   UNL     1      -7.841  17.210  68.768  1.00  0.00    -0.258 A  
HETATM    8  C   UNL     1      -9.129  17.459  68.245  1.00  0.00    -0.272 A  
HETATM    9  C   UNL     1      -6.046  20.481  68.131  1.00  0.00    -0.285 C  
HETATM   10  C   UNL     1      -9.395  18.725  67.675  1.00  0.00    -0.292 A  
HETATM   11  O   UNL     1      -6.068  21.369  67.122  1.00  0.00    -0.344 OA 
HETATM   12  O   UNL     1      -5.179  20.471  68.990  1.00  0.00    -0.224 OA 
HETATM   13  C   UNL     1      -8.415  19.737  67.611  1.00  0.00    -0.361 A  
HETATM   14  C   UNL     1      -7.142  19.480  68.100  1.00  0.00    -0.319 A  
HETATM   15  C   UNL     1      -6.877  18.235  68.668  1.00  0.00    -0.261 A  
BRANCH   8  16
HETATM   16  O   UNL     1     -10.076  16.468  68.084  1.00  0.00    -0.241 OA 
BRANCH  16  17
HETATM   17  C   UNL     1     -10.326  15.856  66.877  1.00  0.00    -0.291 A  
HETATM   18  C   UNL     1     -11.785  14.267  65.741  1.00  0.00    -0.359 A  
HETATM   19  C   UNL     1     -11.143  14.536  64.530  1.00  0.00    -0.280 A  
HETATM   20  C   UNL     1      -9.660  16.080  65.675  1.00  0.00    -0.226 A  
HETATM   21  C   UNL     1     -11.382  14.930  66.903  1.00  0.00    -0.338 A  
HETATM   22  C   UNL     1     -10.086  15.440  64.502  1.00  0.00     0.866 A  
ENDBRANCH  16  17
ENDBRANCH   8  16
BRANCH  10  23
HETATM   23  S   UNL     1     -11.000  19.119  67.048  1.00  0.00    -0.102 S  
HETATM   24  O   UNL     1     -11.654  17.916  66.589  1.00  0.00     1.152 OA 
HETATM   25  H2  UNL     1     -11.466  19.749  69.358  1.00  0.00     0.000 HD 
HETATM   26  H1  UNL     1     -12.738  19.891  68.040  1.00  0.00     0.000 HD 
HETATM   27  N   UNL     1     -11.812  19.664  68.402  1.00  0.00     2.548 N  
HETATM   28  O   UNL     1     -10.880  20.283  66.194  1.00  0.00    -0.176 OA 
ENDBRANCH  10  23
ENDBRANCH   5   7
ENDBRANCH   4   5
ENDBRANCH   3   4
ENDBRANCH   2   3
TORSDOF 7
ENDMDL
MODEL      219
REMARK 921   NORMALIZED FREE ENERGY PREDICTED BY IDOCK:    3.76 KCAL/MOL
REMARK 922        TOTAL FREE ENERGY PREDICTED BY IDOCK:    4.54 KCAL/MOL
REMARK 923 INTER-LIGAND FREE ENERGY PREDICTED BY IDOCK:    2.53 KCAL/MOL
REMARK 924 INTRA-LIGAND FREE ENERGY PREDICTED BY IDOCK:    2.01 KCAL/MOL
REMARK 927      BINDING AFFINITY PREDICTED BY RF-SCORE:    0.00 PKD
ROOT
HETATM    1  C   UNL     1     -12.306   6.940  68.965  1.00  0.00     2.255 C  
HETATM    2  C   UNL     1     -12.094   8.443  68.941  1.00  0.00     2.650 C  
ENDROOT
BRANCH   2   3
HETATM    3  C   UNL     1     -12.387   9.057  70.314  1.00  0.00     0.462 C  
BRANCH   3   4
HETATM    4  C   UNL     1     -11.853  10.479  70.393  1.00  0.00    -0.340 C  
BRANCH   4   5
HETATM    5  N   UNL     1     -10.449  10.556  69.999  1.00  0.00    -0.449 NA 
HETATM    6  H   UNL     1     -10.073  11.423  69.615  1.00  0.00     0.000 HD 
BRANCH   5   7
HETATM    7  C   UNL     1      -9.624   9.445  70.149  1.00  0.00    -0.238 A  
HETATM    8  C   UNL     1      -8.563   9.137  69.269  1.00  0.00    -0.137 A  
HETATM    9  C   UNL     1      -9.286   6.780  72.815  1.00  0.00    -0.135 C  
HETATM   10  C   UNL     1      -7.734   8.031  69.569  1.00  0.00    -0.103 A  
HETATM   11  O   UNL     1      -8.956   5.477  72.786  1.00  0.00    -0.123 OA 
HETATM   12  O   UNL     1      -9.810   7.312  73.780  1.00  0.00    -0.276 OA 
HETATM   13  C   UNL     1      -7.940   7.232  70.712  1.00  0.00    -0.099 A  
HETATM   14  C   UNL     1      -9.001   7.519  71.559  1.00  0.00    -0.142 A  
HETATM   15  C   UNL     1      -9.817   8.611  71.270  1.00  0.00    -0.307 A  
BRANCH   8  16
HETATM   16  O   UNL     1      -8.416   9.736  68.034  1.00  0.00    -0.117 OA 
BRANCH  16  17
HETATM   17  C   UNL     1      -9.456  10.330  67.358  1.00  0.00    -0.153 A  
HETATM   18  C   UNL     1     -10.424  12.479  66.732  1.00  0.00    -0.243 A  
HETATM   19  C   UNL     1     -11.397  11.825  65.972  1.00  0.00    -0.335 A  
HETATM   20  C   UNL     1     -10.460   9.687  66.639  1.00  0.00    -0.233 A  
HETATM   21  C   UNL     1      -9.458  11.734  67.413  1.00  0.00    -0.174 A  
HETATM   22  C   UNL     1     -11.409  10.434  65.927  1.00  0.00     0.922 A  
ENDBRANCH  16  17
ENDBRANCH   8  16
BRANCH  10  23
HETATM   23  S   UNL     1      -6.359   7.621  68.538  1.00  0.00    -0.045 S  
HETATM   24  O   UNL     1      -5.938   8.787  67.797  1.00  0.00    -0.046 OA 
HETATM   25  H2  UNL     1      -5.208   7.255  70.657  1.00  0.00     0.000 HD 
HETATM   26  H1  UNL     1      -4.365   7.012  69.043  1.00  0.00     0.000 HD 
HETATM   27  N   UNL     1      -5.159   7.248  69.638  1.00  0.00    -0.015 N  
HETATM   28  O   UNL     1      -6.650   6.369  67.869  1.00  0.00    -0.056 OA 
ENDBRANCH  10  23
ENDBRANCH   5   7
ENDBRANCH   4   5
ENDBRANCH   3   4
ENDBRANCH   2   3
TORSDOF 7
ENDMDL
MODEL      220
REMARK 921   NORMALIZED FREE ENERGY PREDICTED BY IDOCK:    4.38 KCAL/MOL
REMARK 922        TOTAL FREE ENERGY PREDICTED BY IDOCK:    5.41 KCAL/MOL
REMARK 923 INTER-LIGAND FREE ENERGY PREDICTED BY IDOCK:    1.41 KCAL/MOL
REMARK 924 INTRA-LIGAND FREE ENERGY PREDICTED BY IDOCK:    4.00 KCAL/MOL
REMARK 927      BINDING AFFINITY PREDICTED BY RF-SCORE:    0.00 PKD
ROOT
HETATM    1  C   UNL     1      -8.200  20.613  71.535  1.00  0.00     2.466 C  
HETATM    2  C   UNL     1      -8.219  19.681  70.337  1.00  0.00     1.449 C  
ENDROOT
BRANCH   2   3
HETATM    3  C   UNL     1      -9.603  19.663  69.681  1.00  0.00     0.116 C  
BRANCH   3   4
HETATM    4  C   UNL     1      -9.909  18.289  69.106  1.00  0.00    -0.153 C  
BRANCH   4   5
HETATM    5  N   UNL     1      -8.698  17.602  68.664  1.00  0.00    -0.289 NA 
HETATM    6  H   UNL     1      -7.819  18.114  68.585  1.00  0.00     0.000 HD 
BRANCH   5   7
HETATM    7  C   UNL     1      -8.745  16.246  68.351  1.00  0.00    -0.205 A  
HETATM    8  C   UNL     1      -9.519  15.716  67.295  1.00  0.00    -0.216 A  
HETATM    9  C   UNL     1      -6.889  13.203  69.623  1.00  0.00     0.165 C  
HETATM   10  C   UNL     1      -9.421  14.334  67.011  1.00  0.00    -0.254 A  
HETATM   11  O   UNL     1      -7.227  11.911  69.784  1.00  0.00     0.187 OA 
HETATM   12  O   UNL     1      -5.898  13.699  70.132  1.00  0.00    -0.124 OA 
HETATM   13  C   UNL     1      -8.580  13.478  67.751  1.00  0.00    -0.183 A  
HETATM   14  C   UNL     1      -7.843  13.996  68.806  1.00  0.00    -0.097 A  
HETATM   15  C   UNL     1      -7.932  15.358  69.086  1.00  0.00    -0.222 A  
BRANCH   8  16
HETATM   16  O   UNL     1     -10.511  16.435  66.659  1.00  0.00    -0.295 OA 
BRANCH  16  17
HETATM   17  C   UNL     1     -10.384  17.767  66.335  1.00  0.00    -0.351 A  
HETATM   18  C   UNL     1      -8.784  19.591  66.097  1.00  0.00    -0.332 A  
HETATM   19  C   UNL     1      -9.801  20.427  65.628  1.00  0.00     0.018 A  
HETATM   20  C   UNL     1     -11.399  18.622  65.915  1.00  0.00     1.112 A  
HETATM   21  C   UNL     1      -9.077  18.268  66.441  1.00  0.00    -0.260 A  
HETATM   22  C   UNL     1     -11.100  19.939  65.537  1.00  0.00     0.052 A  
ENDBRANCH  16  17
ENDBRANCH   8  16
BRANCH  10  23
HETATM   23  S   UNL     1     -10.324  13.615  65.673  1.00  0.00    -0.307 S  
HETATM   24  O   UNL     1     -10.125  12.185  65.662  1.00  0.00    -0.239 OA 
HETATM   25  H2  UNL     1     -12.277  14.392  66.912  1.00  0.00     0.000 HD 
HETATM   26  H1  UNL     1     -12.436  13.498  65.314  1.00  0.00     0.000 HD 
HETATM   27  N   UNL     1     -11.915  13.913  66.087  1.00  0.00    -0.400 N  
HETATM   28  O   UNL     1     -10.094  14.417  64.488  1.00  0.00    -0.224 OA 
ENDBRANCH  10  23
ENDBRANCH   5   7
ENDBRANCH   4   5
ENDBRANCH   3   4
ENDBRANCH   2   3
TORSDOF 7
ENDMDL
MODEL      221
REMARK 921   NORMALIZED FREE ENERGY PREDICTED BY IDOCK:   27.20 KCAL/MOL
REMARK 922        TOTAL FREE ENERGY PREDICTED BY IDOCK:   37.57 KCAL/MOL
REMARK 923 INTER-LIGAND FREE ENERGY PREDICTED BY IDOCK:   30.74 KCAL/MOL
REMARK 924 INTRA-LIGAND FREE ENERGY PREDICTED BY IDOCK:    6.83 KCAL/MOL
REMARK 927      BINDING AFFINITY PREDICTED BY RF-SCORE:    0.00 PKD
ROOT
HETATM    1  C   UNL     1      -6.684  12.966  65.593  1.00  0.00     5.647 C  
HETATM    2  C   UNL     1      -7.257  13.238  64.214  1.00  0.00    15.414 C  
ENDROOT
BRANCH   2   3
HETATM    3  C   UNL     1      -8.680  13.795  64.313  1.00  0.00     5.989 C  
BRANCH   3   4
HETATM    4  C   UNL     1      -9.239  13.600  65.714  1.00  0.00     0.317 C  
BRANCH   4   5
HETATM    5  N   UNL     1      -8.193  13.259  66.675  1.00  0.00    -0.378 NA 
HETATM    6  H   UNL     1      -7.452  13.928  66.882  1.00  0.00     0.000 HD 
BRANCH   5   7
HETATM    7  C   UNL     1      -8.211  12.019  67.308  1.00  0.00    -0.173 A  
HETATM    8  C   UNL     1      -7.474  11.730  68.477  1.00  0.00    -0.110 A  
HETATM    9  C   UNL     1     -10.186   8.836  66.769  1.00  0.00    -0.284 C  
HETATM   10  C   UNL     1      -7.637  10.464  69.085  1.00  0.00    -0.117 A  
HETATM   11  O   UNL     1      -9.905   7.531  66.934  1.00  0.00    -0.190 OA 
HETATM   12  O   UNL     1     -11.148   9.234  66.133  1.00  0.00     0.727 OA 
HETATM   13  C   UNL     1      -8.507   9.488  68.556  1.00  0.00    -0.119 A  
HETATM   14  C   UNL     1      -9.207   9.764  67.390  1.00  0.00    -0.151 A  
HETATM   15  C   UNL     1      -9.054  11.013  66.791  1.00  0.00    -0.172 A  
BRANCH   8  16
HETATM   16  O   UNL     1      -6.459  12.541  68.942  1.00  0.00    -0.078 OA 
BRANCH  16  17
HETATM   17  C   UNL     1      -6.655  13.850  69.320  1.00  0.00    -0.113 A  
HETATM   18  C   UNL     1      -7.588  15.986  68.605  1.00  0.00    -0.173 A  
HETATM   19  C   UNL     1      -7.289  16.540  69.852  1.00  0.00     0.592 A  
HETATM   20  C   UNL     1      -6.316  14.425  70.542  1.00  0.00    -0.121 A  
HETATM   21  C   UNL     1      -7.278  14.648  68.347  1.00  0.00    -0.117 A  
HETATM   22  C   UNL     1      -6.658  15.758  70.814  1.00  0.00     0.849 A  
ENDBRANCH  16  17
ENDBRANCH   8  16
BRANCH  10  23
HETATM   23  S   UNL     1      -6.783  10.056  70.577  1.00  0.00    -0.076 S  
HETATM   24  O   UNL     1      -5.662  10.948  70.758  1.00  0.00    -0.139 OA 
HETATM   25  H2  UNL     1      -8.859  10.752  71.652  1.00  0.00     0.000 HD 
HETATM   26  H1  UNL     1      -7.417  10.160  72.624  1.00  0.00     0.000 HD 
HETATM   27  N   UNL     1      -7.910  10.395  71.763  1.00  0.00     3.750 N  
HETATM   28  O   UNL     1      -6.617   8.617  70.626  1.00  0.00    -0.036 OA 
ENDBRANCH  10  23
ENDBRANCH   5   7
ENDBRANCH   4   5
ENDBRANCH   3   4
ENDBRANCH   2   3
TORSDOF 7
ENDMDL
MODEL      222
REMARK 921   NORMALIZED FREE ENERGY PREDICTED BY IDOCK:   27.86 KCAL/MOL
REMARK 922        TOTAL FREE ENERGY PREDICTED BY IDOCK:   38.49 KCAL/MOL
REMARK 923 INTER-LIGAND FREE ENERGY PREDICTED BY IDOCK:   29.19 KCAL/MOL
REMARK 924 INTRA-LIGAND FREE ENERGY PREDICTED BY IDOCK:    9.30 KCAL/MOL
REMARK 927      BINDING AFFINITY PREDICTED BY RF-SCORE:    0.00 PKD
ROOT
HETATM    1  C   UNL     1     -11.703  17.347  72.428  1.00  0.00     1.470 C  
HETATM    2  C   UNL     1     -12.914  16.652  71.833  1.00  0.00     1.947 C  
ENDROOT
BRANCH   2   3
HETATM    3  C   UNL     1     -12.574  16.031  70.474  1.00  0.00     0.047 C  
BRANCH   3   4
HETATM    4  C   UNL     1     -13.496  14.861  70.170  1.00  0.00     0.482 C  
BRANCH   4   5
HETATM    5  N   UNL     1     -13.752  14.727  68.738  1.00  0.00     3.586 NA 
HETATM    6  H   UNL     1     -14.697  14.538  68.403  1.00  0.00     0.000 HD 
BRANCH   5   7
HETATM    7  C   UNL     1     -12.704  14.858  67.832  1.00  0.00     1.193 A  
HETATM    8  C   UNL     1     -11.391  14.403  68.086  1.00  0.00    -0.294 A  
HETATM    9  C   UNL     1     -12.476  16.077  64.256  1.00  0.00     0.684 C  
HETATM   10  C   UNL     1     -10.427  14.508  67.057  1.00  0.00    -0.268 A  
HETATM   11  O   UNL     1     -11.525  16.719  63.554  1.00  0.00    -0.169 OA 
HETATM   12  O   UNL     1     -13.631  15.979  63.876  1.00  0.00     0.724 OA 
HETATM   13  C   UNL     1     -10.737  15.054  65.796  1.00  0.00    -0.351 A  
HETATM   14  C   UNL     1     -12.020  15.527  65.558  1.00  0.00     0.469 A  
HETATM   15  C   UNL     1     -12.975  15.421  66.567  1.00  0.00     2.451 A  
BRANCH   8  16
HETATM   16  O   UNL     1     -10.953  14.046  69.346  1.00  0.00    -0.231 OA 
BRANCH  16  17
HETATM   17  C   UNL     1      -9.958  14.720  70.015  1.00  0.00     0.302 A  
HETATM   18  C   UNL     1      -9.034  15.181  72.224  1.00  0.00     6.662 A  
HETATM   19  C   UNL     1      -7.984  15.895  71.641  1.00  0.00     6.306 A  
HETATM   20  C   UNL     1      -8.936  15.476  69.447  1.00  0.00    -0.275 A  
HETATM   21  C   UNL     1     -10.008  14.593  71.412  1.00  0.00     2.749 A  
HETATM   22  C   UNL     1      -7.938  16.037  70.258  1.00  0.00     1.388 A  
ENDBRANCH  16  17
ENDBRANCH   8  16
BRANCH  10  23
HETATM   23  S   UNL     1      -8.780  13.912  67.293  1.00  0.00    -0.218 S  
HETATM   24  O   UNL     1      -8.308  13.286  66.080  1.00  0.00     0.842 OA 
HETATM   25  H2  UNL     1      -8.233  16.277  67.531  1.00  0.00     0.000 HD 
HETATM   26  H1  UNL     1      -6.950  14.969  67.661  1.00  0.00     0.000 HD 
HETATM   27  N   UNL     1      -7.900  15.313  67.526  1.00  0.00    -0.159 N  
HETATM   28  O   UNL     1      -8.723  13.223  68.566  1.00  0.00    -0.151 OA 
ENDBRANCH  10  23
ENDBRANCH   5   7
ENDBRANCH   4   5
ENDBRANCH   3   4
ENDBRANCH   2   3
TORSDOF 7
ENDMDL
MODEL      223
REMARK 921   NORMALIZED FREE ENERGY PREDICTED BY IDOCK:   30.98 KCAL/MOL
REMARK 922        TOTAL FREE ENERGY PREDICTED BY IDOCK:   42.89 KCAL/MOL
REMARK 923 INTER-LIGAND FREE ENERGY PREDICTED BY IDOCK:   30.29 KCAL/MOL
REMARK 924 INTRA-LIGAND FREE ENERGY PREDICTED BY IDOCK:   12.59 KCAL/MOL
REMARK 927      BINDING AFFINITY PREDICTED BY RF-SCORE:    0.00 PKD
ROOT
HETATM    1  C   UNL     1      -7.114   9.865  65.156  1.00  0.00    -0.129 C  
HETATM    2  C   UNL     1      -6.882  11.191  64.457  1.00  0.00     1.058 C  
ENDROOT
BRANCH   2   3
HETATM    3  C   UNL     1      -7.029  11.042  62.940  1.00  0.00     0.368 C  
BRANCH   3   4
HETATM    4  C   UNL     1      -8.014  12.061  62.390  1.00  0.00     1.931 C  
BRANCH   4   5
HETATM    5  N   UNL     1      -8.917  12.559  63.425  1.00  0.00     0.450 NA 
HETATM    6  H   UNL     1      -9.012  13.563  63.580  1.00  0.00     0.000 HD 
BRANCH   5   7
HETATM    7  C   UNL     1      -9.647  11.661  64.199  1.00  0.00    -0.115 A  
HETATM    8  C   UNL     1     -10.608  12.057  65.155  1.00  0.00    -0.288 A  
HETATM    9  C   UNL     1      -9.940   7.888  64.248  1.00  0.00     4.675 C  
HETATM   10  C   UNL     1     -11.354  11.057  65.820  1.00  0.00     0.303 A  
HETATM   11  O   UNL     1     -10.148   6.987  65.224  1.00  0.00     1.646 OA 
HETATM   12  O   UNL     1      -9.539   7.583  63.137  1.00  0.00     2.629 OA 
HETATM   13  C   UNL     1     -11.162   9.685  65.559  1.00  0.00     2.675 A  
HETATM   14  C   UNL     1     -10.197   9.297  64.640  1.00  0.00     1.772 A  
HETATM   15  C   UNL     1      -9.463  10.280  63.978  1.00  0.00    -0.356 A  
BRANCH   8  16
HETATM   16  O   UNL     1     -10.716  13.354  65.615  1.00  0.00    -0.270 OA 
BRANCH  16  17
HETATM   17  C   UNL     1     -10.748  13.677  66.952  1.00  0.00    -0.275 A  
HETATM   18  C   UNL     1     -12.068  14.781  68.679  1.00  0.00    -0.223 A  
HETATM   19  C   UNL     1     -11.141  14.385  69.647  1.00  0.00    -0.241 A  
HETATM   20  C   UNL     1      -9.805  13.331  67.916  1.00  0.00    -0.234 A  
HETATM   21  C   UNL     1     -11.872  14.422  67.343  1.00  0.00    -0.430 A  
HETATM   22  C   UNL     1     -10.018  13.661  69.263  1.00  0.00     0.346 A  
ENDBRANCH  16  17
ENDBRANCH   8  16
BRANCH  10  23
HETATM   23  S   UNL     1     -12.606  11.485  66.990  1.00  0.00     3.677 S  
HETATM   24  O   UNL     1     -13.415  10.326  67.287  1.00  0.00    10.447 OA 
HETATM   25  H2  UNL     1     -10.717  11.855  68.489  1.00  0.00     0.000 HD 
HETATM   26  H1  UNL     1     -12.452  12.114  69.036  1.00  0.00     0.000 HD 
HETATM   27  N   UNL     1     -11.729  11.867  68.360  1.00  0.00    -0.318 N  
HETATM   28  O   UNL     1     -13.207  12.736  66.575  1.00  0.00     1.196 OA 
ENDBRANCH  10  23
ENDBRANCH   5   7
ENDBRANCH   4   5
ENDBRANCH   3   4
ENDBRANCH   2   3
TORSDOF 7
ENDMDL
MODEL      224
REMARK 921   NORMALIZED FREE ENERGY PREDICTED BY IDOCK:   52.83 KCAL/MOL
REMARK 922        TOTAL FREE ENERGY PREDICTED BY IDOCK:   73.68 KCAL/MOL
REMARK 923 INTER-LIGAND FREE ENERGY PREDICTED BY IDOCK:   49.96 KCAL/MOL
REMARK 924 INTRA-LIGAND FREE ENERGY PREDICTED BY IDOCK:   23.73 KCAL/MOL
REMARK 927      BINDING AFFINITY PREDICTED BY RF-SCORE:    0.00 PKD
ROOT
HETATM    1  C   UNL     1      -9.577  18.000  67.874  1.00  0.00    -0.284 C  
HETATM    2  C   UNL     1     -11.052  17.832  68.193  1.00  0.00     0.124 C  
ENDROOT
BRANCH   2   3
HETATM    3  C   UNL     1     -11.773  17.086  67.066  1.00  0.00     1.419 C  
BRANCH   3   4
HETATM    4  C   UNL     1     -10.796  16.235  66.271  1.00  0.00    -0.098 C  
BRANCH   4   5
HETATM    5  N   UNL     1      -9.557  15.997  67.007  1.00  0.00    -0.217 NA 
HETATM    6  H   UNL     1      -8.684  15.842  66.503  1.00  0.00     0.000 HD 
BRANCH   5   7
HETATM    7  C   UNL     1      -9.570  15.982  68.399  1.00  0.00    -0.206 A  
HETATM    8  C   UNL     1      -9.325  14.823  69.169  1.00  0.00    -0.101 A  
HETATM    9  C   UNL     1      -9.901  18.673  71.040  1.00  0.00     3.518 C  
HETATM   10  C   UNL     1      -9.275  14.944  70.577  1.00  0.00     1.391 A  
HETATM   11  O   UNL     1     -10.446  18.703  72.269  1.00  0.00     2.517 OA 
HETATM   12  O   UNL     1      -9.597  19.680  70.422  1.00  0.00     0.579 OA 
HETATM   13  C   UNL     1      -9.464  16.180  71.228  1.00  0.00     3.884 A  
HETATM   14  C   UNL     1      -9.733  17.311  70.471  1.00  0.00     2.612 A  
HETATM   15  C   UNL     1      -9.778  17.198  69.082  1.00  0.00    -0.150 A  
BRANCH   8  16
HETATM   16  O   UNL     1      -9.331  13.552  68.631  1.00  0.00    -0.151 OA 
BRANCH  16  17
HETATM   17  C   UNL     1      -8.262  12.690  68.726  1.00  0.00     0.119 A  
HETATM   18  C   UNL     1      -7.637  10.365  69.109  1.00  0.00    -0.117 A  
HETATM   19  C   UNL     1      -6.297  10.681  68.870  1.00  0.00    -0.045 A  
HETATM   20  C   UNL     1      -6.919  13.005  68.539  1.00  0.00    -0.102 A  
HETATM   21  C   UNL     1      -8.610  11.364  69.030  1.00  0.00     0.067 A  
HETATM   22  C   UNL     1      -5.945  11.996  68.585  1.00  0.00    -0.054 A  
ENDBRANCH  16  17
ENDBRANCH   8  16
BRANCH  10  23
HETATM   23  S   UNL     1      -8.924  13.544  71.596  1.00  0.00    13.629 S  
HETATM   24  O   UNL     1      -8.113  13.948  72.720  1.00  0.00     6.664 OA 
HETATM   25  H2  UNL     1     -11.332  13.548  71.987  1.00  0.00     0.000 HD 
HETATM   26  H1  UNL     1     -10.227  12.303  72.764  1.00  0.00     0.000 HD 
HETATM   27  N   UNL     1     -10.430  13.111  72.176  1.00  0.00     9.075 N  
HETATM   28  O   UNL     1      -8.528  12.445  70.738  1.00  0.00     5.885 OA 
ENDBRANCH  10  23
ENDBRANCH   5   7
ENDBRANCH   4   5
ENDBRANCH   3   4
ENDBRANCH   2   3
TORSDOF 7
ENDMDL
