MODEL        1
REMARK 921   NORMALIZED FREE ENERGY PREDICTED BY IDOCK:   -5.83 KCAL/MOL
REMARK 922        TOTAL FREE ENERGY PREDICTED BY IDOCK:   -7.97 KCAL/MOL
REMARK 923 INTER-LIGAND FREE ENERGY PREDICTED BY IDOCK:   -7.53 KCAL/MOL
REMARK 924 INTRA-LIGAND FREE ENERGY PREDICTED BY IDOCK:   -0.44 KCAL/MOL
REMARK 927      BINDING AFFINITY PREDICTED BY RF-SCORE:    0.00 PKD
ROOT
HETATM    1  C   UNL     1     -12.750  11.893  63.534  1.00  0.00    -0.530 C  
HETATM    2  C   UNL     1     -11.327  12.429  63.612  1.00  0.00    -0.556 C  
ENDROOT
BRANCH   2   3
HETATM    3  C   UNL     1     -10.321  11.316  63.921  1.00  0.00    -0.439 C  
BRANCH   3   4
HETATM    4  C   UNL     1      -9.695  11.432  65.320  1.00  0.00    -0.241 C  
BRANCH   4   5
HETATM    5  N   UNL     1     -10.649  11.671  66.413  1.00  0.00    -0.248 NA 
HETATM    6  C   UNL     1     -11.122  10.443  67.083  1.00  0.00    -0.122 C  
HETATM    7  C   UNL     1     -10.167   9.816  68.105  1.00  0.00    -0.220 C  
HETATM    8  C   UNL     1      -9.574  10.834  69.073  1.00  0.00    -0.193 C  
HETATM    9  C   UNL     1      -9.030  12.040  68.316  1.00  0.00    -0.186 C  
HETATM   10  C   UNL     1     -10.103  12.645  67.403  1.00  0.00    -0.218 C  
BRANCH  10  11
HETATM   11  C   UNL     1     -11.251  13.273  68.234  1.00  0.00    -0.277 C  
HETATM   12  N   UNL     1     -10.904  13.474  69.562  1.00  0.00    -0.447 N  
HETATM   13  O   UNL     1     -12.368  13.482  67.764  1.00  0.00    -0.237 OA 
HETATM   14  H   UNL     1      -9.936  13.352  69.859  1.00  0.00     0.000 HD 
BRANCH  12  15
HETATM   15  C   UNL     1     -11.882  13.846  70.496  1.00  0.00    -0.247 A  
HETATM   16  C   UNL     1     -12.612  12.853  71.174  1.00  0.00    -0.373 A  
HETATM   17  C   UNL     1     -12.498  11.390  70.865  1.00  0.00    -0.478 C  
HETATM   18  C   UNL     1     -13.592  13.266  72.094  1.00  0.00    -0.655 A  
HETATM   19  C   UNL     1     -13.808  14.621  72.353  1.00  0.00    -0.580 A  
HETATM   20  C   UNL     1     -13.059  15.588  71.695  1.00  0.00    -0.561 A  
HETATM   21  C   UNL     1     -12.092  15.217  70.757  1.00  0.00    -0.399 A  
HETATM   22  C   UNL     1     -11.280  16.284  70.071  1.00  0.00    -0.324 C  
ENDBRANCH  12  15
ENDBRANCH  10  11
ENDBRANCH   4   5
ENDBRANCH   3   4
ENDBRANCH   2   3
TORSDOF 5
ENDMDL
MODEL        2
REMARK 921   NORMALIZED FREE ENERGY PREDICTED BY IDOCK:   -5.73 KCAL/MOL
REMARK 922        TOTAL FREE ENERGY PREDICTED BY IDOCK:   -7.84 KCAL/MOL
REMARK 923 INTER-LIGAND FREE ENERGY PREDICTED BY IDOCK:   -7.29 KCAL/MOL
REMARK 924 INTRA-LIGAND FREE ENERGY PREDICTED BY IDOCK:   -0.55 KCAL/MOL
REMARK 927      BINDING AFFINITY PREDICTED BY RF-SCORE:    0.00 PKD
ROOT
HETATM    1  C   UNL     1      -9.960  19.338  68.677  1.00  0.00    -0.506 C  
HETATM    2  C   UNL     1      -9.616  19.284  67.194  1.00  0.00    -0.397 C  
ENDROOT
BRANCH   2   3
HETATM    3  C   UNL     1      -8.493  18.282  66.911  1.00  0.00    -0.267 C  
BRANCH   3   4
HETATM    4  C   UNL     1      -8.959  17.053  66.112  1.00  0.00    -0.208 C  
BRANCH   4   5
HETATM    5  N   UNL     1     -10.125  16.352  66.669  1.00  0.00    -0.273 NA 
HETATM    6  C   UNL     1     -10.859  15.526  65.689  1.00  0.00    -0.346 C  
HETATM    7  C   UNL     1     -10.246  14.162  65.356  1.00  0.00    -0.380 C  
HETATM    8  C   UNL     1      -9.816  13.381  66.593  1.00  0.00    -0.278 C  
HETATM    9  C   UNL     1      -8.994  14.263  67.526  1.00  0.00    -0.197 C  
HETATM   10  C   UNL     1      -9.750  15.551  67.871  1.00  0.00    -0.211 C  
BRANCH  10  11
HETATM   11  C   UNL     1     -11.004  15.247  68.731  1.00  0.00    -0.260 C  
HETATM   12  N   UNL     1     -10.689  14.668  69.952  1.00  0.00    -0.454 N  
HETATM   13  O   UNL     1     -12.148  15.431  68.318  1.00  0.00    -0.191 OA 
HETATM   14  H   UNL     1      -9.717  14.621  70.258  1.00  0.00     0.000 HD 
BRANCH  12  15
HETATM   15  C   UNL     1     -11.706  14.147  70.765  1.00  0.00    -0.163 A  
HETATM   16  C   UNL     1     -12.185  12.844  70.536  1.00  0.00    -0.395 A  
HETATM   17  C   UNL     1     -11.758  12.002  69.372  1.00  0.00    -0.402 C  
HETATM   18  C   UNL     1     -13.213  12.363  71.366  1.00  0.00    -0.190 A  
HETATM   19  C   UNL     1     -13.717  13.142  72.410  1.00  0.00    -0.640 A  
HETATM   20  C   UNL     1     -13.213  14.415  72.640  1.00  0.00    -0.586 A  
HETATM   21  C   UNL     1     -12.207  14.938  71.822  1.00  0.00    -0.416 A  
HETATM   22  C   UNL     1     -11.664  16.313  72.105  1.00  0.00    -0.531 C  
ENDBRANCH  12  15
ENDBRANCH  10  11
ENDBRANCH   4   5
ENDBRANCH   3   4
ENDBRANCH   2   3
TORSDOF 5
ENDMDL
MODEL        3
REMARK 921   NORMALIZED FREE ENERGY PREDICTED BY IDOCK:   -5.72 KCAL/MOL
REMARK 922        TOTAL FREE ENERGY PREDICTED BY IDOCK:   -7.83 KCAL/MOL
REMARK 923 INTER-LIGAND FREE ENERGY PREDICTED BY IDOCK:   -7.35 KCAL/MOL
REMARK 924 INTRA-LIGAND FREE ENERGY PREDICTED BY IDOCK:   -0.48 KCAL/MOL
REMARK 927      BINDING AFFINITY PREDICTED BY RF-SCORE:    0.00 PKD
ROOT
HETATM    1  C   UNL     1      -9.839  10.177  64.867  1.00  0.00    -0.390 C  
HETATM    2  C   UNL     1      -9.899  10.727  63.448  1.00  0.00    -0.400 C  
ENDROOT
BRANCH   2   3
HETATM    3  C   UNL     1     -10.327  12.198  63.430  1.00  0.00    -0.438 C  
BRANCH   3   4
HETATM    4  C   UNL     1     -11.544  12.490  64.324  1.00  0.00    -0.371 C  
BRANCH   4   5
HETATM    5  N   UNL     1     -11.511  13.785  65.020  1.00  0.00    -0.321 NA 
HETATM    6  C   UNL     1     -12.390  13.858  66.205  1.00  0.00    -0.465 C  
HETATM    7  C   UNL     1     -11.859  13.200  67.484  1.00  0.00    -0.409 C  
HETATM    8  C   UNL     1     -10.411  13.567  67.789  1.00  0.00    -0.241 C  
HETATM    9  C   UNL     1      -9.541  13.393  66.550  1.00  0.00    -0.277 C  
HETATM   10  C   UNL     1     -10.113  14.177  65.363  1.00  0.00    -0.333 C  
BRANCH  10  11
HETATM   11  C   UNL     1     -10.026  15.705  65.612  1.00  0.00    -0.354 C  
HETATM   12  N   UNL     1      -9.224  16.027  66.697  1.00  0.00    -0.228 N  
HETATM   13  O   UNL     1     -10.675  16.519  64.956  1.00  0.00    -0.662 OA 
HETATM   14  H   UNL     1      -8.655  15.307  67.141  1.00  0.00     0.000 HD 
BRANCH  12  15
HETATM   15  C   UNL     1      -9.194  17.343  67.183  1.00  0.00    -0.237 A  
HETATM   16  C   UNL     1      -8.203  18.232  66.729  1.00  0.00    -0.269 A  
HETATM   17  C   UNL     1      -7.073  17.820  65.834  1.00  0.00    -0.278 C  
HETATM   18  C   UNL     1      -8.200  19.538  67.249  1.00  0.00    -0.321 A  
HETATM   19  C   UNL     1      -9.174  19.951  68.161  1.00  0.00    -0.374 A  
HETATM   20  C   UNL     1     -10.162  19.068  68.577  1.00  0.00    -0.422 A  
HETATM   21  C   UNL     1     -10.185  17.754  68.100  1.00  0.00    -0.383 A  
HETATM   22  C   UNL     1     -11.278  16.823  68.552  1.00  0.00    -0.176 C  
ENDBRANCH  12  15
ENDBRANCH  10  11
ENDBRANCH   4   5
ENDBRANCH   3   4
ENDBRANCH   2   3
TORSDOF 5
ENDMDL
MODEL        4
REMARK 921   NORMALIZED FREE ENERGY PREDICTED BY IDOCK:   -5.68 KCAL/MOL
REMARK 922        TOTAL FREE ENERGY PREDICTED BY IDOCK:   -7.78 KCAL/MOL
REMARK 923 INTER-LIGAND FREE ENERGY PREDICTED BY IDOCK:   -7.22 KCAL/MOL
REMARK 924 INTRA-LIGAND FREE ENERGY PREDICTED BY IDOCK:   -0.56 KCAL/MOL
REMARK 927      BINDING AFFINITY PREDICTED BY RF-SCORE:    0.00 PKD
ROOT
HETATM    1  C   UNL     1      -8.655  16.399  66.327  1.00  0.00    -0.375 C  
HETATM    2  C   UNL     1     -10.091  16.823  66.049  1.00  0.00    -0.350 C  
ENDROOT
BRANCH   2   3
HETATM    3  C   UNL     1     -10.823  15.798  65.176  1.00  0.00    -0.444 C  
BRANCH   3   4
HETATM    4  C   UNL     1     -10.099  14.444  65.088  1.00  0.00    -0.326 C  
BRANCH   4   5
HETATM    5  N   UNL     1     -10.801  13.320  65.726  1.00  0.00    -0.273 NA 
HETATM    6  C   UNL     1     -10.915  12.117  64.876  1.00  0.00    -0.309 C  
HETATM    7  C   UNL     1      -9.666  11.234  64.780  1.00  0.00    -0.298 C  
HETATM    8  C   UNL     1      -9.026  10.950  66.134  1.00  0.00    -0.196 C  
HETATM    9  C   UNL     1      -8.861  12.239  66.930  1.00  0.00    -0.207 C  
HETATM   10  C   UNL     1     -10.195  12.987  67.049  1.00  0.00    -0.245 C  
BRANCH  10  11
HETATM   11  C   UNL     1     -11.202  12.193  67.920  1.00  0.00    -0.272 C  
HETATM   12  N   UNL     1     -10.752  11.999  69.218  1.00  0.00    -0.440 N  
HETATM   13  O   UNL     1     -12.243  11.723  67.463  1.00  0.00    -0.526 OA 
HETATM   14  H   UNL     1      -9.918  12.487  69.546  1.00  0.00     0.000 HD 
BRANCH  12  15
HETATM   15  C   UNL     1     -11.443  11.135  70.080  1.00  0.00    -0.292 A  
HETATM   16  C   UNL     1     -11.105   9.770  70.117  1.00  0.00    -0.335 A  
HETATM   17  C   UNL     1     -10.118   9.139  69.182  1.00  0.00    -0.199 C  
HETATM   18  C   UNL     1     -11.829   8.934  70.985  1.00  0.00    -0.324 A  
HETATM   19  C   UNL     1     -12.828   9.451  71.813  1.00  0.00    -0.484 A  
HETATM   20  C   UNL     1     -13.129  10.806  71.785  1.00  0.00    -0.573 A  
HETATM   21  C   UNL     1     -12.448  11.665  70.918  1.00  0.00    -0.440 A  
HETATM   22  C   UNL     1     -12.780  13.133  70.920  1.00  0.00    -0.313 C  
ENDBRANCH  12  15
ENDBRANCH  10  11
ENDBRANCH   4   5
ENDBRANCH   3   4
ENDBRANCH   2   3
TORSDOF 5
ENDMDL
MODEL        5
REMARK 921   NORMALIZED FREE ENERGY PREDICTED BY IDOCK:   -5.68 KCAL/MOL
REMARK 922        TOTAL FREE ENERGY PREDICTED BY IDOCK:   -7.78 KCAL/MOL
REMARK 923 INTER-LIGAND FREE ENERGY PREDICTED BY IDOCK:   -7.48 KCAL/MOL
REMARK 924 INTRA-LIGAND FREE ENERGY PREDICTED BY IDOCK:   -0.30 KCAL/MOL
REMARK 927      BINDING AFFINITY PREDICTED BY RF-SCORE:    0.00 PKD
ROOT
HETATM    1  C   UNL     1     -12.156  13.950  63.965  1.00  0.00    -0.437 C  
HETATM    2  C   UNL     1     -11.983  12.445  63.819  1.00  0.00    -0.600 C  
ENDROOT
BRANCH   2   3
HETATM    3  C   UNL     1     -10.506  12.052  63.727  1.00  0.00    -0.469 C  
BRANCH   3   4
HETATM    4  C   UNL     1      -9.891  11.669  65.084  1.00  0.00    -0.249 C  
BRANCH   4   5
HETATM    5  N   UNL     1     -10.761  11.894  66.249  1.00  0.00    -0.260 NA 
HETATM    6  C   UNL     1     -11.155  10.660  66.957  1.00  0.00    -0.145 C  
HETATM    7  C   UNL     1     -10.110  10.056  67.901  1.00  0.00    -0.203 C  
HETATM    8  C   UNL     1      -9.461  11.089  68.817  1.00  0.00    -0.190 C  
HETATM    9  C   UNL     1      -9.003  12.302  68.016  1.00  0.00    -0.190 C  
HETATM   10  C   UNL     1     -10.157  12.883  67.189  1.00  0.00    -0.243 C  
BRANCH  10  11
HETATM   11  C   UNL     1     -11.248  13.491  68.107  1.00  0.00    -0.272 C  
HETATM   12  N   UNL     1     -10.891  13.474  69.448  1.00  0.00    -0.450 N  
HETATM   13  O   UNL     1     -12.338  13.866  67.679  1.00  0.00    -0.265 OA 
HETATM   14  H   UNL     1      -9.940  13.224  69.719  1.00  0.00     0.000 HD 
BRANCH  12  15
HETATM   15  C   UNL     1     -11.837  13.800  70.431  1.00  0.00    -0.253 A  
HETATM   16  C   UNL     1     -12.063  15.148  70.763  1.00  0.00    -0.387 A  
HETATM   17  C   UNL     1     -11.250  16.280  70.211  1.00  0.00    -0.343 C  
HETATM   18  C   UNL     1     -13.011  15.433  71.761  1.00  0.00    -0.509 A  
HETATM   19  C   UNL     1     -13.733  14.409  72.379  1.00  0.00    -0.590 A  
HETATM   20  C   UNL     1     -13.518  13.086  72.020  1.00  0.00    -0.584 A  
HETATM   21  C   UNL     1     -12.567  12.760  71.048  1.00  0.00    -0.362 A  
HETATM   22  C   UNL     1     -12.367  11.319  70.663  1.00  0.00    -0.477 C  
ENDBRANCH  12  15
ENDBRANCH  10  11
ENDBRANCH   4   5
ENDBRANCH   3   4
ENDBRANCH   2   3
TORSDOF 5
ENDMDL
MODEL        6
REMARK 921   NORMALIZED FREE ENERGY PREDICTED BY IDOCK:   -5.67 KCAL/MOL
REMARK 922        TOTAL FREE ENERGY PREDICTED BY IDOCK:   -7.76 KCAL/MOL
REMARK 923 INTER-LIGAND FREE ENERGY PREDICTED BY IDOCK:   -7.39 KCAL/MOL
REMARK 924 INTRA-LIGAND FREE ENERGY PREDICTED BY IDOCK:   -0.37 KCAL/MOL
REMARK 927      BINDING AFFINITY PREDICTED BY RF-SCORE:    0.00 PKD
ROOT
HETATM    1  C   UNL     1     -13.811  13.776  72.246  1.00  0.00    -0.679 C  
HETATM    2  C   UNL     1     -13.914  15.033  71.393  1.00  0.00    -0.565 C  
ENDROOT
BRANCH   2   3
HETATM    3  C   UNL     1     -12.623  15.292  70.610  1.00  0.00    -0.471 C  
BRANCH   3   4
HETATM    4  C   UNL     1     -12.232  14.132  69.678  1.00  0.00    -0.326 C  
BRANCH   4   5
HETATM    5  N   UNL     1     -11.164  14.439  68.715  1.00  0.00    -0.247 NA 
HETATM    6  C   UNL     1     -10.281  13.295  68.408  1.00  0.00    -0.249 C  
HETATM    7  C   UNL     1     -10.828  12.264  67.415  1.00  0.00    -0.277 C  
HETATM    8  C   UNL     1     -11.443  12.896  66.171  1.00  0.00    -0.393 C  
HETATM    9  C   UNL     1     -12.405  14.013  66.557  1.00  0.00    -0.442 C  
HETATM   10  C   UNL     1     -11.719  15.039  67.467  1.00  0.00    -0.253 C  
BRANCH  10  11
HETATM   11  C   UNL     1     -10.614  15.811  66.701  1.00  0.00    -0.307 C  
HETATM   12  N   UNL     1      -9.819  16.580  67.538  1.00  0.00    -0.244 N  
HETATM   13  O   UNL     1     -10.525  15.792  65.474  1.00  0.00    -0.353 OA 
HETATM   14  H   UNL     1      -9.900  16.482  68.550  1.00  0.00     0.000 HD 
BRANCH  12  15
HETATM   15  C   UNL     1      -8.903  17.493  66.994  1.00  0.00    -0.240 A  
HETATM   16  C   UNL     1      -7.584  17.082  66.726  1.00  0.00    -0.273 A  
HETATM   17  C   UNL     1      -7.046  15.737  67.109  1.00  0.00    -0.225 C  
HETATM   18  C   UNL     1      -6.694  18.029  66.191  1.00  0.00    -0.303 A  
HETATM   19  C   UNL     1      -7.116  19.329  65.902  1.00  0.00    -0.304 A  
HETATM   20  C   UNL     1      -8.428  19.709  66.146  1.00  0.00    -0.354 A  
HETATM   21  C   UNL     1      -9.338  18.803  66.698  1.00  0.00    -0.339 A  
HETATM   22  C   UNL     1     -10.760  19.235  66.937  1.00  0.00    -0.543 C  
ENDBRANCH  12  15
ENDBRANCH  10  11
ENDBRANCH   4   5
ENDBRANCH   3   4
ENDBRANCH   2   3
TORSDOF 5
ENDMDL
MODEL        7
REMARK 921   NORMALIZED FREE ENERGY PREDICTED BY IDOCK:   -5.65 KCAL/MOL
REMARK 922        TOTAL FREE ENERGY PREDICTED BY IDOCK:   -7.74 KCAL/MOL
REMARK 923 INTER-LIGAND FREE ENERGY PREDICTED BY IDOCK:   -7.54 KCAL/MOL
REMARK 924 INTRA-LIGAND FREE ENERGY PREDICTED BY IDOCK:   -0.20 KCAL/MOL
REMARK 927      BINDING AFFINITY PREDICTED BY RF-SCORE:    0.00 PKD
ROOT
HETATM    1  C   UNL     1     -12.115  16.036  72.257  1.00  0.00    -0.617 C  
HETATM    2  C   UNL     1     -12.465  15.663  70.823  1.00  0.00    -0.484 C  
ENDROOT
BRANCH   2   3
HETATM    3  C   UNL     1     -11.305  15.949  69.865  1.00  0.00    -0.348 C  
BRANCH   3   4
HETATM    4  C   UNL     1     -11.606  15.561  68.408  1.00  0.00    -0.357 C  
BRANCH   4   5
HETATM    5  N   UNL     1     -11.926  14.141  68.194  1.00  0.00    -0.352 NA 
HETATM    6  C   UNL     1     -12.159  13.780  66.781  1.00  0.00    -0.418 C  
HETATM    7  C   UNL     1     -10.909  13.590  65.914  1.00  0.00    -0.279 C  
HETATM    8  C   UNL     1      -9.842  12.731  66.583  1.00  0.00    -0.250 C  
HETATM    9  C   UNL     1      -9.588  13.204  68.009  1.00  0.00    -0.220 C  
HETATM   10  C   UNL     1     -10.894  13.257  68.811  1.00  0.00    -0.243 C  
BRANCH  10  11
HETATM   11  C   UNL     1     -11.467  11.834  69.036  1.00  0.00    -0.297 C  
HETATM   12  N   UNL     1     -10.934  11.213  70.156  1.00  0.00    -0.454 N  
HETATM   13  O   UNL     1     -12.245  11.303  68.245  1.00  0.00    -0.611 OA 
HETATM   14  H   UNL     1     -10.357  11.744  70.807  1.00  0.00     0.000 HD 
BRANCH  12  15
HETATM   15  C   UNL     1     -11.190   9.854  70.395  1.00  0.00    -0.313 A  
HETATM   16  C   UNL     1     -10.352   8.877  69.828  1.00  0.00    -0.213 A  
HETATM   17  C   UNL     1      -9.252   9.194  68.861  1.00  0.00    -0.139 C  
HETATM   18  C   UNL     1     -10.648   7.526  70.082  1.00  0.00    -0.241 A  
HETATM   19  C   UNL     1     -11.721   7.167  70.901  1.00  0.00    -0.367 A  
HETATM   20  C   UNL     1     -12.521   8.146  71.476  1.00  0.00    -0.333 A  
HETATM   21  C   UNL     1     -12.272   9.499  71.229  1.00  0.00    -0.433 A  
HETATM   22  C   UNL     1     -13.143  10.542  71.879  1.00  0.00    -0.567 C  
ENDBRANCH  12  15
ENDBRANCH  10  11
ENDBRANCH   4   5
ENDBRANCH   3   4
ENDBRANCH   2   3
TORSDOF 5
ENDMDL
MODEL        8
REMARK 921   NORMALIZED FREE ENERGY PREDICTED BY IDOCK:   -5.65 KCAL/MOL
REMARK 922        TOTAL FREE ENERGY PREDICTED BY IDOCK:   -7.74 KCAL/MOL
REMARK 923 INTER-LIGAND FREE ENERGY PREDICTED BY IDOCK:   -7.44 KCAL/MOL
REMARK 924 INTRA-LIGAND FREE ENERGY PREDICTED BY IDOCK:   -0.30 KCAL/MOL
REMARK 927      BINDING AFFINITY PREDICTED BY RF-SCORE:    0.00 PKD
ROOT
HETATM    1  C   UNL     1      -9.643  19.976  66.469  1.00  0.00    -0.539 C  
HETATM    2  C   UNL     1     -10.582  18.850  66.055  1.00  0.00    -0.470 C  
ENDROOT
BRANCH   2   3
HETATM    3  C   UNL     1     -10.117  17.498  66.603  1.00  0.00    -0.328 C  
BRANCH   3   4
HETATM    4  C   UNL     1     -10.361  16.330  65.632  1.00  0.00    -0.363 C  
BRANCH   4   5
HETATM    5  N   UNL     1     -11.222  15.256  66.150  1.00  0.00    -0.280 NA 
HETATM    6  C   UNL     1     -11.805  14.391  65.105  1.00  0.00    -0.386 C  
HETATM    7  C   UNL     1     -10.882  13.317  64.521  1.00  0.00    -0.409 C  
HETATM    8  C   UNL     1     -10.120  12.536  65.587  1.00  0.00    -0.285 C  
HETATM    9  C   UNL     1      -9.474  13.486  66.588  1.00  0.00    -0.271 C  
HETATM   10  C   UNL     1     -10.511  14.446  67.183  1.00  0.00    -0.263 C  
BRANCH  10  11
HETATM   11  C   UNL     1     -11.531  13.685  68.068  1.00  0.00    -0.310 C  
HETATM   12  N   UNL     1     -10.996  13.293  69.286  1.00  0.00    -0.429 N  
HETATM   13  O   UNL     1     -12.661  13.398  67.675  1.00  0.00     0.077 OA 
HETATM   14  H   UNL     1     -10.080  13.636  69.574  1.00  0.00     0.000 HD 
BRANCH  12  15
HETATM   15  C   UNL     1     -11.713  12.425  70.122  1.00  0.00    -0.185 A  
HETATM   16  C   UNL     1     -11.552  11.034  69.987  1.00  0.00    -0.427 A  
HETATM   17  C   UNL     1     -10.741  10.400  68.898  1.00  0.00    -0.255 C  
HETATM   18  C   UNL     1     -12.298  10.197  70.836  1.00  0.00    -0.461 A  
HETATM   19  C   UNL     1     -13.145  10.733  71.809  1.00  0.00    -0.573 A  
HETATM   20  C   UNL     1     -13.270  12.108  71.948  1.00  0.00    -0.474 A  
HETATM   21  C   UNL     1     -12.563  12.973  71.108  1.00  0.00    -0.388 A  
HETATM   22  C   UNL     1     -12.702  14.461  71.291  1.00  0.00    -0.414 C  
ENDBRANCH  12  15
ENDBRANCH  10  11
ENDBRANCH   4   5
ENDBRANCH   3   4
ENDBRANCH   2   3
TORSDOF 5
ENDMDL
MODEL        9
REMARK 921   NORMALIZED FREE ENERGY PREDICTED BY IDOCK:   -5.65 KCAL/MOL
REMARK 922        TOTAL FREE ENERGY PREDICTED BY IDOCK:   -7.74 KCAL/MOL
REMARK 923 INTER-LIGAND FREE ENERGY PREDICTED BY IDOCK:   -7.28 KCAL/MOL
REMARK 924 INTRA-LIGAND FREE ENERGY PREDICTED BY IDOCK:   -0.46 KCAL/MOL
REMARK 927      BINDING AFFINITY PREDICTED BY RF-SCORE:    0.00 PKD
ROOT
HETATM    1  C   UNL     1     -13.558  13.462  72.389  1.00  0.00    -0.708 C  
HETATM    2  C   UNL     1     -14.188  14.614  71.620  1.00  0.00    -0.591 C  
ENDROOT
BRANCH   2   3
HETATM    3  C   UNL     1     -13.130  15.586  71.090  1.00  0.00    -0.573 C  
BRANCH   3   4
HETATM    4  C   UNL     1     -11.802  14.902  70.723  1.00  0.00    -0.312 C  
BRANCH   4   5
HETATM    5  N   UNL     1     -11.470  14.912  69.291  1.00  0.00    -0.285 NA 
HETATM    6  C   UNL     1     -11.716  16.206  68.622  1.00  0.00    -0.205 C  
HETATM    7  C   UNL     1     -10.656  17.292  68.836  1.00  0.00    -0.276 C  
HETATM    8  C   UNL     1      -9.231  16.784  68.650  1.00  0.00    -0.257 C  
HETATM    9  C   UNL     1      -9.016  15.492  69.429  1.00  0.00    -0.275 C  
HETATM   10  C   UNL     1     -10.073  14.444  69.058  1.00  0.00    -0.155 C  
BRANCH  10  11
HETATM   11  C   UNL     1      -9.898  13.974  67.591  1.00  0.00    -0.233 C  
HETATM   12  N   UNL     1     -10.926  13.143  67.168  1.00  0.00    -0.264 N  
HETATM   13  O   UNL     1      -8.904  14.251  66.922  1.00  0.00    -0.228 OA 
HETATM   14  H   UNL     1     -11.756  13.024  67.749  1.00  0.00     0.000 HD 
BRANCH  12  15
HETATM   15  C   UNL     1     -10.826  12.469  65.942  1.00  0.00    -0.269 A  
HETATM   16  C   UNL     1     -11.298  13.083  64.768  1.00  0.00    -0.348 A  
HETATM   17  C   UNL     1     -12.033  14.389  64.759  1.00  0.00    -0.455 C  
HETATM   18  C   UNL     1     -11.190  12.370  63.561  1.00  0.00    -0.540 A  
HETATM   19  C   UNL     1     -10.598  11.105  63.524  1.00  0.00    -0.393 A  
HETATM   20  C   UNL     1     -10.112  10.526  64.688  1.00  0.00    -0.408 A  
HETATM   21  C   UNL     1     -10.222  11.194  65.911  1.00  0.00    -0.303 A  
HETATM   22  C   UNL     1      -9.669  10.552  67.156  1.00  0.00    -0.202 C  
ENDBRANCH  12  15
ENDBRANCH  10  11
ENDBRANCH   4   5
ENDBRANCH   3   4
ENDBRANCH   2   3
TORSDOF 5
ENDMDL
MODEL       10
REMARK 921   NORMALIZED FREE ENERGY PREDICTED BY IDOCK:   -5.64 KCAL/MOL
REMARK 922        TOTAL FREE ENERGY PREDICTED BY IDOCK:   -7.73 KCAL/MOL
REMARK 923 INTER-LIGAND FREE ENERGY PREDICTED BY IDOCK:   -7.32 KCAL/MOL
REMARK 924 INTRA-LIGAND FREE ENERGY PREDICTED BY IDOCK:   -0.41 KCAL/MOL
REMARK 927      BINDING AFFINITY PREDICTED BY RF-SCORE:    0.00 PKD
ROOT
HETATM    1  C   UNL     1     -10.616  11.801  63.463  1.00  0.00    -0.499 C  
HETATM    2  C   UNL     1     -12.037  12.340  63.370  1.00  0.00    -0.615 C  
ENDROOT
BRANCH   2   3
HETATM    3  C   UNL     1     -12.221  13.602  64.219  1.00  0.00    -0.445 C  
BRANCH   3   4
HETATM    4  C   UNL     1     -12.536  13.304  65.694  1.00  0.00    -0.451 C  
BRANCH   4   5
HETATM    5  N   UNL     1     -11.992  14.274  66.656  1.00  0.00    -0.427 NA 
HETATM    6  C   UNL     1     -11.987  13.801  68.055  1.00  0.00    -0.355 C  
HETATM    7  C   UNL     1     -10.858  12.840  68.443  1.00  0.00    -0.272 C  
HETATM    8  C   UNL     1      -9.486  13.303  67.964  1.00  0.00    -0.219 C  
HETATM    9  C   UNL     1      -9.537  13.700  66.494  1.00  0.00    -0.294 C  
HETATM   10  C   UNL     1     -10.636  14.741  66.243  1.00  0.00    -0.305 C  
BRANCH  10  11
HETATM   11  C   UNL     1     -10.294  16.086  66.933  1.00  0.00    -0.289 C  
HETATM   12  N   UNL     1      -9.307  16.796  66.265  1.00  0.00    -0.278 N  
HETATM   13  O   UNL     1     -10.798  16.427  68.002  1.00  0.00    -0.330 OA 
HETATM   14  H   UNL     1      -8.995  16.490  65.343  1.00  0.00     0.000 HD 
BRANCH  12  15
HETATM   15  C   UNL     1      -8.738  17.934  66.855  1.00  0.00    -0.246 A  
HETATM   16  C   UNL     1      -9.405  19.170  66.773  1.00  0.00    -0.364 A  
HETATM   17  C   UNL     1     -10.652  19.382  65.970  1.00  0.00    -0.573 C  
HETATM   18  C   UNL     1      -8.796  20.289  67.367  1.00  0.00    -0.442 A  
HETATM   19  C   UNL     1      -7.583  20.170  68.050  1.00  0.00    -0.278 A  
HETATM   20  C   UNL     1      -6.952  18.937  68.145  1.00  0.00    -0.265 A  
HETATM   21  C   UNL     1      -7.514  17.805  67.548  1.00  0.00    -0.213 A  
HETATM   22  C   UNL     1      -6.820  16.476  67.682  1.00  0.00    -0.161 C  
ENDBRANCH  12  15
ENDBRANCH  10  11
ENDBRANCH   4   5
ENDBRANCH   3   4
ENDBRANCH   2   3
TORSDOF 5
ENDMDL
MODEL       11
REMARK 921   NORMALIZED FREE ENERGY PREDICTED BY IDOCK:   -5.62 KCAL/MOL
REMARK 922        TOTAL FREE ENERGY PREDICTED BY IDOCK:   -7.70 KCAL/MOL
REMARK 923 INTER-LIGAND FREE ENERGY PREDICTED BY IDOCK:   -7.29 KCAL/MOL
REMARK 924 INTRA-LIGAND FREE ENERGY PREDICTED BY IDOCK:   -0.42 KCAL/MOL
REMARK 927      BINDING AFFINITY PREDICTED BY RF-SCORE:    0.00 PKD
ROOT
HETATM    1  C   UNL     1      -9.955  19.606  66.875  1.00  0.00    -0.515 C  
HETATM    2  C   UNL     1     -10.257  18.172  67.289  1.00  0.00    -0.377 C  
ENDROOT
BRANCH   2   3
HETATM    3  C   UNL     1      -9.308  17.177  66.614  1.00  0.00    -0.277 C  
BRANCH   3   4
HETATM    4  C   UNL     1      -9.999  16.292  65.563  1.00  0.00    -0.182 C  
BRANCH   4   5
HETATM    5  N   UNL     1     -10.929  15.290  66.106  1.00  0.00    -0.325 NA 
HETATM    6  C   UNL     1     -11.525  14.403  65.086  1.00  0.00    -0.362 C  
HETATM    7  C   UNL     1     -10.642  13.256  64.584  1.00  0.00    -0.421 C  
HETATM    8  C   UNL     1      -9.953  12.493  65.710  1.00  0.00    -0.272 C  
HETATM    9  C   UNL     1      -9.288  13.459  66.684  1.00  0.00    -0.248 C  
HETATM   10  C   UNL     1     -10.291  14.498  67.198  1.00  0.00    -0.265 C  
BRANCH  10  11
HETATM   11  C   UNL     1     -11.374  13.834  68.087  1.00  0.00    -0.284 C  
HETATM   12  N   UNL     1     -10.870  13.379  69.297  1.00  0.00    -0.436 N  
HETATM   13  O   UNL     1     -12.531  13.665  67.703  1.00  0.00    -0.140 OA 
HETATM   14  H   UNL     1      -9.922  13.626  69.579  1.00  0.00     0.000 HD 
BRANCH  12  15
HETATM   15  C   UNL     1     -11.664  12.579  70.132  1.00  0.00    -0.175 A  
HETATM   16  C   UNL     1     -12.414  13.175  71.162  1.00  0.00    -0.378 A  
HETATM   17  C   UNL     1     -12.321  14.629  71.514  1.00  0.00    -0.415 C  
HETATM   18  C   UNL     1     -13.187  12.338  71.985  1.00  0.00    -0.508 A  
HETATM   19  C   UNL     1     -13.238  10.960  71.764  1.00  0.00    -0.513 A  
HETATM   20  C   UNL     1     -12.513  10.391  70.725  1.00  0.00    -0.461 A  
HETATM   21  C   UNL     1     -11.714  11.187  69.899  1.00  0.00    -0.433 A  
HETATM   22  C   UNL     1     -10.953  10.549  68.768  1.00  0.00    -0.296 C  
ENDBRANCH  12  15
ENDBRANCH  10  11
ENDBRANCH   4   5
ENDBRANCH   3   4
ENDBRANCH   2   3
TORSDOF 5
ENDMDL
MODEL       12
REMARK 921   NORMALIZED FREE ENERGY PREDICTED BY IDOCK:   -5.61 KCAL/MOL
REMARK 922        TOTAL FREE ENERGY PREDICTED BY IDOCK:   -7.69 KCAL/MOL
REMARK 923 INTER-LIGAND FREE ENERGY PREDICTED BY IDOCK:   -7.46 KCAL/MOL
REMARK 924 INTRA-LIGAND FREE ENERGY PREDICTED BY IDOCK:   -0.23 KCAL/MOL
REMARK 927      BINDING AFFINITY PREDICTED BY RF-SCORE:    0.00 PKD
ROOT
HETATM    1  C   UNL     1     -12.116  15.954  72.263  1.00  0.00    -0.597 C  
HETATM    2  C   UNL     1     -12.442  15.693  70.799  1.00  0.00    -0.484 C  
ENDROOT
BRANCH   2   3
HETATM    3  C   UNL     1     -11.209  15.867  69.907  1.00  0.00    -0.348 C  
BRANCH   3   4
HETATM    4  C   UNL     1     -11.456  15.471  68.441  1.00  0.00    -0.363 C  
BRANCH   4   5
HETATM    5  N   UNL     1     -11.848  14.069  68.231  1.00  0.00    -0.360 NA 
HETATM    6  C   UNL     1     -12.168  13.735  66.828  1.00  0.00    -0.397 C  
HETATM    7  C   UNL     1     -10.973  13.501  65.898  1.00  0.00    -0.284 C  
HETATM    8  C   UNL     1      -9.912  12.588  66.503  1.00  0.00    -0.252 C  
HETATM    9  C   UNL     1      -9.566  13.034  67.919  1.00  0.00    -0.215 C  
HETATM   10  C   UNL     1     -10.827  13.134  68.786  1.00  0.00    -0.246 C  
BRANCH  10  11
HETATM   11  C   UNL     1     -11.449  11.735  69.027  1.00  0.00    -0.297 C  
HETATM   12  N   UNL     1     -10.911  11.092  70.132  1.00  0.00    -0.467 N  
HETATM   13  O   UNL     1     -12.270  11.236  68.259  1.00  0.00    -0.611 OA 
HETATM   14  H   UNL     1     -10.295  11.599  70.767  1.00  0.00     0.000 HD 
BRANCH  12  15
HETATM   15  C   UNL     1     -11.214   9.744  70.378  1.00  0.00    -0.300 A  
HETATM   16  C   UNL     1     -12.304   9.413  71.203  1.00  0.00    -0.386 A  
HETATM   17  C   UNL     1     -13.106  10.431  71.957  1.00  0.00    -0.521 C  
HETATM   18  C   UNL     1     -12.568   8.052  71.434  1.00  0.00    -0.307 A  
HETATM   19  C   UNL     1     -11.793   7.058  70.832  1.00  0.00    -0.401 A  
HETATM   20  C   UNL     1     -10.738   7.402  69.998  1.00  0.00    -0.258 A  
HETATM   21  C   UNL     1     -10.430   8.745  69.762  1.00  0.00    -0.222 A  
HETATM   22  C   UNL     1      -9.292   9.092  68.838  1.00  0.00    -0.143 C  
ENDBRANCH  12  15
ENDBRANCH  10  11
ENDBRANCH   4   5
ENDBRANCH   3   4
ENDBRANCH   2   3
TORSDOF 5
ENDMDL
MODEL       13
REMARK 921   NORMALIZED FREE ENERGY PREDICTED BY IDOCK:   -5.61 KCAL/MOL
REMARK 922        TOTAL FREE ENERGY PREDICTED BY IDOCK:   -7.69 KCAL/MOL
REMARK 923 INTER-LIGAND FREE ENERGY PREDICTED BY IDOCK:   -7.06 KCAL/MOL
REMARK 924 INTRA-LIGAND FREE ENERGY PREDICTED BY IDOCK:   -0.63 KCAL/MOL
REMARK 927      BINDING AFFINITY PREDICTED BY RF-SCORE:    0.00 PKD
ROOT
HETATM    1  C   UNL     1     -12.046  12.211  63.565  1.00  0.00    -0.649 C  
HETATM    2  C   UNL     1     -10.643  11.648  63.383  1.00  0.00    -0.472 C  
ENDROOT
BRANCH   2   3
HETATM    3  C   UNL     1      -9.988  11.317  64.728  1.00  0.00    -0.327 C  
BRANCH   3   4
HETATM    4  C   UNL     1     -10.992  11.228  65.890  1.00  0.00    -0.157 C  
BRANCH   4   5
HETATM    5  N   UNL     1     -10.640  12.017  67.080  1.00  0.00    -0.219 NA 
HETATM    6  C   UNL     1      -9.523  12.960  66.872  1.00  0.00    -0.237 C  
HETATM    7  C   UNL     1      -9.866  14.270  66.152  1.00  0.00    -0.335 C  
HETATM    8  C   UNL     1     -11.122  14.941  66.696  1.00  0.00    -0.329 C  
HETATM    9  C   UNL     1     -12.261  13.935  66.811  1.00  0.00    -0.438 C  
HETATM   10  C   UNL     1     -11.835  12.715  67.637  1.00  0.00    -0.329 C  
BRANCH  10  11
HETATM   11  C   UNL     1     -11.593  13.104  69.118  1.00  0.00    -0.316 C  
HETATM   12  N   UNL     1     -12.604  13.900  69.636  1.00  0.00    -0.344 N  
HETATM   13  O   UNL     1     -10.566  12.797  69.722  1.00  0.00     0.431 OA 
HETATM   14  H   UNL     1     -13.461  14.046  69.104  1.00  0.00     0.000 HD 
BRANCH  12  15
HETATM   15  C   UNL     1     -12.448  14.505  70.893  1.00  0.00    -0.345 A  
HETATM   16  C   UNL     1     -11.831  15.765  70.988  1.00  0.00    -0.460 A  
HETATM   17  C   UNL     1     -11.201  16.465  69.823  1.00  0.00    -0.252 C  
HETATM   18  C   UNL     1     -11.684  16.333  72.266  1.00  0.00    -0.530 A  
HETATM   19  C   UNL     1     -12.169  15.680  73.402  1.00  0.00    -0.629 A  
HETATM   20  C   UNL     1     -12.801  14.449  73.286  1.00  0.00    -0.413 A  
HETATM   21  C   UNL     1     -12.946  13.842  72.036  1.00  0.00    -0.438 A  
HETATM   22  C   UNL     1     -13.651  12.516  71.935  1.00  0.00    -0.273 C  
ENDBRANCH  12  15
ENDBRANCH  10  11
ENDBRANCH   4   5
ENDBRANCH   3   4
ENDBRANCH   2   3
TORSDOF 5
ENDMDL
MODEL       14
REMARK 921   NORMALIZED FREE ENERGY PREDICTED BY IDOCK:   -5.60 KCAL/MOL
REMARK 922        TOTAL FREE ENERGY PREDICTED BY IDOCK:   -7.67 KCAL/MOL
REMARK 923 INTER-LIGAND FREE ENERGY PREDICTED BY IDOCK:   -7.25 KCAL/MOL
REMARK 924 INTRA-LIGAND FREE ENERGY PREDICTED BY IDOCK:   -0.42 KCAL/MOL
REMARK 927      BINDING AFFINITY PREDICTED BY RF-SCORE:    0.00 PKD
ROOT
HETATM    1  C   UNL     1      -9.521  16.482  65.977  1.00  0.00    -0.317 C  
HETATM    2  C   UNL     1      -9.961  17.332  67.161  1.00  0.00    -0.282 C  
ENDROOT
BRANCH   2   3
HETATM    3  C   UNL     1     -10.239  16.475  68.399  1.00  0.00    -0.266 C  
BRANCH   3   4
HETATM    4  C   UNL     1      -9.800  15.010  68.239  1.00  0.00    -0.219 C  
BRANCH   4   5
HETATM    5  N   UNL     1     -10.861  14.014  68.451  1.00  0.00    -0.242 NA 
HETATM    6  C   UNL     1     -12.150  14.359  67.818  1.00  0.00    -0.269 C  
HETATM    7  C   UNL     1     -12.258  14.097  66.311  1.00  0.00    -0.474 C  
HETATM    8  C   UNL     1     -11.741  12.721  65.904  1.00  0.00    -0.464 C  
HETATM    9  C   UNL     1     -10.373  12.458  66.522  1.00  0.00    -0.248 C  
HETATM   10  C   UNL     1     -10.411  12.651  68.043  1.00  0.00    -0.228 C  
BRANCH  10  11
HETATM   11  C   UNL     1     -11.289  11.567  68.719  1.00  0.00    -0.265 C  
HETATM   12  N   UNL     1     -10.893  11.291  70.021  1.00  0.00    -0.436 N  
HETATM   13  O   UNL     1     -12.181  10.970  68.119  1.00  0.00    -0.578 OA 
HETATM   14  H   UNL     1     -10.199  11.882  70.478  1.00  0.00     0.000 HD 
BRANCH  12  15
HETATM   15  C   UNL     1     -11.447  10.201  70.708  1.00  0.00    -0.357 A  
HETATM   16  C   UNL     1     -10.881   8.922  70.560  1.00  0.00    -0.276 A  
HETATM   17  C   UNL     1      -9.775   8.617  69.596  1.00  0.00    -0.179 C  
HETATM   18  C   UNL     1     -11.472   7.854  71.256  1.00  0.00    -0.293 A  
HETATM   19  C   UNL     1     -12.567   8.063  72.098  1.00  0.00    -0.316 A  
HETATM   20  C   UNL     1     -13.096   9.337  72.254  1.00  0.00    -0.517 A  
HETATM   21  C   UNL     1     -12.551  10.421  71.561  1.00  0.00    -0.544 A  
HETATM   22  C   UNL     1     -13.131  11.795  71.762  1.00  0.00    -0.480 C  
ENDBRANCH  12  15
ENDBRANCH  10  11
ENDBRANCH   4   5
ENDBRANCH   3   4
ENDBRANCH   2   3
TORSDOF 5
ENDMDL
MODEL       15
REMARK 921   NORMALIZED FREE ENERGY PREDICTED BY IDOCK:   -5.59 KCAL/MOL
REMARK 922        TOTAL FREE ENERGY PREDICTED BY IDOCK:   -7.67 KCAL/MOL
REMARK 923 INTER-LIGAND FREE ENERGY PREDICTED BY IDOCK:   -7.28 KCAL/MOL
REMARK 924 INTRA-LIGAND FREE ENERGY PREDICTED BY IDOCK:   -0.39 KCAL/MOL
REMARK 927      BINDING AFFINITY PREDICTED BY RF-SCORE:    0.00 PKD
ROOT
HETATM    1  C   UNL     1     -10.649  11.782  63.508  1.00  0.00    -0.499 C  
HETATM    2  C   UNL     1     -12.083  12.290  63.548  1.00  0.00    -0.649 C  
ENDROOT
BRANCH   2   3
HETATM    3  C   UNL     1     -12.202  13.584  64.359  1.00  0.00    -0.440 C  
BRANCH   3   4
HETATM    4  C   UNL     1     -12.521  13.347  65.845  1.00  0.00    -0.408 C  
BRANCH   4   5
HETATM    5  N   UNL     1     -11.925  14.318  66.774  1.00  0.00    -0.431 NA 
HETATM    6  C   UNL     1     -11.807  13.832  68.163  1.00  0.00    -0.376 C  
HETATM    7  C   UNL     1     -10.634  12.891  68.455  1.00  0.00    -0.270 C  
HETATM    8  C   UNL     1      -9.311  13.386  67.880  1.00  0.00    -0.216 C  
HETATM    9  C   UNL     1      -9.479  13.795  66.422  1.00  0.00    -0.259 C  
HETATM   10  C   UNL     1     -10.613  14.816  66.266  1.00  0.00    -0.305 C  
BRANCH  10  11
HETATM   11  C   UNL     1     -10.247  16.162  66.943  1.00  0.00    -0.283 C  
HETATM   12  N   UNL     1      -9.261  16.856  66.257  1.00  0.00    -0.275 N  
HETATM   13  O   UNL     1     -10.733  16.515  68.016  1.00  0.00    -0.321 OA 
HETATM   14  H   UNL     1      -8.965  16.541  65.333  1.00  0.00     0.000 HD 
BRANCH  12  15
HETATM   15  C   UNL     1      -8.671  17.991  66.833  1.00  0.00    -0.251 A  
HETATM   16  C   UNL     1      -7.446  17.871  67.514  1.00  0.00    -0.213 A  
HETATM   17  C   UNL     1      -6.777  16.557  67.781  1.00  0.00    -0.158 C  
HETATM   18  C   UNL     1      -6.893  19.029  68.087  1.00  0.00    -0.268 A  
HETATM   19  C   UNL     1      -7.523  20.269  67.952  1.00  0.00    -0.291 A  
HETATM   20  C   UNL     1      -8.716  20.374  67.251  1.00  0.00    -0.429 A  
HETATM   21  C   UNL     1      -9.310  19.241  66.687  1.00  0.00    -0.387 A  
HETATM   22  C   UNL     1     -10.595  19.386  65.916  1.00  0.00    -0.551 C  
ENDBRANCH  12  15
ENDBRANCH  10  11
ENDBRANCH   4   5
ENDBRANCH   3   4
ENDBRANCH   2   3
TORSDOF 5
ENDMDL
MODEL       16
REMARK 921   NORMALIZED FREE ENERGY PREDICTED BY IDOCK:   -5.59 KCAL/MOL
REMARK 922        TOTAL FREE ENERGY PREDICTED BY IDOCK:   -7.66 KCAL/MOL
REMARK 923 INTER-LIGAND FREE ENERGY PREDICTED BY IDOCK:   -6.98 KCAL/MOL
REMARK 924 INTRA-LIGAND FREE ENERGY PREDICTED BY IDOCK:   -0.68 KCAL/MOL
REMARK 927      BINDING AFFINITY PREDICTED BY RF-SCORE:    0.00 PKD
ROOT
HETATM    1  C   UNL     1     -10.660  15.649  65.026  1.00  0.00    -0.422 C  
HETATM    2  C   UNL     1     -11.988  15.309  64.363  1.00  0.00    -0.285 C  
ENDROOT
BRANCH   2   3
HETATM    3  C   UNL     1     -12.570  14.000  64.905  1.00  0.00    -0.369 C  
BRANCH   3   4
HETATM    4  C   UNL     1     -12.409  13.844  66.426  1.00  0.00    -0.426 C  
BRANCH   4   5
HETATM    5  N   UNL     1     -12.011  12.501  66.877  1.00  0.00    -0.543 NA 
HETATM    6  C   UNL     1     -11.071  11.813  65.970  1.00  0.00    -0.312 C  
HETATM    7  C   UNL     1      -9.602  12.239  66.066  1.00  0.00    -0.230 C  
HETATM    8  C   UNL     1      -9.095  12.323  67.502  1.00  0.00    -0.182 C  
HETATM    9  C   UNL     1     -10.067  13.114  68.368  1.00  0.00    -0.231 C  
HETATM   10  C   UNL     1     -11.484  12.535  68.272  1.00  0.00    -0.308 C  
BRANCH  10  11
HETATM   11  C   UNL     1     -11.552  11.124  68.910  1.00  0.00    -0.317 C  
HETATM   12  N   UNL     1     -11.149  11.115  70.237  1.00  0.00    -0.455 N  
HETATM   13  O   UNL     1     -11.855  10.121  68.264  1.00  0.00    -0.125 OA 
HETATM   14  H   UNL     1     -10.991  11.995  70.728  1.00  0.00     0.000 HD 
BRANCH  12  15
HETATM   15  C   UNL     1     -10.959   9.896  70.906  1.00  0.00    -0.322 A  
HETATM   16  C   UNL     1     -12.015   9.335  71.647  1.00  0.00    -0.448 A  
HETATM   17  C   UNL     1     -13.322  10.032  71.877  1.00  0.00    -0.516 C  
HETATM   18  C   UNL     1     -11.781   8.119  72.312  1.00  0.00    -0.439 A  
HETATM   19  C   UNL     1     -10.549   7.469  72.210  1.00  0.00    -0.280 A  
HETATM   20  C   UNL     1      -9.526   8.023  71.452  1.00  0.00    -0.194 A  
HETATM   21  C   UNL     1      -9.712   9.243  70.794  1.00  0.00    -0.348 A  
HETATM   22  C   UNL     1      -8.594   9.813  69.963  1.00  0.00    -0.229 C  
ENDBRANCH  12  15
ENDBRANCH  10  11
ENDBRANCH   4   5
ENDBRANCH   3   4
ENDBRANCH   2   3
TORSDOF 5
ENDMDL
MODEL       17
REMARK 921   NORMALIZED FREE ENERGY PREDICTED BY IDOCK:   -5.58 KCAL/MOL
REMARK 922        TOTAL FREE ENERGY PREDICTED BY IDOCK:   -7.65 KCAL/MOL
REMARK 923 INTER-LIGAND FREE ENERGY PREDICTED BY IDOCK:   -6.95 KCAL/MOL
REMARK 924 INTRA-LIGAND FREE ENERGY PREDICTED BY IDOCK:   -0.70 KCAL/MOL
REMARK 927      BINDING AFFINITY PREDICTED BY RF-SCORE:    0.00 PKD
ROOT
HETATM    1  C   UNL     1     -10.899  15.538  65.004  1.00  0.00    -0.468 C  
HETATM    2  C   UNL     1     -11.940  14.757  64.214  1.00  0.00    -0.387 C  
ENDROOT
BRANCH   2   3
HETATM    3  C   UNL     1     -12.824  13.906  65.131  1.00  0.00    -0.383 C  
BRANCH   3   4
HETATM    4  C   UNL     1     -12.292  13.807  66.570  1.00  0.00    -0.386 C  
BRANCH   4   5
HETATM    5  N   UNL     1     -11.939  12.449  67.013  1.00  0.00    -0.565 NA 
HETATM    6  C   UNL     1     -11.026  11.734  66.098  1.00  0.00    -0.307 C  
HETATM    7  C   UNL     1      -9.543  12.109  66.191  1.00  0.00    -0.250 C  
HETATM    8  C   UNL     1      -9.027  12.169  67.625  1.00  0.00    -0.178 C  
HETATM    9  C   UNL     1      -9.969  12.988  68.499  1.00  0.00    -0.174 C  
HETATM   10  C   UNL     1     -11.405  12.458  68.406  1.00  0.00    -0.285 C  
BRANCH  10  11
HETATM   11  C   UNL     1     -11.519  11.047  69.037  1.00  0.00    -0.299 C  
HETATM   12  N   UNL     1     -11.119  11.019  70.365  1.00  0.00    -0.433 N  
HETATM   13  O   UNL     1     -11.851  10.057  68.386  1.00  0.00     0.005 OA 
HETATM   14  H   UNL     1     -10.935  11.891  70.860  1.00  0.00     0.000 HD 
BRANCH  12  15
HETATM   15  C   UNL     1     -10.969   9.792  71.029  1.00  0.00    -0.332 A  
HETATM   16  C   UNL     1      -9.742   9.108  70.961  1.00  0.00    -0.359 A  
HETATM   17  C   UNL     1      -8.597   9.552  70.102  1.00  0.00    -0.250 C  
HETATM   18  C   UNL     1      -9.635   7.876  71.629  1.00  0.00    -0.206 A  
HETATM   19  C   UNL     1     -10.704   7.365  72.370  1.00  0.00    -0.295 A  
HETATM   20  C   UNL     1     -11.899   8.067  72.450  1.00  0.00    -0.429 A  
HETATM   21  C   UNL     1     -12.052   9.284  71.779  1.00  0.00    -0.457 A  
HETATM   22  C   UNL     1     -13.351  10.036  71.897  1.00  0.00    -0.516 C  
ENDBRANCH  12  15
ENDBRANCH  10  11
ENDBRANCH   4   5
ENDBRANCH   3   4
ENDBRANCH   2   3
TORSDOF 5
ENDMDL
MODEL       18
REMARK 921   NORMALIZED FREE ENERGY PREDICTED BY IDOCK:   -5.57 KCAL/MOL
REMARK 922        TOTAL FREE ENERGY PREDICTED BY IDOCK:   -7.64 KCAL/MOL
REMARK 923 INTER-LIGAND FREE ENERGY PREDICTED BY IDOCK:   -7.26 KCAL/MOL
REMARK 924 INTRA-LIGAND FREE ENERGY PREDICTED BY IDOCK:   -0.38 KCAL/MOL
REMARK 927      BINDING AFFINITY PREDICTED BY RF-SCORE:    0.00 PKD
ROOT
HETATM    1  C   UNL     1      -9.276  16.311  66.069  1.00  0.00    -0.351 C  
HETATM    2  C   UNL     1      -9.429  17.178  67.312  1.00  0.00    -0.245 C  
ENDROOT
BRANCH   2   3
HETATM    3  C   UNL     1      -9.935  16.365  68.507  1.00  0.00    -0.239 C  
BRANCH   3   4
HETATM    4  C   UNL     1      -9.581  14.871  68.423  1.00  0.00    -0.209 C  
BRANCH   4   5
HETATM    5  N   UNL     1     -10.712  13.950  68.613  1.00  0.00    -0.255 NA 
HETATM    6  C   UNL     1     -11.963  14.386  67.960  1.00  0.00    -0.291 C  
HETATM    7  C   UNL     1     -12.063  14.136  66.451  1.00  0.00    -0.475 C  
HETATM    8  C   UNL     1     -11.636  12.729  66.047  1.00  0.00    -0.432 C  
HETATM    9  C   UNL     1     -10.300  12.370  66.686  1.00  0.00    -0.245 C  
HETATM   10  C   UNL     1     -10.351  12.560  68.207  1.00  0.00    -0.236 C  
BRANCH  10  11
HETATM   11  C   UNL     1     -11.313  11.538  68.864  1.00  0.00    -0.268 C  
HETATM   12  N   UNL     1     -10.938  11.202  70.157  1.00  0.00    -0.454 N  
HETATM   13  O   UNL     1     -12.253  11.030  68.255  1.00  0.00    -0.582 OA 
HETATM   14  H   UNL     1     -10.196  11.724  70.624  1.00  0.00     0.000 HD 
BRANCH  12  15
HETATM   15  C   UNL     1     -11.578  10.147  70.824  1.00  0.00    -0.357 A  
HETATM   16  C   UNL     1     -12.743  10.399  71.572  1.00  0.00    -0.564 A  
HETATM   17  C   UNL     1     -13.286  11.774  71.813  1.00  0.00    -0.434 C  
HETATM   18  C   UNL     1     -13.348   9.317  72.234  1.00  0.00    -0.547 A  
HETATM   19  C   UNL     1     -12.830   8.024  72.122  1.00  0.00    -0.269 A  
HETATM   20  C   UNL     1     -11.696   7.789  71.356  1.00  0.00    -0.310 A  
HETATM   21  C   UNL     1     -11.052   8.843  70.701  1.00  0.00    -0.306 A  
HETATM   22  C   UNL     1      -9.835   8.558  69.862  1.00  0.00    -0.186 C  
ENDBRANCH  12  15
ENDBRANCH  10  11
ENDBRANCH   4   5
ENDBRANCH   3   4
ENDBRANCH   2   3
TORSDOF 5
ENDMDL
MODEL       19
REMARK 921   NORMALIZED FREE ENERGY PREDICTED BY IDOCK:   -5.57 KCAL/MOL
REMARK 922        TOTAL FREE ENERGY PREDICTED BY IDOCK:   -7.64 KCAL/MOL
REMARK 923 INTER-LIGAND FREE ENERGY PREDICTED BY IDOCK:   -6.99 KCAL/MOL
REMARK 924 INTRA-LIGAND FREE ENERGY PREDICTED BY IDOCK:   -0.64 KCAL/MOL
REMARK 927      BINDING AFFINITY PREDICTED BY RF-SCORE:    0.00 PKD
ROOT
HETATM    1  C   UNL     1      -8.533  16.272  67.607  1.00  0.00    -0.178 C  
HETATM    2  C   UNL     1      -8.968  16.436  66.157  1.00  0.00    -0.367 C  
ENDROOT
BRANCH   2   3
HETATM    3  C   UNL     1     -10.346  15.815  65.907  1.00  0.00    -0.372 C  
BRANCH   3   4
HETATM    4  C   UNL     1     -10.287  14.500  65.110  1.00  0.00    -0.411 C  
BRANCH   4   5
HETATM    5  N   UNL     1     -10.931  13.349  65.759  1.00  0.00    -0.277 NA 
HETATM    6  C   UNL     1     -11.035  12.151  64.901  1.00  0.00    -0.309 C  
HETATM    7  C   UNL     1      -9.763  11.309  64.755  1.00  0.00    -0.298 C  
HETATM    8  C   UNL     1      -9.071  11.033  66.085  1.00  0.00    -0.208 C  
HETATM    9  C   UNL     1      -8.920  12.319  66.888  1.00  0.00    -0.207 C  
HETATM   10  C   UNL     1     -10.272  13.023  67.058  1.00  0.00    -0.245 C  
BRANCH  10  11
HETATM   11  C   UNL     1     -11.225  12.189  67.953  1.00  0.00    -0.272 C  
HETATM   12  N   UNL     1     -10.726  11.996  69.233  1.00  0.00    -0.440 N  
HETATM   13  O   UNL     1     -12.266  11.692  67.526  1.00  0.00    -0.501 OA 
HETATM   14  H   UNL     1      -9.897  12.505  69.539  1.00  0.00     0.000 HD 
BRANCH  12  15
HETATM   15  C   UNL     1     -11.361  11.102  70.108  1.00  0.00    -0.209 A  
HETATM   16  C   UNL     1     -12.393  11.561  70.946  1.00  0.00    -0.460 A  
HETATM   17  C   UNL     1     -12.783  13.003  71.060  1.00  0.00    -0.347 C  
HETATM   18  C   UNL     1     -12.996  10.636  71.816  1.00  0.00    -0.577 A  
HETATM   19  C   UNL     1     -12.607   9.294  71.822  1.00  0.00    -0.461 A  
HETATM   20  C   UNL     1     -11.606   8.853  70.967  1.00  0.00    -0.347 A  
HETATM   21  C   UNL     1     -10.966   9.746  70.104  1.00  0.00    -0.339 A  
HETATM   22  C   UNL     1      -9.897   9.239  69.174  1.00  0.00    -0.167 C  
ENDBRANCH  12  15
ENDBRANCH  10  11
ENDBRANCH   4   5
ENDBRANCH   3   4
ENDBRANCH   2   3
TORSDOF 5
ENDMDL
MODEL       20
REMARK 921   NORMALIZED FREE ENERGY PREDICTED BY IDOCK:   -5.57 KCAL/MOL
REMARK 922        TOTAL FREE ENERGY PREDICTED BY IDOCK:   -7.63 KCAL/MOL
REMARK 923 INTER-LIGAND FREE ENERGY PREDICTED BY IDOCK:   -7.27 KCAL/MOL
REMARK 924 INTRA-LIGAND FREE ENERGY PREDICTED BY IDOCK:   -0.36 KCAL/MOL
REMARK 927      BINDING AFFINITY PREDICTED BY RF-SCORE:    0.00 PKD
ROOT
HETATM    1  C   UNL     1     -14.410  14.243  72.038  1.00  0.00    -0.629 C  
HETATM    2  C   UNL     1     -13.453  15.225  71.375  1.00  0.00    -0.588 C  
ENDROOT
BRANCH   2   3
HETATM    3  C   UNL     1     -12.151  14.542  70.944  1.00  0.00    -0.404 C  
BRANCH   3   4
HETATM    4  C   UNL     1     -12.231  13.900  69.549  1.00  0.00    -0.306 C  
BRANCH   4   5
HETATM    5  N   UNL     1     -11.164  14.295  68.618  1.00  0.00    -0.250 NA 
HETATM    6  C   UNL     1     -10.243  13.199  68.255  1.00  0.00    -0.250 C  
HETATM    7  C   UNL     1     -10.748  12.212  67.197  1.00  0.00    -0.267 C  
HETATM    8  C   UNL     1     -11.369  12.898  65.985  1.00  0.00    -0.354 C  
HETATM    9  C   UNL     1     -12.370  13.960  66.424  1.00  0.00    -0.468 C  
HETATM   10  C   UNL     1     -11.725  14.951  67.401  1.00  0.00    -0.293 C  
BRANCH  10  11
HETATM   11  C   UNL     1     -10.637  15.800  66.695  1.00  0.00    -0.307 C  
HETATM   12  N   UNL     1      -9.881  16.551  67.584  1.00  0.00    -0.244 N  
HETATM   13  O   UNL     1     -10.529  15.849  65.471  1.00  0.00    -0.359 OA 
HETATM   14  H   UNL     1      -9.974  16.397  68.588  1.00  0.00     0.000 HD 
BRANCH  12  15
HETATM   15  C   UNL     1      -8.991  17.522  67.103  1.00  0.00    -0.238 A  
HETATM   16  C   UNL     1      -9.420  18.855  66.964  1.00  0.00    -0.341 A  
HETATM   17  C   UNL     1     -10.837  19.291  67.181  1.00  0.00    -0.543 C  
HETATM   18  C   UNL     1      -8.500  19.796  66.468  1.00  0.00    -0.380 A  
HETATM   19  C   UNL     1      -7.190  19.426  66.158  1.00  0.00    -0.281 A  
HETATM   20  C   UNL     1      -6.775  18.112  66.329  1.00  0.00    -0.275 A  
HETATM   21  C   UNL     1      -7.666  17.142  66.797  1.00  0.00    -0.279 A  
HETATM   22  C   UNL     1      -7.186  15.728  66.991  1.00  0.00    -0.208 C  
ENDBRANCH  12  15
ENDBRANCH  10  11
ENDBRANCH   4   5
ENDBRANCH   3   4
ENDBRANCH   2   3
TORSDOF 5
ENDMDL
MODEL       21
REMARK 921   NORMALIZED FREE ENERGY PREDICTED BY IDOCK:   -5.55 KCAL/MOL
REMARK 922        TOTAL FREE ENERGY PREDICTED BY IDOCK:   -7.61 KCAL/MOL
REMARK 923 INTER-LIGAND FREE ENERGY PREDICTED BY IDOCK:   -7.18 KCAL/MOL
REMARK 924 INTRA-LIGAND FREE ENERGY PREDICTED BY IDOCK:   -0.42 KCAL/MOL
REMARK 927      BINDING AFFINITY PREDICTED BY RF-SCORE:    0.00 PKD
ROOT
HETATM    1  C   UNL     1     -13.598  13.297  72.329  1.00  0.00    -0.703 C  
HETATM    2  C   UNL     1     -14.211  14.600  71.832  1.00  0.00    -0.628 C  
ENDROOT
BRANCH   2   3
HETATM    3  C   UNL     1     -13.169  15.488  71.146  1.00  0.00    -0.576 C  
BRANCH   3   4
HETATM    4  C   UNL     1     -11.877  14.739  70.776  1.00  0.00    -0.312 C  
BRANCH   4   5
HETATM    5  N   UNL     1     -11.508  14.795  69.354  1.00  0.00    -0.283 NA 
HETATM    6  C   UNL     1     -11.660  16.131  68.742  1.00  0.00    -0.297 C  
HETATM    7  C   UNL     1     -10.544  17.141  69.032  1.00  0.00    -0.282 C  
HETATM    8  C   UNL     1      -9.147  16.557  68.855  1.00  0.00    -0.245 C  
HETATM    9  C   UNL     1      -9.028  15.220  69.576  1.00  0.00    -0.183 C  
HETATM   10  C   UNL     1     -10.135  14.256  69.131  1.00  0.00    -0.055 C  
BRANCH  10  11
HETATM   11  C   UNL     1      -9.951  13.844  67.648  1.00  0.00    -0.237 C  
HETATM   12  N   UNL     1     -10.991  13.056  67.176  1.00  0.00    -0.264 N  
HETATM   13  O   UNL     1      -8.941  14.127  67.005  1.00  0.00    -0.220 OA 
HETATM   14  H   UNL     1     -11.832  12.931  67.741  1.00  0.00     0.000 HD 
BRANCH  12  15
HETATM   15  C   UNL     1     -10.890  12.433  65.924  1.00  0.00    -0.270 A  
HETATM   16  C   UNL     1     -10.232  11.194  65.813  1.00  0.00    -0.310 A  
HETATM   17  C   UNL     1      -9.505  10.542  66.950  1.00  0.00    -0.191 C  
HETATM   18  C   UNL     1     -10.141  10.607  64.539  1.00  0.00    -0.421 A  
HETATM   19  C   UNL     1     -10.718  11.218  63.423  1.00  0.00    -0.349 A  
HETATM   20  C   UNL     1     -11.389  12.426  63.556  1.00  0.00    -0.553 A  
HETATM   21  C   UNL     1     -11.480  13.053  64.802  1.00  0.00    -0.363 A  
HETATM   22  C   UNL     1     -12.229  14.354  64.923  1.00  0.00    -0.440 C  
ENDBRANCH  12  15
ENDBRANCH  10  11
ENDBRANCH   4   5
ENDBRANCH   3   4
ENDBRANCH   2   3
TORSDOF 5
ENDMDL
MODEL       22
REMARK 921   NORMALIZED FREE ENERGY PREDICTED BY IDOCK:   -5.52 KCAL/MOL
REMARK 922        TOTAL FREE ENERGY PREDICTED BY IDOCK:   -7.57 KCAL/MOL
REMARK 923 INTER-LIGAND FREE ENERGY PREDICTED BY IDOCK:   -7.34 KCAL/MOL
REMARK 924 INTRA-LIGAND FREE ENERGY PREDICTED BY IDOCK:   -0.23 KCAL/MOL
REMARK 927      BINDING AFFINITY PREDICTED BY RF-SCORE:    0.00 PKD
ROOT
HETATM    1  C   UNL     1     -11.935  12.595  63.404  1.00  0.00    -0.613 C  
HETATM    2  C   UNL     1     -12.266  13.613  64.487  1.00  0.00    -0.444 C  
ENDROOT
BRANCH   2   3
HETATM    3  C   UNL     1     -11.093  14.562  64.749  1.00  0.00    -0.400 C  
BRANCH   3   4
HETATM    4  C   UNL     1     -10.052  13.989  65.726  1.00  0.00    -0.327 C  
BRANCH   4   5
HETATM    5  N   UNL     1     -10.465  12.768  66.433  1.00  0.00    -0.248 NA 
HETATM    6  C   UNL     1      -9.654  11.577  66.108  1.00  0.00    -0.225 C  
HETATM    7  C   UNL     1      -8.292  11.474  66.804  1.00  0.00    -0.165 C  
HETATM    8  C   UNL     1      -8.361  11.761  68.300  1.00  0.00    -0.159 C  
HETATM    9  C   UNL     1      -9.140  13.044  68.565  1.00  0.00    -0.053 C  
HETATM   10  C   UNL     1     -10.524  12.992  67.907  1.00  0.00    -0.229 C  
BRANCH  10  11
HETATM   11  C   UNL     1     -11.420  11.921  68.581  1.00  0.00    -0.294 C  
HETATM   12  N   UNL     1     -11.085  11.699  69.909  1.00  0.00    -0.481 N  
HETATM   13  O   UNL     1     -12.274  11.290  67.961  1.00  0.00    -0.621 OA 
HETATM   14  H   UNL     1     -10.421  12.317  70.376  1.00  0.00     0.000 HD 
BRANCH  12  15
HETATM   15  C   UNL     1     -11.658  10.628  70.609  1.00  0.00    -0.336 A  
HETATM   16  C   UNL     1     -12.728  10.864  71.492  1.00  0.00    -0.533 A  
HETATM   17  C   UNL     1     -13.225  12.235  71.836  1.00  0.00    -0.481 C  
HETATM   18  C   UNL     1     -13.267   9.765  72.183  1.00  0.00    -0.530 A  
HETATM   19  C   UNL     1     -12.779   8.473  71.973  1.00  0.00    -0.421 A  
HETATM   20  C   UNL     1     -11.742   8.255  71.077  1.00  0.00    -0.293 A  
HETATM   21  C   UNL     1     -11.163   9.324  70.387  1.00  0.00    -0.290 A  
HETATM   22  C   UNL     1     -10.052   9.058  69.407  1.00  0.00    -0.198 C  
ENDBRANCH  12  15
ENDBRANCH  10  11
ENDBRANCH   4   5
ENDBRANCH   3   4
ENDBRANCH   2   3
TORSDOF 5
ENDMDL
MODEL       23
REMARK 921   NORMALIZED FREE ENERGY PREDICTED BY IDOCK:   -5.44 KCAL/MOL
REMARK 922        TOTAL FREE ENERGY PREDICTED BY IDOCK:   -7.47 KCAL/MOL
REMARK 923 INTER-LIGAND FREE ENERGY PREDICTED BY IDOCK:   -7.00 KCAL/MOL
REMARK 924 INTRA-LIGAND FREE ENERGY PREDICTED BY IDOCK:   -0.46 KCAL/MOL
REMARK 927      BINDING AFFINITY PREDICTED BY RF-SCORE:    0.00 PKD
ROOT
HETATM    1  C   UNL     1     -12.231  14.641  64.333  1.00  0.00    -0.473 C  
HETATM    2  C   UNL     1     -11.073  15.533  64.759  1.00  0.00    -0.421 C  
ENDROOT
BRANCH   2   3
HETATM    3  C   UNL     1     -10.676  15.286  66.218  1.00  0.00    -0.315 C  
BRANCH   3   4
HETATM    4  C   UNL     1      -9.759  14.065  66.402  1.00  0.00    -0.296 C  
BRANCH   4   5
HETATM    5  N   UNL     1     -10.445  12.819  66.773  1.00  0.00    -0.240 NA 
HETATM    6  C   UNL     1     -10.301  11.732  65.784  1.00  0.00    -0.253 C  
HETATM    7  C   UNL     1      -8.975  10.964  65.808  1.00  0.00    -0.208 C  
HETATM    8  C   UNL     1      -8.545  10.555  67.212  1.00  0.00    -0.122 C  
HETATM    9  C   UNL     1      -8.637  11.739  68.168  1.00  0.00    -0.160 C  
HETATM   10  C   UNL     1     -10.038  12.363  68.135  1.00  0.00    -0.224 C  
BRANCH  10  11
HETATM   11  C   UNL     1     -11.094  11.390  68.717  1.00  0.00    -0.235 C  
HETATM   12  N   UNL     1     -10.782  10.966  70.001  1.00  0.00    -0.463 N  
HETATM   13  O   UNL     1     -12.053  10.987  68.062  1.00  0.00    -0.615 OA 
HETATM   14  H   UNL     1     -10.016  11.405  70.511  1.00  0.00     0.000 HD 
BRANCH  12  15
HETATM   15  C   UNL     1     -11.521   9.935  70.600  1.00  0.00    -0.334 A  
HETATM   16  C   UNL     1     -11.124   8.597  70.418  1.00  0.00    -0.250 A  
HETATM   17  C   UNL     1     -10.012   8.184  69.502  1.00  0.00    -0.187 C  
HETATM   18  C   UNL     1     -11.897   7.592  71.025  1.00  0.00    -0.319 A  
HETATM   19  C   UNL     1     -13.004   7.914  71.814  1.00  0.00    -0.351 A  
HETATM   20  C   UNL     1     -13.364   9.241  72.006  1.00  0.00    -0.518 A  
HETATM   21  C   UNL     1     -12.635  10.268  71.401  1.00  0.00    -0.539 A  
HETATM   22  C   UNL     1     -13.035  11.699  71.640  1.00  0.00    -0.483 C  
ENDBRANCH  12  15
ENDBRANCH  10  11
ENDBRANCH   4   5
ENDBRANCH   3   4
ENDBRANCH   2   3
TORSDOF 5
ENDMDL
MODEL       24
REMARK 921   NORMALIZED FREE ENERGY PREDICTED BY IDOCK:   -5.44 KCAL/MOL
REMARK 922        TOTAL FREE ENERGY PREDICTED BY IDOCK:   -7.47 KCAL/MOL
REMARK 923 INTER-LIGAND FREE ENERGY PREDICTED BY IDOCK:   -6.96 KCAL/MOL
REMARK 924 INTRA-LIGAND FREE ENERGY PREDICTED BY IDOCK:   -0.51 KCAL/MOL
REMARK 927      BINDING AFFINITY PREDICTED BY RF-SCORE:    0.00 PKD
ROOT
HETATM    1  C   UNL     1     -10.894  19.581  65.709  1.00  0.00    -0.403 C  
HETATM    2  C   UNL     1      -9.894  20.150  66.706  1.00  0.00    -0.591 C  
ENDROOT
BRANCH   2   3
HETATM    3  C   UNL     1     -10.281  19.813  68.149  1.00  0.00    -0.577 C  
BRANCH   3   4
HETATM    4  C   UNL     1      -9.397  18.722  68.778  1.00  0.00    -0.315 C  
BRANCH   4   5
HETATM    5  N   UNL     1      -9.044  17.611  67.881  1.00  0.00    -0.255 NA 
HETATM    6  C   UNL     1      -7.643  17.160  68.001  1.00  0.00    -0.191 C  
HETATM    7  C   UNL     1      -7.324  16.249  69.192  1.00  0.00    -0.218 C  
HETATM    8  C   UNL     1      -8.333  15.121  69.372  1.00  0.00    -0.195 C  
HETATM    9  C   UNL     1      -9.757  15.662  69.320  1.00  0.00    -0.271 C  
HETATM   10  C   UNL     1      -9.992  16.469  68.038  1.00  0.00    -0.245 C  
BRANCH  10  11
HETATM   11  C   UNL     1      -9.945  15.553  66.788  1.00  0.00    -0.249 C  
HETATM   12  N   UNL     1     -10.803  14.468  66.886  1.00  0.00    -0.299 N  
HETATM   13  O   UNL     1      -9.162  15.744  65.859  1.00  0.00    -0.340 OA 
HETATM   14  H   UNL     1     -11.479  14.420  67.648  1.00  0.00     0.000 HD 
BRANCH  12  15
HETATM   15  C   UNL     1     -10.742  13.436  65.938  1.00  0.00    -0.279 A  
HETATM   16  C   UNL     1     -11.397  13.584  64.702  1.00  0.00    -0.375 A  
HETATM   17  C   UNL     1     -12.281  14.749  64.372  1.00  0.00    -0.447 C  
HETATM   18  C   UNL     1     -11.322  12.523  63.783  1.00  0.00    -0.534 A  
HETATM   19  C   UNL     1     -10.589  11.370  64.075  1.00  0.00    -0.444 A  
HETATM   20  C   UNL     1      -9.925  11.252  65.289  1.00  0.00    -0.301 A  
HETATM   21  C   UNL     1      -9.995  12.276  66.238  1.00  0.00    -0.249 A  
HETATM   22  C   UNL     1      -9.251  12.131  67.539  1.00  0.00    -0.182 C  
ENDBRANCH  12  15
ENDBRANCH  10  11
ENDBRANCH   4   5
ENDBRANCH   3   4
ENDBRANCH   2   3
TORSDOF 5
ENDMDL
MODEL       25
REMARK 921   NORMALIZED FREE ENERGY PREDICTED BY IDOCK:   -5.43 KCAL/MOL
REMARK 922        TOTAL FREE ENERGY PREDICTED BY IDOCK:   -7.46 KCAL/MOL
REMARK 923 INTER-LIGAND FREE ENERGY PREDICTED BY IDOCK:   -7.09 KCAL/MOL
REMARK 924 INTRA-LIGAND FREE ENERGY PREDICTED BY IDOCK:   -0.36 KCAL/MOL
REMARK 927      BINDING AFFINITY PREDICTED BY RF-SCORE:    0.00 PKD
ROOT
HETATM    1  C   UNL     1     -10.705  19.877  67.799  1.00  0.00    -0.365 C  
HETATM    2  C   UNL     1     -10.460  19.158  66.480  1.00  0.00    -0.534 C  
ENDROOT
BRANCH   2   3
HETATM    3  C   UNL     1      -8.969  18.885  66.254  1.00  0.00    -0.267 C  
BRANCH   3   4
HETATM    4  C   UNL     1      -8.468  17.613  66.958  1.00  0.00    -0.236 C  
BRANCH   4   5
HETATM    5  N   UNL     1      -9.523  16.704  67.430  1.00  0.00    -0.230 NA 
HETATM    6  C   UNL     1      -9.597  15.428  66.691  1.00  0.00    -0.256 C  
HETATM    7  C   UNL     1      -8.563  14.363  67.071  1.00  0.00    -0.226 C  
HETATM    8  C   UNL     1      -8.422  14.174  68.577  1.00  0.00    -0.157 C  
HETATM    9  C   UNL     1      -8.268  15.520  69.275  1.00  0.00    -0.255 C  
HETATM   10  C   UNL     1      -9.414  16.468  68.900  1.00  0.00    -0.260 C  
BRANCH  10  11
HETATM   11  C   UNL     1     -10.764  15.960  69.467  1.00  0.00    -0.288 C  
HETATM   12  N   UNL     1     -10.611  15.209  70.624  1.00  0.00    -0.532 N  
HETATM   13  O   UNL     1     -11.834  16.145  68.890  1.00  0.00    -0.338 OA 
HETATM   14  H   UNL     1      -9.703  15.167  71.088  1.00  0.00     0.000 HD 
BRANCH  12  15
HETATM   15  C   UNL     1     -11.703  14.509  71.157  1.00  0.00    -0.233 A  
HETATM   16  C   UNL     1     -12.437  15.065  72.220  1.00  0.00    -0.429 A  
HETATM   17  C   UNL     1     -12.042  16.329  72.922  1.00  0.00    -0.625 C  
HETATM   18  C   UNL     1     -13.517  14.326  72.734  1.00  0.00    -0.590 A  
HETATM   19  C   UNL     1     -13.873  13.094  72.181  1.00  0.00    -0.506 A  
HETATM   20  C   UNL     1     -13.155  12.573  71.112  1.00  0.00    -0.132 A  
HETATM   21  C   UNL     1     -12.060  13.266  70.589  1.00  0.00    -0.361 A  
HETATM   22  C   UNL     1     -11.310  12.689  69.418  1.00  0.00    -0.273 C  
ENDBRANCH  12  15
ENDBRANCH  10  11
ENDBRANCH   4   5
ENDBRANCH   3   4
ENDBRANCH   2   3
TORSDOF 5
ENDMDL
MODEL       26
REMARK 921   NORMALIZED FREE ENERGY PREDICTED BY IDOCK:   -5.43 KCAL/MOL
REMARK 922        TOTAL FREE ENERGY PREDICTED BY IDOCK:   -7.45 KCAL/MOL
REMARK 923 INTER-LIGAND FREE ENERGY PREDICTED BY IDOCK:   -6.99 KCAL/MOL
REMARK 924 INTRA-LIGAND FREE ENERGY PREDICTED BY IDOCK:   -0.46 KCAL/MOL
REMARK 927      BINDING AFFINITY PREDICTED BY RF-SCORE:    0.00 PKD
ROOT
HETATM    1  C   UNL     1     -12.768  16.056  72.541  1.00  0.00    -0.510 C  
HETATM    2  C   UNL     1     -12.825  15.482  71.132  1.00  0.00    -0.551 C  
ENDROOT
BRANCH   2   3
HETATM    3  C   UNL     1     -11.483  15.625  70.409  1.00  0.00    -0.369 C  
BRANCH   3   4
HETATM    4  C   UNL     1     -11.595  15.487  68.881  1.00  0.00    -0.373 C  
BRANCH   4   5
HETATM    5  N   UNL     1     -11.853  14.123  68.396  1.00  0.00    -0.348 NA 
HETATM    6  C   UNL     1     -12.130  14.039  66.947  1.00  0.00    -0.430 C  
HETATM    7  C   UNL     1     -10.912  14.098  66.019  1.00  0.00    -0.304 C  
HETATM    8  C   UNL     1      -9.775  13.185  66.464  1.00  0.00    -0.268 C  
HETATM    9  C   UNL     1      -9.482  13.376  67.948  1.00  0.00    -0.216 C  
HETATM   10  C   UNL     1     -10.753  13.193  68.786  1.00  0.00    -0.225 C  
BRANCH  10  11
HETATM   11  C   UNL     1     -11.244  11.724  68.738  1.00  0.00    -0.251 C  
HETATM   12  N   UNL     1     -10.239  10.812  69.027  1.00  0.00    -0.206 N  
HETATM   13  O   UNL     1     -12.386  11.420  68.396  1.00  0.00    -0.505 OA 
HETATM   14  H   UNL     1      -9.340  11.141  69.380  1.00  0.00     0.000 HD 
BRANCH  12  15
HETATM   15  C   UNL     1     -10.457   9.440  68.834  1.00  0.00    -0.216 A  
HETATM   16  C   UNL     1     -10.292   8.881  67.554  1.00  0.00    -0.328 A  
HETATM   17  C   UNL     1     -10.015   9.696  66.327  1.00  0.00    -0.335 C  
HETATM   18  C   UNL     1     -10.532   7.504  67.399  1.00  0.00    -0.367 A  
HETATM   19  C   UNL     1     -10.887   6.710  68.492  1.00  0.00    -0.319 A  
HETATM   20  C   UNL     1     -11.018   7.273  69.754  1.00  0.00    -0.235 A  
HETATM   21  C   UNL     1     -10.811   8.642  69.944  1.00  0.00    -0.210 A  
HETATM   22  C   UNL     1     -10.940   9.226  71.326  1.00  0.00    -0.421 C  
ENDBRANCH  12  15
ENDBRANCH  10  11
ENDBRANCH   4   5
ENDBRANCH   3   4
ENDBRANCH   2   3
TORSDOF 5
ENDMDL
MODEL       27
REMARK 921   NORMALIZED FREE ENERGY PREDICTED BY IDOCK:   -5.42 KCAL/MOL
REMARK 922        TOTAL FREE ENERGY PREDICTED BY IDOCK:   -7.44 KCAL/MOL
REMARK 923 INTER-LIGAND FREE ENERGY PREDICTED BY IDOCK:   -6.96 KCAL/MOL
REMARK 924 INTRA-LIGAND FREE ENERGY PREDICTED BY IDOCK:   -0.48 KCAL/MOL
REMARK 927      BINDING AFFINITY PREDICTED BY RF-SCORE:    0.00 PKD
ROOT
HETATM    1  C   UNL     1     -12.078  15.875  72.277  1.00  0.00    -0.597 C  
HETATM    2  C   UNL     1     -12.460  15.578  70.833  1.00  0.00    -0.494 C  
ENDROOT
BRANCH   2   3
HETATM    3  C   UNL     1     -11.268  15.750  69.886  1.00  0.00    -0.335 C  
BRANCH   3   4
HETATM    4  C   UNL     1     -11.620  15.499  68.410  1.00  0.00    -0.357 C  
BRANCH   4   5
HETATM    5  N   UNL     1     -11.867  14.093  68.058  1.00  0.00    -0.360 NA 
HETATM    6  C   UNL     1     -12.223  13.879  66.641  1.00  0.00    -0.424 C  
HETATM    7  C   UNL     1     -11.061  13.886  65.641  1.00  0.00    -0.298 C  
HETATM    8  C   UNL     1      -9.875  13.042  66.094  1.00  0.00    -0.275 C  
HETATM    9  C   UNL     1      -9.505  13.367  67.536  1.00  0.00    -0.219 C  
HETATM   10  C   UNL     1     -10.720  13.227  68.460  1.00  0.00    -0.262 C  
BRANCH  10  11
HETATM   11  C   UNL     1     -11.172  11.748  68.565  1.00  0.00    -0.252 C  
HETATM   12  N   UNL     1     -10.109  10.874  68.744  1.00  0.00    -0.187 N  
HETATM   13  O   UNL     1     -12.343  11.403  68.419  1.00  0.00    -0.505 OA 
HETATM   14  H   UNL     1      -9.176  11.239  68.938  1.00  0.00     0.000 HD 
BRANCH  12  15
HETATM   15  C   UNL     1     -10.315   9.489  68.659  1.00  0.00    -0.205 A  
HETATM   16  C   UNL     1     -10.651   8.762  69.816  1.00  0.00    -0.227 A  
HETATM   17  C   UNL     1     -10.680   9.363  71.188  1.00  0.00    -0.417 C  
HETATM   18  C   UNL     1     -10.838   7.374  69.692  1.00  0.00    -0.222 A  
HETATM   19  C   UNL     1     -10.730   6.743  68.450  1.00  0.00    -0.284 A  
HETATM   20  C   UNL     1     -10.427   7.480  67.314  1.00  0.00    -0.391 A  
HETATM   21  C   UNL     1     -10.210   8.859  67.401  1.00  0.00    -0.313 A  
HETATM   22  C   UNL     1      -9.900   9.639  66.151  1.00  0.00    -0.334 C  
ENDBRANCH  12  15
ENDBRANCH  10  11
ENDBRANCH   4   5
ENDBRANCH   3   4
ENDBRANCH   2   3
TORSDOF 5
ENDMDL
MODEL       28
REMARK 921   NORMALIZED FREE ENERGY PREDICTED BY IDOCK:   -5.40 KCAL/MOL
REMARK 922        TOTAL FREE ENERGY PREDICTED BY IDOCK:   -7.41 KCAL/MOL
REMARK 923 INTER-LIGAND FREE ENERGY PREDICTED BY IDOCK:   -7.00 KCAL/MOL
REMARK 924 INTRA-LIGAND FREE ENERGY PREDICTED BY IDOCK:   -0.41 KCAL/MOL
REMARK 927      BINDING AFFINITY PREDICTED BY RF-SCORE:    0.00 PKD
ROOT
HETATM    1  C   UNL     1     -12.566  11.016  71.095  1.00  0.00    -0.522 C  
HETATM    2  C   UNL     1     -12.020  11.322  69.707  1.00  0.00    -0.431 C  
ENDROOT
BRANCH   2   3
HETATM    3  C   UNL     1     -11.544  12.774  69.596  1.00  0.00    -0.322 C  
BRANCH   3   4
HETATM    4  C   UNL     1     -11.995  13.467  68.299  1.00  0.00    -0.317 C  
BRANCH   4   5
HETATM    5  N   UNL     1     -10.931  14.165  67.562  1.00  0.00    -0.278 NA 
HETATM    6  C   UNL     1      -9.885  13.273  67.021  1.00  0.00    -0.242 C  
HETATM    7  C   UNL     1     -10.235  12.524  65.730  1.00  0.00    -0.289 C  
HETATM    8  C   UNL     1     -10.866  13.419  64.669  1.00  0.00    -0.405 C  
HETATM    9  C   UNL     1     -11.991  14.253  65.271  1.00  0.00    -0.389 C  
HETATM   10  C   UNL     1     -11.499  15.038  66.494  1.00  0.00    -0.239 C  
BRANCH  10  11
HETATM   11  C   UNL     1     -10.472  16.123  66.081  1.00  0.00    -0.325 C  
HETATM   12  N   UNL     1      -9.783  16.650  67.164  1.00  0.00    -0.245 N  
HETATM   13  O   UNL     1     -10.359  16.518  64.921  1.00  0.00    -0.591 OA 
HETATM   14  H   UNL     1      -9.871  16.217  68.083  1.00  0.00     0.000 HD 
BRANCH  12  15
HETATM   15  C   UNL     1      -8.964  17.776  66.996  1.00  0.00    -0.252 A  
HETATM   16  C   UNL     1      -7.595  17.608  66.717  1.00  0.00    -0.256 A  
HETATM   17  C   UNL     1      -6.913  16.274  66.710  1.00  0.00    -0.165 C  
HETATM   18  C   UNL     1      -6.806  18.762  66.567  1.00  0.00    -0.227 A  
HETATM   19  C   UNL     1      -7.371  20.036  66.657  1.00  0.00    -0.287 A  
HETATM   20  C   UNL     1      -8.729  20.183  66.905  1.00  0.00    -0.412 A  
HETATM   21  C   UNL     1      -9.543  19.061  67.083  1.00  0.00    -0.360 A  
HETATM   22  C   UNL     1     -11.016  19.247  67.333  1.00  0.00    -0.445 C  
ENDBRANCH  12  15
ENDBRANCH  10  11
ENDBRANCH   4   5
ENDBRANCH   3   4
ENDBRANCH   2   3
TORSDOF 5
ENDMDL
MODEL       29
REMARK 921   NORMALIZED FREE ENERGY PREDICTED BY IDOCK:   -5.37 KCAL/MOL
REMARK 922        TOTAL FREE ENERGY PREDICTED BY IDOCK:   -7.37 KCAL/MOL
REMARK 923 INTER-LIGAND FREE ENERGY PREDICTED BY IDOCK:   -7.11 KCAL/MOL
REMARK 924 INTRA-LIGAND FREE ENERGY PREDICTED BY IDOCK:   -0.27 KCAL/MOL
REMARK 927      BINDING AFFINITY PREDICTED BY RF-SCORE:    0.00 PKD
ROOT
HETATM    1  C   UNL     1     -13.554  13.527  72.105  1.00  0.00    -0.651 C  
HETATM    2  C   UNL     1     -12.423  14.138  71.288  1.00  0.00    -0.446 C  
ENDROOT
BRANCH   2   3
HETATM    3  C   UNL     1     -11.998  13.219  70.139  1.00  0.00    -0.388 C  
BRANCH   3   4
HETATM    4  C   UNL     1     -12.153  13.865  68.752  1.00  0.00    -0.309 C  
BRANCH   4   5
HETATM    5  N   UNL     1     -10.924  14.449  68.193  1.00  0.00    -0.247 NA 
HETATM    6  C   UNL     1      -9.921  13.452  67.767  1.00  0.00    -0.233 C  
HETATM    7  C   UNL     1     -10.169  12.776  66.415  1.00  0.00    -0.263 C  
HETATM    8  C   UNL     1     -10.540  13.760  65.311  1.00  0.00    -0.363 C  
HETATM    9  C   UNL     1     -11.635  14.708  65.784  1.00  0.00    -0.328 C  
HETATM   10  C   UNL     1     -11.234  15.405  67.090  1.00  0.00    -0.256 C  
BRANCH  10  11
HETATM   11  C   UNL     1     -10.043  16.370  66.862  1.00  0.00    -0.281 C  
HETATM   12  N   UNL     1      -9.750  17.135  67.982  1.00  0.00    -0.265 N  
HETATM   13  O   UNL     1      -9.487  16.487  65.771  1.00  0.00    -0.484 OA 
HETATM   14  H   UNL     1     -10.199  16.926  68.873  1.00  0.00     0.000 HD 
BRANCH  12  15
HETATM   15  C   UNL     1      -8.837  18.196  67.890  1.00  0.00    -0.268 A  
HETATM   16  C   UNL     1      -7.483  17.980  68.202  1.00  0.00    -0.249 A  
HETATM   17  C   UNL     1      -6.961  16.691  68.762  1.00  0.00    -0.185 C  
HETATM   18  C   UNL     1      -6.602  19.071  68.109  1.00  0.00    -0.249 A  
HETATM   19  C   UNL     1      -7.051  20.324  67.683  1.00  0.00    -0.325 A  
HETATM   20  C   UNL     1      -8.386  20.512  67.351  1.00  0.00    -0.351 A  
HETATM   21  C   UNL     1      -9.298  19.458  67.453  1.00  0.00    -0.388 A  
HETATM   22  C   UNL     1     -10.736  19.683  67.070  1.00  0.00    -0.575 C  
ENDBRANCH  12  15
ENDBRANCH  10  11
ENDBRANCH   4   5
ENDBRANCH   3   4
ENDBRANCH   2   3
TORSDOF 5
ENDMDL
MODEL       30
REMARK 921   NORMALIZED FREE ENERGY PREDICTED BY IDOCK:   -5.36 KCAL/MOL
REMARK 922        TOTAL FREE ENERGY PREDICTED BY IDOCK:   -7.37 KCAL/MOL
REMARK 923 INTER-LIGAND FREE ENERGY PREDICTED BY IDOCK:   -6.74 KCAL/MOL
REMARK 924 INTRA-LIGAND FREE ENERGY PREDICTED BY IDOCK:   -0.63 KCAL/MOL
REMARK 927      BINDING AFFINITY PREDICTED BY RF-SCORE:    0.00 PKD
ROOT
HETATM    1  C   UNL     1     -12.691  11.723  63.484  1.00  0.00    -0.428 C  
HETATM    2  C   UNL     1     -11.950  13.048  63.362  1.00  0.00    -0.592 C  
ENDROOT
BRANCH   2   3
HETATM    3  C   UNL     1     -10.542  12.964  63.957  1.00  0.00    -0.418 C  
BRANCH   3   4
HETATM    4  C   UNL     1     -10.291  13.986  65.079  1.00  0.00    -0.409 C  
BRANCH   4   5
HETATM    5  N   UNL     1      -9.958  13.407  66.388  1.00  0.00    -0.287 NA 
HETATM    6  C   UNL     1      -9.610  14.405  67.420  1.00  0.00    -0.216 C  
HETATM    7  C   UNL     1     -10.784  15.132  68.084  1.00  0.00    -0.254 C  
HETATM    8  C   UNL     1     -11.905  14.193  68.515  1.00  0.00    -0.390 C  
HETATM    9  C   UNL     1     -12.274  13.243  67.381  1.00  0.00    -0.236 C  
HETATM   10  C   UNL     1     -11.039  12.495  66.866  1.00  0.00    -0.278 C  
BRANCH  10  11
HETATM   11  C   UNL     1     -10.489  11.523  67.940  1.00  0.00    -0.184 C  
HETATM   12  N   UNL     1     -11.401  10.536  68.288  1.00  0.00    -0.427 N  
HETATM   13  O   UNL     1      -9.392  11.679  68.473  1.00  0.00    -0.195 OA 
HETATM   14  H   UNL     1     -12.258  10.421  67.746  1.00  0.00     0.000 HD 
BRANCH  12  15
HETATM   15  C   UNL     1     -11.146   9.697  69.382  1.00  0.00    -0.139 A  
HETATM   16  C   UNL     1     -10.385   8.528  69.202  1.00  0.00    -0.227 A  
HETATM   17  C   UNL     1      -9.924   8.043  67.861  1.00  0.00    -0.223 C  
HETATM   18  C   UNL     1     -10.161   7.707  70.321  1.00  0.00    -0.205 A  
HETATM   19  C   UNL     1     -10.649   8.061  71.581  1.00  0.00    -0.280 A  
HETATM   20  C   UNL     1     -11.375   9.233  71.747  1.00  0.00    -0.437 A  
HETATM   21  C   UNL     1     -11.638  10.064  70.654  1.00  0.00    -0.422 A  
HETATM   22  C   UNL     1     -12.410  11.339  70.863  1.00  0.00    -0.490 C  
ENDBRANCH  12  15
ENDBRANCH  10  11
ENDBRANCH   4   5
ENDBRANCH   3   4
ENDBRANCH   2   3
TORSDOF 5
ENDMDL
MODEL       31
REMARK 921   NORMALIZED FREE ENERGY PREDICTED BY IDOCK:   -5.33 KCAL/MOL
REMARK 922        TOTAL FREE ENERGY PREDICTED BY IDOCK:   -7.32 KCAL/MOL
REMARK 923 INTER-LIGAND FREE ENERGY PREDICTED BY IDOCK:   -7.12 KCAL/MOL
REMARK 924 INTRA-LIGAND FREE ENERGY PREDICTED BY IDOCK:   -0.21 KCAL/MOL
REMARK 927      BINDING AFFINITY PREDICTED BY RF-SCORE:    0.00 PKD
ROOT
HETATM    1  C   UNL     1     -13.312  12.757  72.043  1.00  0.00    -0.565 C  
HETATM    2  C   UNL     1     -12.512  13.664  71.118  1.00  0.00    -0.442 C  
ENDROOT
BRANCH   2   3
HETATM    3  C   UNL     1     -11.994  12.905  69.893  1.00  0.00    -0.377 C  
BRANCH   3   4
HETATM    4  C   UNL     1     -12.122  13.701  68.583  1.00  0.00    -0.290 C  
BRANCH   4   5
HETATM    5  N   UNL     1     -10.876  14.316  68.103  1.00  0.00    -0.239 NA 
HETATM    6  C   UNL     1      -9.852  13.346  67.663  1.00  0.00    -0.226 C  
HETATM    7  C   UNL     1     -10.047  12.741  66.269  1.00  0.00    -0.267 C  
HETATM    8  C   UNL     1     -10.381  13.781  65.205  1.00  0.00    -0.391 C  
HETATM    9  C   UNL     1     -11.498  14.700  65.685  1.00  0.00    -0.340 C  
HETATM   10  C   UNL     1     -11.149  15.328  67.040  1.00  0.00    -0.305 C  
BRANCH  10  11
HETATM   11  C   UNL     1      -9.955  16.308  66.907  1.00  0.00    -0.260 C  
HETATM   12  N   UNL     1      -9.840  17.163  67.993  1.00  0.00    -0.273 N  
HETATM   13  O   UNL     1      -9.251  16.358  65.900  1.00  0.00    -0.417 OA 
HETATM   14  H   UNL     1     -10.409  17.009  68.826  1.00  0.00     0.000 HD 
BRANCH  12  15
HETATM   15  C   UNL     1      -8.943  18.241  67.948  1.00  0.00    -0.276 A  
HETATM   16  C   UNL     1      -9.355  19.470  67.402  1.00  0.00    -0.405 A  
HETATM   17  C   UNL     1     -10.682  19.671  66.734  1.00  0.00    -0.562 C  
HETATM   18  C   UNL     1      -8.423  20.521  67.364  1.00  0.00    -0.354 A  
HETATM   19  C   UNL     1      -7.137  20.361  67.887  1.00  0.00    -0.327 A  
HETATM   20  C   UNL     1      -6.756  19.150  68.448  1.00  0.00    -0.289 A  
HETATM   21  C   UNL     1      -7.647  18.073  68.483  1.00  0.00    -0.296 A  
HETATM   22  C   UNL     1      -7.216  16.776  69.115  1.00  0.00    -0.214 C  
ENDBRANCH  12  15
ENDBRANCH  10  11
ENDBRANCH   4   5
ENDBRANCH   3   4
ENDBRANCH   2   3
TORSDOF 5
ENDMDL
MODEL       32
REMARK 921   NORMALIZED FREE ENERGY PREDICTED BY IDOCK:   -5.33 KCAL/MOL
REMARK 922        TOTAL FREE ENERGY PREDICTED BY IDOCK:   -7.32 KCAL/MOL
REMARK 923 INTER-LIGAND FREE ENERGY PREDICTED BY IDOCK:   -6.80 KCAL/MOL
REMARK 924 INTRA-LIGAND FREE ENERGY PREDICTED BY IDOCK:   -0.52 KCAL/MOL
REMARK 927      BINDING AFFINITY PREDICTED BY RF-SCORE:    0.00 PKD
ROOT
HETATM    1  C   UNL     1     -10.380   8.909  71.709  1.00  0.00    -0.426 C  
HETATM    2  C   UNL     1      -9.165   8.194  71.133  1.00  0.00    -0.185 C  
ENDROOT
BRANCH   2   3
HETATM    3  C   UNL     1      -8.160   9.181  70.532  1.00  0.00    -0.182 C  
BRANCH   3   4
HETATM    4  C   UNL     1      -8.525   9.631  69.107  1.00  0.00    -0.143 C  
BRANCH   4   5
HETATM    5  N   UNL     1      -9.249  10.909  69.023  1.00  0.00    -0.155 NA 
HETATM    6  C   UNL     1      -8.521  11.970  68.298  1.00  0.00    -0.167 C  
HETATM    7  C   UNL     1      -8.556  11.892  66.768  1.00  0.00    -0.181 C  
HETATM    8  C   UNL     1      -9.954  11.640  66.213  1.00  0.00    -0.247 C  
HETATM    9  C   UNL     1     -10.621  10.483  66.946  1.00  0.00    -0.303 C  
HETATM   10  C   UNL     1     -10.618  10.718  68.462  1.00  0.00    -0.195 C  
BRANCH  10  11
HETATM   11  C   UNL     1     -11.529  11.913  68.841  1.00  0.00    -0.301 C  
HETATM   12  N   UNL     1     -11.300  12.375  70.129  1.00  0.00    -0.473 N  
HETATM   13  O   UNL     1     -12.411  12.334  68.094  1.00  0.00    -0.236 OA 
HETATM   14  H   UNL     1     -10.499  12.030  70.659  1.00  0.00     0.000 HD 
BRANCH  12  15
HETATM   15  C   UNL     1     -12.167  13.316  70.704  1.00  0.00    -0.338 A  
HETATM   16  C   UNL     1     -12.044  14.676  70.367  1.00  0.00    -0.383 A  
HETATM   17  C   UNL     1     -10.938  15.216  69.511  1.00  0.00    -0.279 C  
HETATM   18  C   UNL     1     -12.924  15.589  70.973  1.00  0.00    -0.550 A  
HETATM   19  C   UNL     1     -13.916  15.153  71.855  1.00  0.00    -0.629 A  
HETATM   20  C   UNL     1     -14.043  13.803  72.154  1.00  0.00    -0.604 A  
HETATM   21  C   UNL     1     -13.171  12.867  71.590  1.00  0.00    -0.416 A  
HETATM   22  C   UNL     1     -13.341  11.408  71.916  1.00  0.00    -0.409 C  
ENDBRANCH  12  15
ENDBRANCH  10  11
ENDBRANCH   4   5
ENDBRANCH   3   4
ENDBRANCH   2   3
TORSDOF 5
ENDMDL
MODEL       33
REMARK 921   NORMALIZED FREE ENERGY PREDICTED BY IDOCK:   -5.30 KCAL/MOL
REMARK 922        TOTAL FREE ENERGY PREDICTED BY IDOCK:   -7.29 KCAL/MOL
REMARK 923 INTER-LIGAND FREE ENERGY PREDICTED BY IDOCK:   -6.88 KCAL/MOL
REMARK 924 INTRA-LIGAND FREE ENERGY PREDICTED BY IDOCK:   -0.40 KCAL/MOL
REMARK 927      BINDING AFFINITY PREDICTED BY RF-SCORE:    0.00 PKD
ROOT
HETATM    1  C   UNL     1     -12.890  11.880  63.513  1.00  0.00    -0.435 C  
HETATM    2  C   UNL     1     -11.459  12.356  63.309  1.00  0.00    -0.426 C  
ENDROOT
BRANCH   2   3
HETATM    3  C   UNL     1     -10.456  11.464  64.047  1.00  0.00    -0.435 C  
BRANCH   3   4
HETATM    4  C   UNL     1     -10.191  11.912  65.494  1.00  0.00    -0.254 C  
BRANCH   4   5
HETATM    5  N   UNL     1     -10.487  13.325  65.775  1.00  0.00    -0.280 NA 
HETATM    6  C   UNL     1     -11.660  13.534  66.648  1.00  0.00    -0.363 C  
HETATM    7  C   UNL     1     -11.434  13.323  68.149  1.00  0.00    -0.347 C  
HETATM    8  C   UNL     1     -10.172  14.005  68.667  1.00  0.00    -0.233 C  
HETATM    9  C   UNL     1      -8.982  13.685  67.771  1.00  0.00    -0.196 C  
HETATM   10  C   UNL     1      -9.287  14.032  66.309  1.00  0.00    -0.175 C  
BRANCH  10  11
HETATM   11  C   UNL     1      -9.434  15.564  66.120  1.00  0.00    -0.341 C  
HETATM   12  N   UNL     1      -8.695  16.291  67.042  1.00  0.00    -0.183 N  
HETATM   13  O   UNL     1     -10.195  16.057  65.289  1.00  0.00    -0.481 OA 
HETATM   14  H   UNL     1      -8.025  15.816  67.647  1.00  0.00     0.000 HD 
BRANCH  12  15
HETATM   15  C   UNL     1      -8.867  17.679  67.143  1.00  0.00    -0.244 A  
HETATM   16  C   UNL     1      -9.931  18.197  67.905  1.00  0.00    -0.340 A  
HETATM   17  C   UNL     1     -10.991  17.341  68.528  1.00  0.00    -0.146 C  
HETATM   18  C   UNL     1     -10.076  19.593  67.972  1.00  0.00    -0.555 A  
HETATM   19  C   UNL     1      -9.171  20.442  67.330  1.00  0.00    -0.513 A  
HETATM   20  C   UNL     1      -8.110  19.915  66.606  1.00  0.00    -0.351 A  
HETATM   21  C   UNL     1      -7.945  18.531  66.497  1.00  0.00    -0.295 A  
HETATM   22  C   UNL     1      -6.776  17.985  65.721  1.00  0.00    -0.292 C  
ENDBRANCH  12  15
ENDBRANCH  10  11
ENDBRANCH   4   5
ENDBRANCH   3   4
ENDBRANCH   2   3
TORSDOF 5
ENDMDL
MODEL       34
REMARK 921   NORMALIZED FREE ENERGY PREDICTED BY IDOCK:   -5.30 KCAL/MOL
REMARK 922        TOTAL FREE ENERGY PREDICTED BY IDOCK:   -7.29 KCAL/MOL
REMARK 923 INTER-LIGAND FREE ENERGY PREDICTED BY IDOCK:   -6.93 KCAL/MOL
REMARK 924 INTRA-LIGAND FREE ENERGY PREDICTED BY IDOCK:   -0.36 KCAL/MOL
REMARK 927      BINDING AFFINITY PREDICTED BY RF-SCORE:    0.00 PKD
ROOT
HETATM    1  C   UNL     1     -10.583  19.944  65.988  1.00  0.00    -0.527 C  
HETATM    2  C   UNL     1      -9.634  20.273  67.132  1.00  0.00    -0.580 C  
ENDROOT
BRANCH   2   3
HETATM    3  C   UNL     1      -9.723  19.236  68.256  1.00  0.00    -0.459 C  
BRANCH   3   4
HETATM    4  C   UNL     1     -10.698  18.087  67.949  1.00  0.00    -0.313 C  
BRANCH   4   5
HETATM    5  N   UNL     1     -10.074  16.858  67.438  1.00  0.00    -0.272 NA 
HETATM    6  C   UNL     1      -9.024  16.302  68.316  1.00  0.00    -0.192 C  
HETATM    7  C   UNL     1      -9.510  15.504  69.531  1.00  0.00    -0.269 C  
HETATM    8  C   UNL     1     -10.600  14.494  69.188  1.00  0.00    -0.242 C  
HETATM    9  C   UNL     1     -11.693  15.148  68.351  1.00  0.00    -0.338 C  
HETATM   10  C   UNL     1     -11.101  15.827  67.110  1.00  0.00    -0.180 C  
BRANCH  10  11
HETATM   11  C   UNL     1     -10.520  14.778  66.127  1.00  0.00    -0.304 C  
HETATM   12  N   UNL     1     -11.133  13.539  66.240  1.00  0.00    -0.299 N  
HETATM   13  O   UNL     1      -9.563  15.020  65.393  1.00  0.00    -0.267 OA 
HETATM   14  H   UNL     1     -11.972  13.436  66.811  1.00  0.00     0.000 HD 
BRANCH  12  15
HETATM   15  C   UNL     1     -10.600  12.427  65.571  1.00  0.00    -0.275 A  
HETATM   16  C   UNL     1      -9.664  11.603  66.223  1.00  0.00    -0.241 A  
HETATM   17  C   UNL     1      -9.090  11.914  67.572  1.00  0.00    -0.178 C  
HETATM   18  C   UNL     1      -9.145  10.506  65.514  1.00  0.00    -0.214 A  
HETATM   19  C   UNL     1      -9.574  10.221  64.215  1.00  0.00    -0.375 A  
HETATM   20  C   UNL     1     -10.520  11.028  63.598  1.00  0.00    -0.388 A  
HETATM   21  C   UNL     1     -11.042  12.142  64.261  1.00  0.00    -0.403 A  
HETATM   22  C   UNL     1     -12.080  12.991  63.576  1.00  0.00    -0.617 C  
ENDBRANCH  12  15
ENDBRANCH  10  11
ENDBRANCH   4   5
ENDBRANCH   3   4
ENDBRANCH   2   3
TORSDOF 5
ENDMDL
MODEL       35
REMARK 921   NORMALIZED FREE ENERGY PREDICTED BY IDOCK:   -5.29 KCAL/MOL
REMARK 922        TOTAL FREE ENERGY PREDICTED BY IDOCK:   -7.28 KCAL/MOL
REMARK 923 INTER-LIGAND FREE ENERGY PREDICTED BY IDOCK:   -6.79 KCAL/MOL
REMARK 924 INTRA-LIGAND FREE ENERGY PREDICTED BY IDOCK:   -0.48 KCAL/MOL
REMARK 927      BINDING AFFINITY PREDICTED BY RF-SCORE:    0.00 PKD
ROOT
HETATM    1  C   UNL     1      -9.611  10.345  64.471  1.00  0.00    -0.369 C  
HETATM    2  C   UNL     1      -8.343  10.380  65.314  1.00  0.00    -0.166 C  
ENDROOT
BRANCH   2   3
HETATM    3  C   UNL     1      -8.641  10.767  66.766  1.00  0.00    -0.136 C  
BRANCH   3   4
HETATM    4  C   UNL     1      -7.999  12.100  67.186  1.00  0.00    -0.170 C  
BRANCH   4   5
HETATM    5  N   UNL     1      -8.918  13.068  67.803  1.00  0.00    -0.180 NA 
HETATM    6  C   UNL     1      -8.428  14.461  67.786  1.00  0.00    -0.173 C  
HETATM    7  C   UNL     1      -8.580  15.218  66.462  1.00  0.00    -0.264 C  
HETATM    8  C   UNL     1      -9.963  15.062  65.838  1.00  0.00    -0.353 C  
HETATM    9  C   UNL     1     -10.377  13.596  65.810  1.00  0.00    -0.304 C  
HETATM   10  C   UNL     1     -10.282  12.971  67.207  1.00  0.00    -0.239 C  
BRANCH  10  11
HETATM   11  C   UNL     1     -11.334  13.589  68.164  1.00  0.00    -0.286 C  
HETATM   12  N   UNL     1     -10.969  13.489  69.499  1.00  0.00    -0.452 N  
HETATM   13  O   UNL     1     -12.408  14.037  67.765  1.00  0.00    -0.249 OA 
HETATM   14  H   UNL     1     -10.030  13.179  69.748  1.00  0.00     0.000 HD 
BRANCH  12  15
HETATM   15  C   UNL     1     -11.890  13.814  70.506  1.00  0.00    -0.223 A  
HETATM   16  C   UNL     1     -12.073  15.159  70.875  1.00  0.00    -0.388 A  
HETATM   17  C   UNL     1     -11.239  16.283  70.338  1.00  0.00    -0.336 C  
HETATM   18  C   UNL     1     -12.997  15.443  71.896  1.00  0.00    -0.497 A  
HETATM   19  C   UNL     1     -13.736  14.423  72.501  1.00  0.00    -0.589 A  
HETATM   20  C   UNL     1     -13.563  13.104  72.104  1.00  0.00    -0.637 A  
HETATM   21  C   UNL     1     -12.637  12.779  71.108  1.00  0.00    -0.365 A  
HETATM   22  C   UNL     1     -12.482  11.343  70.683  1.00  0.00    -0.419 C  
ENDBRANCH  12  15
ENDBRANCH  10  11
ENDBRANCH   4   5
ENDBRANCH   3   4
ENDBRANCH   2   3
TORSDOF 5
ENDMDL
MODEL       36
REMARK 921   NORMALIZED FREE ENERGY PREDICTED BY IDOCK:   -5.27 KCAL/MOL
REMARK 922        TOTAL FREE ENERGY PREDICTED BY IDOCK:   -7.24 KCAL/MOL
REMARK 923 INTER-LIGAND FREE ENERGY PREDICTED BY IDOCK:   -6.87 KCAL/MOL
REMARK 924 INTRA-LIGAND FREE ENERGY PREDICTED BY IDOCK:   -0.38 KCAL/MOL
REMARK 927      BINDING AFFINITY PREDICTED BY RF-SCORE:    0.00 PKD
ROOT
HETATM    1  C   UNL     1      -8.044  10.932  62.530  1.00  0.00    -0.179 C  
HETATM    2  C   UNL     1      -9.470  10.527  62.877  1.00  0.00    -0.360 C  
ENDROOT
BRANCH   2   3
HETATM    3  C   UNL     1     -10.335  11.742  63.223  1.00  0.00    -0.446 C  
BRANCH   3   4
HETATM    4  C   UNL     1     -10.042  12.322  64.617  1.00  0.00    -0.250 C  
BRANCH   4   5
HETATM    5  N   UNL     1     -10.369  13.746  64.782  1.00  0.00    -0.417 NA 
HETATM    6  C   UNL     1     -11.816  14.041  64.756  1.00  0.00    -0.403 C  
HETATM    7  C   UNL     1     -12.590  13.753  66.047  1.00  0.00    -0.458 C  
HETATM    8  C   UNL     1     -11.894  14.285  67.295  1.00  0.00    -0.444 C  
HETATM    9  C   UNL     1     -10.425  13.879  67.303  1.00  0.00    -0.271 C  
HETATM   10  C   UNL     1      -9.729  14.309  66.006  1.00  0.00    -0.287 C  
BRANCH  10  11
HETATM   11  C   UNL     1      -9.640  15.853  65.909  1.00  0.00    -0.343 C  
HETATM   12  N   UNL     1      -8.822  16.407  66.884  1.00  0.00    -0.192 N  
HETATM   13  O   UNL     1     -10.298  16.503  65.098  1.00  0.00    -0.618 OA 
HETATM   14  H   UNL     1      -8.246  15.801  67.469  1.00  0.00     0.000 HD 
BRANCH  12  15
HETATM   15  C   UNL     1      -8.787  17.797  67.066  1.00  0.00    -0.252 A  
HETATM   16  C   UNL     1      -9.723  18.413  67.916  1.00  0.00    -0.325 A  
HETATM   17  C   UNL     1     -10.862  17.680  68.557  1.00  0.00    -0.075 C  
HETATM   18  C   UNL     1      -9.662  19.810  68.063  1.00  0.00    -0.505 A  
HETATM   19  C   UNL     1      -8.678  20.559  67.413  1.00  0.00    -0.373 A  
HETATM   20  C   UNL     1      -7.744  19.931  66.600  1.00  0.00    -0.310 A  
HETATM   21  C   UNL     1      -7.786  18.546  66.410  1.00  0.00    -0.291 A  
HETATM   22  C   UNL     1      -6.750  17.887  65.539  1.00  0.00    -0.069 C  
ENDBRANCH  12  15
ENDBRANCH  10  11
ENDBRANCH   4   5
ENDBRANCH   3   4
ENDBRANCH   2   3
TORSDOF 5
ENDMDL
MODEL       37
REMARK 921   NORMALIZED FREE ENERGY PREDICTED BY IDOCK:   -5.24 KCAL/MOL
REMARK 922        TOTAL FREE ENERGY PREDICTED BY IDOCK:   -7.21 KCAL/MOL
REMARK 923 INTER-LIGAND FREE ENERGY PREDICTED BY IDOCK:   -6.80 KCAL/MOL
REMARK 924 INTRA-LIGAND FREE ENERGY PREDICTED BY IDOCK:   -0.41 KCAL/MOL
REMARK 927      BINDING AFFINITY PREDICTED BY RF-SCORE:    0.00 PKD
ROOT
HETATM    1  C   UNL     1     -10.168  19.974  66.053  1.00  0.00    -0.568 C  
HETATM    2  C   UNL     1      -9.233  19.902  67.252  1.00  0.00    -0.453 C  
ENDROOT
BRANCH   2   3
HETATM    3  C   UNL     1      -9.765  18.948  68.326  1.00  0.00    -0.412 C  
BRANCH   3   4
HETATM    4  C   UNL     1     -10.693  17.856  67.767  1.00  0.00    -0.326 C  
BRANCH   4   5
HETATM    5  N   UNL     1     -10.129  16.498  67.766  1.00  0.00    -0.257 NA 
HETATM    6  C   UNL     1      -9.532  16.091  69.054  1.00  0.00    -0.243 C  
HETATM    7  C   UNL     1     -10.510  15.642  70.145  1.00  0.00    -0.316 C  
HETATM    8  C   UNL     1     -11.565  14.664  69.638  1.00  0.00    -0.349 C  
HETATM    9  C   UNL     1     -12.202  15.179  68.353  1.00  0.00     0.036 C  
HETATM   10  C   UNL     1     -11.133  15.497  67.300  1.00  0.00    -0.271 C  
BRANCH  10  11
HETATM   11  C   UNL     1     -10.425  14.206  66.818  1.00  0.00    -0.277 C  
HETATM   12  N   UNL     1     -11.314  13.174  66.550  1.00  0.00    -0.303 N  
HETATM   13  O   UNL     1      -9.200  14.104  66.767  1.00  0.00    -0.255 OA 
HETATM   14  H   UNL     1     -12.317  13.357  66.537  1.00  0.00     0.000 HD 
BRANCH  12  15
HETATM   15  C   UNL     1     -10.834  11.881  66.297  1.00  0.00    -0.282 A  
HETATM   16  C   UNL     1     -10.343  11.556  65.020  1.00  0.00    -0.333 A  
HETATM   17  C   UNL     1     -10.416  12.487  63.848  1.00  0.00    -0.464 C  
HETATM   18  C   UNL     1      -9.882  10.246  64.803  1.00  0.00    -0.403 A  
HETATM   19  C   UNL     1      -9.878   9.305  65.836  1.00  0.00    -0.335 A  
HETATM   20  C   UNL     1     -10.341   9.651  67.099  1.00  0.00    -0.319 A  
HETATM   21  C   UNL     1     -10.829  10.937  67.348  1.00  0.00    -0.333 A  
HETATM   22  C   UNL     1     -11.307  11.292  68.730  1.00  0.00    -0.335 C  
ENDBRANCH  12  15
ENDBRANCH  10  11
ENDBRANCH   4   5
ENDBRANCH   3   4
ENDBRANCH   2   3
TORSDOF 5
ENDMDL
MODEL       38
REMARK 921   NORMALIZED FREE ENERGY PREDICTED BY IDOCK:   -5.24 KCAL/MOL
REMARK 922        TOTAL FREE ENERGY PREDICTED BY IDOCK:   -7.21 KCAL/MOL
REMARK 923 INTER-LIGAND FREE ENERGY PREDICTED BY IDOCK:   -6.50 KCAL/MOL
REMARK 924 INTRA-LIGAND FREE ENERGY PREDICTED BY IDOCK:   -0.71 KCAL/MOL
REMARK 927      BINDING AFFINITY PREDICTED BY RF-SCORE:    0.00 PKD
ROOT
HETATM    1  C   UNL     1     -12.013  13.653  64.419  1.00  0.00    -0.476 C  
HETATM    2  C   UNL     1     -11.831  12.466  63.483  1.00  0.00    -0.605 C  
ENDROOT
BRANCH   2   3
HETATM    3  C   UNL     1     -10.379  11.982  63.459  1.00  0.00    -0.492 C  
BRANCH   3   4
HETATM    4  C   UNL     1     -10.172  10.636  64.174  1.00  0.00    -0.295 C  
BRANCH   4   5
HETATM    5  N   UNL     1     -10.272  10.687  65.640  1.00  0.00    -0.261 NA 
HETATM    6  C   UNL     1     -10.214   9.365  66.296  1.00  0.00    -0.214 C  
HETATM    7  C   UNL     1      -8.821   8.744  66.451  1.00  0.00    -0.175 C  
HETATM    8  C   UNL     1      -7.784   9.724  66.988  1.00  0.00    -0.095 C  
HETATM    9  C   UNL     1      -7.838  11.038  66.218  1.00  0.00    -0.141 C  
HETATM   10  C   UNL     1      -9.258  11.618  66.218  1.00  0.00    -0.217 C  
BRANCH  10  11
HETATM   11  C   UNL     1      -9.679  12.058  67.643  1.00  0.00    -0.187 C  
HETATM   12  N   UNL     1     -11.056  12.086  67.811  1.00  0.00    -0.234 N  
HETATM   13  O   UNL     1      -8.864  12.419  68.491  1.00  0.00    -0.151 OA 
HETATM   14  H   UNL     1     -11.665  11.697  67.092  1.00  0.00     0.000 HD 
BRANCH  12  15
HETATM   15  C   UNL     1     -11.611  12.650  68.969  1.00  0.00    -0.317 A  
HETATM   16  C   UNL     1     -11.937  14.019  68.992  1.00  0.00    -0.392 A  
HETATM   17  C   UNL     1     -11.605  14.963  67.877  1.00  0.00    -0.364 C  
HETATM   18  C   UNL     1     -12.481  14.548  70.175  1.00  0.00    -0.375 A  
HETATM   19  C   UNL     1     -12.725  13.732  71.282  1.00  0.00    -0.450 A  
HETATM   20  C   UNL     1     -12.424  12.377  71.233  1.00  0.00    -0.274 A  
HETATM   21  C   UNL     1     -11.860  11.818  70.083  1.00  0.00    -0.408 A  
HETATM   22  C   UNL     1     -11.560  10.343  70.048  1.00  0.00    -0.378 C  
ENDBRANCH  12  15
ENDBRANCH  10  11
ENDBRANCH   4   5
ENDBRANCH   3   4
ENDBRANCH   2   3
TORSDOF 5
ENDMDL
MODEL       39
REMARK 921   NORMALIZED FREE ENERGY PREDICTED BY IDOCK:   -5.19 KCAL/MOL
REMARK 922        TOTAL FREE ENERGY PREDICTED BY IDOCK:   -7.14 KCAL/MOL
REMARK 923 INTER-LIGAND FREE ENERGY PREDICTED BY IDOCK:   -6.54 KCAL/MOL
REMARK 924 INTRA-LIGAND FREE ENERGY PREDICTED BY IDOCK:   -0.60 KCAL/MOL
REMARK 927      BINDING AFFINITY PREDICTED BY RF-SCORE:    0.00 PKD
ROOT
HETATM    1  C   UNL     1     -12.840  11.856  63.347  1.00  0.00    -0.393 C  
HETATM    2  C   UNL     1     -12.046  13.125  63.622  1.00  0.00    -0.583 C  
ENDROOT
BRANCH   2   3
HETATM    3  C   UNL     1     -10.645  12.811  64.155  1.00  0.00    -0.441 C  
BRANCH   3   4
HETATM    4  C   UNL     1     -10.158  13.809  65.219  1.00  0.00    -0.288 C  
BRANCH   4   5
HETATM    5  N   UNL     1      -9.875  13.226  66.539  1.00  0.00    -0.275 NA 
HETATM    6  C   UNL     1      -9.546  14.219  67.581  1.00  0.00    -0.219 C  
HETATM    7  C   UNL     1     -10.731  14.963  68.207  1.00  0.00    -0.249 C  
HETATM    8  C   UNL     1     -11.878  14.039  68.602  1.00  0.00    -0.396 C  
HETATM    9  C   UNL     1     -12.224  13.094  67.457  1.00  0.00    -0.169 C  
HETATM   10  C   UNL     1     -10.982  12.329  66.982  1.00  0.00    -0.268 C  
BRANCH  10  11
HETATM   11  C   UNL     1     -10.481  11.350  68.073  1.00  0.00    -0.188 C  
HETATM   12  N   UNL     1     -11.435  10.406  68.427  1.00  0.00    -0.503 N  
HETATM   13  O   UNL     1      -9.382  11.468  68.612  1.00  0.00    -0.189 OA 
HETATM   14  H   UNL     1     -12.292  10.319  67.880  1.00  0.00     0.000 HD 
BRANCH  12  15
HETATM   15  C   UNL     1     -11.222   9.572  69.534  1.00  0.00    -0.074 A  
HETATM   16  C   UNL     1     -11.744   9.933  70.790  1.00  0.00    -0.424 A  
HETATM   17  C   UNL     1     -12.420  11.244  71.055  1.00  0.00    -0.503 C  
HETATM   18  C   UNL     1     -11.499   9.076  71.877  1.00  0.00    -0.440 A  
HETATM   19  C   UNL     1     -10.791   7.884  71.708  1.00  0.00    -0.286 A  
HETATM   20  C   UNL     1     -10.308   7.529  70.455  1.00  0.00    -0.217 A  
HETATM   21  C   UNL     1     -10.510   8.366  69.354  1.00  0.00    -0.222 A  
HETATM   22  C   UNL     1      -9.993   7.950  68.003  1.00  0.00    -0.213 C  
ENDBRANCH  12  15
ENDBRANCH  10  11
ENDBRANCH   4   5
ENDBRANCH   3   4
ENDBRANCH   2   3
TORSDOF 5
ENDMDL
MODEL       40
REMARK 921   NORMALIZED FREE ENERGY PREDICTED BY IDOCK:   -5.19 KCAL/MOL
REMARK 922        TOTAL FREE ENERGY PREDICTED BY IDOCK:   -7.14 KCAL/MOL
REMARK 923 INTER-LIGAND FREE ENERGY PREDICTED BY IDOCK:   -6.44 KCAL/MOL
REMARK 924 INTRA-LIGAND FREE ENERGY PREDICTED BY IDOCK:   -0.70 KCAL/MOL
REMARK 927      BINDING AFFINITY PREDICTED BY RF-SCORE:    0.00 PKD
ROOT
HETATM    1  C   UNL     1     -12.158  13.900  64.385  1.00  0.00    -0.477 C  
HETATM    2  C   UNL     1     -11.998  12.751  63.398  1.00  0.00    -0.613 C  
ENDROOT
BRANCH   2   3
HETATM    3  C   UNL     1     -10.564  12.212  63.388  1.00  0.00    -0.454 C  
BRANCH   3   4
HETATM    4  C   UNL     1     -10.405  10.885  64.149  1.00  0.00    -0.364 C  
BRANCH   4   5
HETATM    5  N   UNL     1     -10.494  10.992  65.614  1.00  0.00    -0.249 NA 
HETATM    6  C   UNL     1     -10.521   9.692  66.314  1.00  0.00    -0.079 C  
HETATM    7  C   UNL     1      -9.172   8.986  66.485  1.00  0.00    -0.226 C  
HETATM    8  C   UNL     1      -8.069   9.912  66.986  1.00  0.00    -0.110 C  
HETATM    9  C   UNL     1      -8.039  11.200  66.172  1.00  0.00    -0.111 C  
HETATM   10  C   UNL     1      -9.418  11.872  66.156  1.00  0.00    -0.231 C  
BRANCH  10  11
HETATM   11  C   UNL     1      -9.801  12.387  67.567  1.00  0.00    -0.194 C  
HETATM   12  N   UNL     1     -11.155  12.667  67.686  1.00  0.00    -0.250 N  
HETATM   13  O   UNL     1      -8.964  12.597  68.443  1.00  0.00    -0.187 OA 
HETATM   14  H   UNL     1     -11.799  12.392  66.945  1.00  0.00     0.000 HD 
BRANCH  12  15
HETATM   15  C   UNL     1     -11.639  13.327  68.825  1.00  0.00    -0.312 A  
HETATM   16  C   UNL     1     -12.054  12.579  69.942  1.00  0.00    -0.322 A  
HETATM   17  C   UNL     1     -12.134  11.082  69.947  1.00  0.00    -0.435 C  
HETATM   18  C   UNL     1     -12.544  13.277  71.059  1.00  0.00    -0.408 A  
HETATM   19  C   UNL     1     -12.581  14.673  71.074  1.00  0.00    -0.400 A  
HETATM   20  C   UNL     1     -12.140  15.397  69.975  1.00  0.00    -0.388 A  
HETATM   21  C   UNL     1     -11.669  14.739  68.835  1.00  0.00    -0.340 A  
HETATM   22  C   UNL     1     -11.179  15.547  67.663  1.00  0.00    -0.291 C  
ENDBRANCH  12  15
ENDBRANCH  10  11
ENDBRANCH   4   5
ENDBRANCH   3   4
ENDBRANCH   2   3
TORSDOF 5
ENDMDL
MODEL       41
REMARK 921   NORMALIZED FREE ENERGY PREDICTED BY IDOCK:   -5.19 KCAL/MOL
REMARK 922        TOTAL FREE ENERGY PREDICTED BY IDOCK:   -7.14 KCAL/MOL
REMARK 923 INTER-LIGAND FREE ENERGY PREDICTED BY IDOCK:   -6.81 KCAL/MOL
REMARK 924 INTRA-LIGAND FREE ENERGY PREDICTED BY IDOCK:   -0.32 KCAL/MOL
REMARK 927      BINDING AFFINITY PREDICTED BY RF-SCORE:    0.00 PKD
ROOT
HETATM    1  C   UNL     1      -9.732   8.420  66.330  1.00  0.00    -0.278 C  
HETATM    2  C   UNL     1      -8.641   9.463  66.130  1.00  0.00    -0.147 C  
ENDROOT
BRANCH   2   3
HETATM    3  C   UNL     1      -8.676  10.534  67.224  1.00  0.00    -0.126 C  
BRANCH   3   4
HETATM    4  C   UNL     1      -8.419  11.955  66.695  1.00  0.00    -0.143 C  
BRANCH   4   5
HETATM    5  N   UNL     1      -9.369  12.975  67.163  1.00  0.00    -0.222 NA 
HETATM    6  C   UNL     1      -9.348  14.227  66.379  1.00  0.00    -0.245 C  
HETATM    7  C   UNL     1     -10.093  14.201  65.040  1.00  0.00    -0.326 C  
HETATM    8  C   UNL     1     -11.483  13.582  65.140  1.00  0.00    -0.317 C  
HETATM    9  C   UNL     1     -11.427  12.255  65.888  1.00  0.00    -0.428 C  
HETATM   10  C   UNL     1     -10.753  12.423  67.255  1.00  0.00    -0.230 C  
BRANCH  10  11
HETATM   11  C   UNL     1     -11.620  13.293  68.200  1.00  0.00    -0.338 C  
HETATM   12  N   UNL     1     -11.150  13.301  69.505  1.00  0.00    -0.464 N  
HETATM   13  O   UNL     1     -12.657  13.841  67.827  1.00  0.00     0.053 OA 
HETATM   14  H   UNL     1     -10.242  12.891  69.722  1.00  0.00     0.000 HD 
BRANCH  12  15
HETATM   15  C   UNL     1     -11.923  13.871  70.528  1.00  0.00    -0.314 A  
HETATM   16  C   UNL     1     -12.703  13.045  71.357  1.00  0.00    -0.375 A  
HETATM   17  C   UNL     1     -12.865  11.572  71.134  1.00  0.00    -0.414 C  
HETATM   18  C   UNL     1     -13.472  13.656  72.362  1.00  0.00    -0.685 A  
HETATM   19  C   UNL     1     -13.433  15.039  72.556  1.00  0.00    -0.547 A  
HETATM   20  C   UNL     1     -12.636  15.837  71.746  1.00  0.00    -0.524 A  
HETATM   21  C   UNL     1     -11.875  15.269  70.721  1.00  0.00    -0.381 A  
HETATM   22  C   UNL     1     -11.004  16.154  69.869  1.00  0.00    -0.362 C  
ENDBRANCH  12  15
ENDBRANCH  10  11
ENDBRANCH   4   5
ENDBRANCH   3   4
ENDBRANCH   2   3
TORSDOF 5
ENDMDL
MODEL       42
REMARK 921   NORMALIZED FREE ENERGY PREDICTED BY IDOCK:   -5.15 KCAL/MOL
REMARK 922        TOTAL FREE ENERGY PREDICTED BY IDOCK:   -7.09 KCAL/MOL
REMARK 923 INTER-LIGAND FREE ENERGY PREDICTED BY IDOCK:   -7.06 KCAL/MOL
REMARK 924 INTRA-LIGAND FREE ENERGY PREDICTED BY IDOCK:   -0.03 KCAL/MOL
REMARK 927      BINDING AFFINITY PREDICTED BY RF-SCORE:    0.00 PKD
ROOT
HETATM    1  C   UNL     1     -10.894  11.470  63.455  1.00  0.00    -0.473 C  
HETATM    2  C   UNL     1     -12.301  12.037  63.595  1.00  0.00    -0.648 C  
ENDROOT
BRANCH   2   3
HETATM    3  C   UNL     1     -12.284  13.563  63.731  1.00  0.00    -0.449 C  
BRANCH   3   4
HETATM    4  C   UNL     1     -12.390  14.046  65.187  1.00  0.00    -0.453 C  
BRANCH   4   5
HETATM    5  N   UNL     1     -11.420  13.445  66.116  1.00  0.00    -0.318 NA 
HETATM    6  C   UNL     1     -10.043  13.958  65.968  1.00  0.00    -0.313 C  
HETATM    7  C   UNL     1      -9.754  15.320  66.607  1.00  0.00    -0.268 C  
HETATM    8  C   UNL     1     -10.286  15.440  68.031  1.00  0.00    -0.235 C  
HETATM    9  C   UNL     1     -11.735  14.974  68.103  1.00  0.00    -0.335 C  
HETATM   10  C   UNL     1     -11.886  13.559  67.529  1.00  0.00    -0.368 C  
BRANCH  10  11
HETATM   11  C   UNL     1     -11.164  12.517  68.422  1.00  0.00    -0.272 C  
HETATM   12  N   UNL     1     -11.871  11.330  68.540  1.00  0.00    -0.310 N  
HETATM   13  O   UNL     1     -10.117  12.770  69.017  1.00  0.00    -0.007 OA 
HETATM   14  H   UNL     1     -12.689  11.164  67.954  1.00  0.00     0.000 HD 
BRANCH  12  15
HETATM   15  C   UNL     1     -11.463  10.358  69.466  1.00  0.00    -0.246 A  
HETATM   16  C   UNL     1     -11.965  10.391  70.780  1.00  0.00    -0.462 A  
HETATM   17  C   UNL     1     -12.831  11.497  71.303  1.00  0.00    -0.463 C  
HETATM   18  C   UNL     1     -11.523   9.406  71.680  1.00  0.00    -0.463 A  
HETATM   19  C   UNL     1     -10.641   8.403  71.272  1.00  0.00    -0.279 A  
HETATM   20  C   UNL     1     -10.177   8.369  69.964  1.00  0.00    -0.202 A  
HETATM   21  C   UNL     1     -10.576   9.344  69.045  1.00  0.00    -0.233 A  
HETATM   22  C   UNL     1     -10.074   9.274  67.627  1.00  0.00    -0.266 C  
ENDBRANCH  12  15
ENDBRANCH  10  11
ENDBRANCH   4   5
ENDBRANCH   3   4
ENDBRANCH   2   3
TORSDOF 5
ENDMDL
MODEL       43
REMARK 921   NORMALIZED FREE ENERGY PREDICTED BY IDOCK:   -5.14 KCAL/MOL
REMARK 922        TOTAL FREE ENERGY PREDICTED BY IDOCK:   -7.07 KCAL/MOL
REMARK 923 INTER-LIGAND FREE ENERGY PREDICTED BY IDOCK:   -6.59 KCAL/MOL
REMARK 924 INTRA-LIGAND FREE ENERGY PREDICTED BY IDOCK:   -0.48 KCAL/MOL
REMARK 927      BINDING AFFINITY PREDICTED BY RF-SCORE:    0.00 PKD
ROOT
HETATM    1  C   UNL     1     -12.409  12.022  63.676  1.00  0.00    -0.648 C  
HETATM    2  C   UNL     1     -12.651  12.959  64.852  1.00  0.00    -0.525 C  
ENDROOT
BRANCH   2   3
HETATM    3  C   UNL     1     -12.199  14.388  64.537  1.00  0.00    -0.483 C  
BRANCH   3   4
HETATM    4  C   UNL     1     -10.713  14.640  64.845  1.00  0.00    -0.427 C  
BRANCH   4   5
HETATM    5  N   UNL     1     -10.451  15.695  65.835  1.00  0.00    -0.325 NA 
HETATM    6  C   UNL     1     -11.203  15.540  67.097  1.00  0.00    -0.204 C  
HETATM    7  C   UNL     1     -10.649  14.518  68.096  1.00  0.00    -0.238 C  
HETATM    8  C   UNL     1      -9.145  14.641  68.308  1.00  0.00    -0.189 C  
HETATM    9  C   UNL     1      -8.419  14.715  66.970  1.00  0.00    -0.237 C  
HETATM   10  C   UNL     1      -8.989  15.839  66.096  1.00  0.00    -0.337 C  
BRANCH  10  11
HETATM   11  C   UNL     1      -8.684  17.229  66.709  1.00  0.00    -0.251 C  
HETATM   12  N   UNL     1      -7.326  17.508  66.756  1.00  0.00    -0.196 N  
HETATM   13  O   UNL     1      -9.563  17.953  67.174  1.00  0.00    -0.267 OA 
HETATM   14  H   UNL     1      -6.663  16.897  66.279  1.00  0.00     0.000 HD 
BRANCH  12  15
HETATM   15  C   UNL     1      -6.863  18.631  67.459  1.00  0.00    -0.204 A  
HETATM   16  C   UNL     1      -6.807  19.881  66.817  1.00  0.00    -0.232 A  
HETATM   17  C   UNL     1      -7.099  20.074  65.360  1.00  0.00    -0.307 C  
HETATM   18  C   UNL     1      -6.326  20.979  67.552  1.00  0.00    -0.413 A  
HETATM   19  C   UNL     1      -5.949  20.839  68.890  1.00  0.00    -0.356 A  
HETATM   20  C   UNL     1      -6.037  19.603  69.516  1.00  0.00    -0.330 A  
HETATM   21  C   UNL     1      -6.489  18.483  68.812  1.00  0.00    -0.239 A  
HETATM   22  C   UNL     1      -6.592  17.158  69.519  1.00  0.00    -0.181 C  
ENDBRANCH  12  15
ENDBRANCH  10  11
ENDBRANCH   4   5
ENDBRANCH   3   4
ENDBRANCH   2   3
TORSDOF 5
ENDMDL
MODEL       44
REMARK 921   NORMALIZED FREE ENERGY PREDICTED BY IDOCK:   -5.12 KCAL/MOL
REMARK 922        TOTAL FREE ENERGY PREDICTED BY IDOCK:   -7.05 KCAL/MOL
REMARK 923 INTER-LIGAND FREE ENERGY PREDICTED BY IDOCK:   -6.43 KCAL/MOL
REMARK 924 INTRA-LIGAND FREE ENERGY PREDICTED BY IDOCK:   -0.62 KCAL/MOL
REMARK 927      BINDING AFFINITY PREDICTED BY RF-SCORE:    0.00 PKD
ROOT
HETATM    1  C   UNL     1     -10.377   2.831  72.681  1.00  0.00    -0.220 C  
HETATM    2  C   UNL     1     -10.029   3.422  74.040  1.00  0.00    -0.173 C  
ENDROOT
BRANCH   2   3
HETATM    3  C   UNL     1     -10.523   4.866  74.171  1.00  0.00    -0.335 C  
BRANCH   3   4
HETATM    4  C   UNL     1     -11.272   5.370  72.926  1.00  0.00    -0.314 C  
BRANCH   4   5
HETATM    5  N   UNL     1     -10.738   6.607  72.336  1.00  0.00    -0.215 NA 
HETATM    6  C   UNL     1      -9.445   6.438  71.643  1.00  0.00    -0.153 C  
HETATM    7  C   UNL     1      -9.504   5.836  70.235  1.00  0.00    -0.196 C  
HETATM    8  C   UNL     1     -10.574   6.473  69.355  1.00  0.00    -0.291 C  
HETATM    9  C   UNL     1     -11.904   6.545  70.096  1.00  0.00    -0.331 C  
HETATM   10  C   UNL     1     -11.743   7.257  71.445  1.00  0.00    -0.287 C  
BRANCH  10  11
HETATM   11  C   UNL     1     -11.400   8.755  71.245  1.00  0.00    -0.291 C  
HETATM   12  N   UNL     1     -12.306   9.409  70.422  1.00  0.00    -0.466 N  
HETATM   13  O   UNL     1     -10.382   9.267  71.708  1.00  0.00    -0.328 OA 
HETATM   14  H   UNL     1     -13.168   8.941  70.142  1.00  0.00     0.000 HD 
BRANCH  12  15
HETATM   15  C   UNL     1     -12.038  10.711  69.976  1.00  0.00    -0.316 A  
HETATM   16  C   UNL     1     -12.427  11.811  70.761  1.00  0.00    -0.405 A  
HETATM   17  C   UNL     1     -13.239  11.684  72.014  1.00  0.00    -0.443 C  
HETATM   18  C   UNL     1     -12.151  13.101  70.274  1.00  0.00    -0.399 A  
HETATM   19  C   UNL     1     -11.478  13.282  69.063  1.00  0.00    -0.350 A  
HETATM   20  C   UNL     1     -11.077  12.185  68.314  1.00  0.00    -0.288 A  
HETATM   21  C   UNL     1     -11.354  10.887  68.753  1.00  0.00    -0.357 A  
HETATM   22  C   UNL     1     -10.891   9.713  67.932  1.00  0.00    -0.272 C  
ENDBRANCH  12  15
ENDBRANCH  10  11
ENDBRANCH   4   5
ENDBRANCH   3   4
ENDBRANCH   2   3
TORSDOF 5
ENDMDL
MODEL       45
REMARK 921   NORMALIZED FREE ENERGY PREDICTED BY IDOCK:   -5.11 KCAL/MOL
REMARK 922        TOTAL FREE ENERGY PREDICTED BY IDOCK:   -7.04 KCAL/MOL
REMARK 923 INTER-LIGAND FREE ENERGY PREDICTED BY IDOCK:   -6.54 KCAL/MOL
REMARK 924 INTRA-LIGAND FREE ENERGY PREDICTED BY IDOCK:   -0.50 KCAL/MOL
REMARK 927      BINDING AFFINITY PREDICTED BY RF-SCORE:    0.00 PKD
ROOT
HETATM    1  C   UNL     1     -12.163  12.019  63.611  1.00  0.00    -0.642 C  
HETATM    2  C   UNL     1     -12.557  12.632  64.948  1.00  0.00    -0.525 C  
ENDROOT
BRANCH   2   3
HETATM    3  C   UNL     1     -12.409  14.157  64.936  1.00  0.00    -0.446 C  
BRANCH   3   4
HETATM    4  C   UNL     1     -10.945  14.628  64.958  1.00  0.00    -0.405 C  
BRANCH   4   5
HETATM    5  N   UNL     1     -10.617  15.596  66.015  1.00  0.00    -0.317 NA 
HETATM    6  C   UNL     1     -11.240  15.300  67.321  1.00  0.00    -0.306 C  
HETATM    7  C   UNL     1     -10.567  14.210  68.162  1.00  0.00    -0.249 C  
HETATM    8  C   UNL     1      -9.052  14.366  68.244  1.00  0.00    -0.193 C  
HETATM    9  C   UNL     1      -8.460  14.587  66.857  1.00  0.00    -0.179 C  
HETATM   10  C   UNL     1      -9.141  15.766  66.151  1.00  0.00    -0.342 C  
BRANCH  10  11
HETATM   11  C   UNL     1      -8.814  17.104  66.862  1.00  0.00    -0.235 C  
HETATM   12  N   UNL     1      -7.465  17.425  66.808  1.00  0.00    -0.200 N  
HETATM   13  O   UNL     1      -9.663  17.751  67.474  1.00  0.00    -0.273 OA 
HETATM   14  H   UNL     1      -6.837  16.884  66.214  1.00  0.00     0.000 HD 
BRANCH  12  15
HETATM   15  C   UNL     1      -6.966  18.494  67.567  1.00  0.00    -0.205 A  
HETATM   16  C   UNL     1      -6.474  18.258  68.864  1.00  0.00    -0.233 A  
HETATM   17  C   UNL     1      -6.566  16.929  69.551  1.00  0.00    -0.203 C  
HETATM   18  C   UNL     1      -5.993  19.356  69.597  1.00  0.00    -0.297 A  
HETATM   19  C   UNL     1      -5.970  20.638  69.040  1.00  0.00    -0.380 A  
HETATM   20  C   UNL     1      -6.433  20.848  67.748  1.00  0.00    -0.400 A  
HETATM   21  C   UNL     1      -6.941  19.785  66.996  1.00  0.00    -0.235 A  
HETATM   22  C   UNL     1      -7.420  20.035  65.591  1.00  0.00    -0.275 C  
ENDBRANCH  12  15
ENDBRANCH  10  11
ENDBRANCH   4   5
ENDBRANCH   3   4
ENDBRANCH   2   3
TORSDOF 5
ENDMDL
MODEL       46
REMARK 921   NORMALIZED FREE ENERGY PREDICTED BY IDOCK:   -5.11 KCAL/MOL
REMARK 922        TOTAL FREE ENERGY PREDICTED BY IDOCK:   -7.04 KCAL/MOL
REMARK 923 INTER-LIGAND FREE ENERGY PREDICTED BY IDOCK:   -6.28 KCAL/MOL
REMARK 924 INTRA-LIGAND FREE ENERGY PREDICTED BY IDOCK:   -0.76 KCAL/MOL
REMARK 927      BINDING AFFINITY PREDICTED BY RF-SCORE:    0.00 PKD
ROOT
HETATM    1  C   UNL     1     -11.703  11.249  69.249  1.00  0.00    -0.403 C  
HETATM    2  C   UNL     1     -11.243  10.558  67.973  1.00  0.00    -0.361 C  
ENDROOT
BRANCH   2   3
HETATM    3  C   UNL     1      -9.994  11.224  67.388  1.00  0.00    -0.206 C  
BRANCH   3   4
HETATM    4  C   UNL     1      -9.425  12.341  68.280  1.00  0.00    -0.209 C  
BRANCH   4   5
HETATM    5  N   UNL     1      -9.323  13.660  67.638  1.00  0.00    -0.207 NA 
HETATM    6  C   UNL     1     -10.390  13.939  66.656  1.00  0.00    -0.278 C  
HETATM    7  C   UNL     1     -11.746  14.364  67.229  1.00  0.00    -0.429 C  
HETATM    8  C   UNL     1     -11.631  15.436  68.308  1.00  0.00    -0.361 C  
HETATM    9  C   UNL     1     -10.573  15.053  69.335  1.00  0.00    -0.262 C  
HETATM   10  C   UNL     1      -9.232  14.748  68.655  1.00  0.00    -0.194 C  
BRANCH  10  11
HETATM   11  C   UNL     1      -8.625  16.028  68.024  1.00  0.00    -0.165 C  
HETATM   12  N   UNL     1      -8.751  17.141  68.843  1.00  0.00    -0.231 N  
HETATM   13  O   UNL     1      -8.163  16.047  66.885  1.00  0.00    -0.192 OA 
HETATM   14  H   UNL     1      -9.071  17.032  69.805  1.00  0.00     0.000 HD 
BRANCH  12  15
HETATM   15  C   UNL     1      -8.437  18.416  68.349  1.00  0.00    -0.326 A  
HETATM   16  C   UNL     1      -9.420  19.163  67.675  1.00  0.00    -0.363 A  
HETATM   17  C   UNL     1     -10.775  18.623  67.330  1.00  0.00    -0.456 C  
HETATM   18  C   UNL     1      -9.063  20.432  67.185  1.00  0.00    -0.489 A  
HETATM   19  C   UNL     1      -7.783  20.949  67.394  1.00  0.00    -0.262 A  
HETATM   20  C   UNL     1      -6.834  20.209  68.086  1.00  0.00    -0.326 A  
HETATM   21  C   UNL     1      -7.143  18.934  68.569  1.00  0.00    -0.306 A  
HETATM   22  C   UNL     1      -6.102  18.160  69.333  1.00  0.00    -0.250 C  
ENDBRANCH  12  15
ENDBRANCH  10  11
ENDBRANCH   4   5
ENDBRANCH   3   4
ENDBRANCH   2   3
TORSDOF 5
ENDMDL
MODEL       47
REMARK 921   NORMALIZED FREE ENERGY PREDICTED BY IDOCK:   -5.08 KCAL/MOL
REMARK 922        TOTAL FREE ENERGY PREDICTED BY IDOCK:   -7.00 KCAL/MOL
REMARK 923 INTER-LIGAND FREE ENERGY PREDICTED BY IDOCK:   -6.61 KCAL/MOL
REMARK 924 INTRA-LIGAND FREE ENERGY PREDICTED BY IDOCK:   -0.39 KCAL/MOL
REMARK 927      BINDING AFFINITY PREDICTED BY RF-SCORE:    0.00 PKD
ROOT
HETATM    1  C   UNL     1      -9.079   7.480  66.279  1.00  0.00    -0.198 C  
HETATM    2  C   UNL     1     -10.158   8.467  66.702  1.00  0.00    -0.364 C  
ENDROOT
BRANCH   2   3
HETATM    3  C   UNL     1      -9.665   9.915  66.612  1.00  0.00    -0.252 C  
BRANCH   3   4
HETATM    4  C   UNL     1     -10.091  10.625  65.316  1.00  0.00    -0.297 C  
BRANCH   4   5
HETATM    5  N   UNL     1      -9.956  12.089  65.334  1.00  0.00    -0.253 NA 
HETATM    6  C   UNL     1     -10.420  12.754  64.099  1.00  0.00    -0.413 C  
HETATM    7  C   UNL     1     -11.935  12.933  63.953  1.00  0.00    -0.550 C  
HETATM    8  C   UNL     1     -12.598  13.480  65.211  1.00  0.00    -0.517 C  
HETATM    9  C   UNL     1     -12.143  12.701  66.440  1.00  0.00    -0.330 C  
HETATM   10  C   UNL     1     -10.613  12.676  66.539  1.00  0.00    -0.253 C  
BRANCH  10  11
HETATM   11  C   UNL     1     -10.051  14.093  66.824  1.00  0.00    -0.262 C  
HETATM   12  N   UNL     1     -11.034  14.990  67.217  1.00  0.00    -0.318 N  
HETATM   13  O   UNL     1      -8.872  14.386  66.634  1.00  0.00    -0.232 OA 
HETATM   14  H   UNL     1     -11.973  14.656  67.431  1.00  0.00     0.000 HD 
BRANCH  12  15
HETATM   15  C   UNL     1     -10.736  16.357  67.321  1.00  0.00    -0.257 A  
HETATM   16  C   UNL     1     -10.722  17.158  66.165  1.00  0.00    -0.094 A  
HETATM   17  C   UNL     1     -10.884  16.610  64.780  1.00  0.00    -0.076 C  
HETATM   18  C   UNL     1     -10.408  18.521  66.310  1.00  0.00    -0.459 A  
HETATM   19  C   UNL     1     -10.153  19.070  67.570  1.00  0.00    -0.447 A  
HETATM   20  C   UNL     1     -10.199  18.270  68.704  1.00  0.00    -0.377 A  
HETATM   21  C   UNL     1     -10.485  16.906  68.598  1.00  0.00    -0.352 A  
HETATM   22  C   UNL     1     -10.547  16.064  69.845  1.00  0.00    -0.314 C  
ENDBRANCH  12  15
ENDBRANCH  10  11
ENDBRANCH   4   5
ENDBRANCH   3   4
ENDBRANCH   2   3
TORSDOF 5
ENDMDL
MODEL       48
REMARK 921   NORMALIZED FREE ENERGY PREDICTED BY IDOCK:   -5.08 KCAL/MOL
REMARK 922        TOTAL FREE ENERGY PREDICTED BY IDOCK:   -7.00 KCAL/MOL
REMARK 923 INTER-LIGAND FREE ENERGY PREDICTED BY IDOCK:   -6.41 KCAL/MOL
REMARK 924 INTRA-LIGAND FREE ENERGY PREDICTED BY IDOCK:   -0.58 KCAL/MOL
REMARK 927      BINDING AFFINITY PREDICTED BY RF-SCORE:    0.00 PKD
ROOT
HETATM    1  C   UNL     1     -12.846  11.073  71.416  1.00  0.00    -0.548 C  
HETATM    2  C   UNL     1     -12.293   9.684  71.123  1.00  0.00    -0.427 C  
ENDROOT
BRANCH   2   3
HETATM    3  C   UNL     1     -10.778   9.714  70.905  1.00  0.00    -0.402 C  
BRANCH   3   4
HETATM    4  C   UNL     1     -10.373   9.628  69.424  1.00  0.00    -0.213 C  
BRANCH   4   5
HETATM    5  N   UNL     1      -9.800  10.859  68.861  1.00  0.00    -0.197 NA 
HETATM    6  C   UNL     1      -8.802  10.630  67.796  1.00  0.00    -0.133 C  
HETATM    7  C   UNL     1      -9.357  10.299  66.406  1.00  0.00    -0.201 C  
HETATM    8  C   UNL     1     -10.489  11.225  65.976  1.00  0.00    -0.310 C  
HETATM    9  C   UNL     1     -11.526  11.356  67.085  1.00  0.00    -0.268 C  
HETATM   10  C   UNL     1     -10.871  11.792  68.401  1.00  0.00    -0.223 C  
BRANCH  10  11
HETATM   11  C   UNL     1     -10.321  13.237  68.297  1.00  0.00    -0.249 C  
HETATM   12  N   UNL     1     -11.291  14.155  67.919  1.00  0.00    -0.279 N  
HETATM   13  O   UNL     1      -9.130  13.504  68.455  1.00  0.00    -0.193 OA 
HETATM   14  H   UNL     1     -12.271  13.874  67.886  1.00  0.00     0.000 HD 
BRANCH  12  15
HETATM   15  C   UNL     1     -10.925  15.467  67.585  1.00  0.00    -0.315 A  
HETATM   16  C   UNL     1     -10.607  15.784  66.252  1.00  0.00    -0.313 A  
HETATM   17  C   UNL     1     -10.508  14.760  65.162  1.00  0.00    -0.443 C  
HETATM   18  C   UNL     1     -10.234  17.107  65.959  1.00  0.00    -0.332 A  
HETATM   19  C   UNL     1     -10.216  18.086  66.956  1.00  0.00    -0.367 A  
HETATM   20  C   UNL     1     -10.561  17.762  68.261  1.00  0.00    -0.325 A  
HETATM   21  C   UNL     1     -10.915  16.452  68.596  1.00  0.00    -0.345 A  
HETATM   22  C   UNL     1     -11.302  16.130  70.015  1.00  0.00    -0.332 C  
ENDBRANCH  12  15
ENDBRANCH  10  11
ENDBRANCH   4   5
ENDBRANCH   3   4
ENDBRANCH   2   3
TORSDOF 5
ENDMDL
MODEL       49
REMARK 921   NORMALIZED FREE ENERGY PREDICTED BY IDOCK:   -5.07 KCAL/MOL
REMARK 922        TOTAL FREE ENERGY PREDICTED BY IDOCK:   -6.99 KCAL/MOL
REMARK 923 INTER-LIGAND FREE ENERGY PREDICTED BY IDOCK:   -6.48 KCAL/MOL
REMARK 924 INTRA-LIGAND FREE ENERGY PREDICTED BY IDOCK:   -0.51 KCAL/MOL
REMARK 927      BINDING AFFINITY PREDICTED BY RF-SCORE:    0.00 PKD
ROOT
HETATM    1  C   UNL     1      -8.267   7.230  65.495  1.00  0.00    -0.139 C  
HETATM    2  C   UNL     1      -9.094   6.242  66.307  1.00  0.00    -0.166 C  
ENDROOT
BRANCH   2   3
HETATM    3  C   UNL     1     -10.362   6.893  66.867  1.00  0.00    -0.332 C  
BRANCH   3   4
HETATM    4  C   UNL     1     -10.914   6.181  68.113  1.00  0.00    -0.307 C  
BRANCH   4   5
HETATM    5  N   UNL     1     -11.221   7.061  69.251  1.00  0.00    -0.125 NA 
HETATM    6  C   UNL     1     -11.751   6.356  70.435  1.00  0.00    -0.321 C  
HETATM    7  C   UNL     1     -10.721   5.640  71.316  1.00  0.00    -0.312 C  
HETATM    8  C   UNL     1      -9.500   6.498  71.628  1.00  0.00    -0.160 C  
HETATM    9  C   UNL     1      -8.951   7.132  70.355  1.00  0.00    -0.155 C  
HETATM   10  C   UNL     1     -10.045   7.906  69.611  1.00  0.00    -0.197 C  
BRANCH  10  11
HETATM   11  C   UNL     1     -10.500   9.146  70.423  1.00  0.00    -0.223 C  
HETATM   12  N   UNL     1     -11.644   9.736  69.907  1.00  0.00    -0.424 N  
HETATM   13  O   UNL     1      -9.851   9.589  71.370  1.00  0.00    -0.200 OA 
HETATM   14  H   UNL     1     -12.171   9.266  69.170  1.00  0.00     0.000 HD 
BRANCH  12  15
HETATM   15  C   UNL     1     -12.078  10.977  70.396  1.00  0.00    -0.373 A  
HETATM   16  C   UNL     1     -11.691  12.159  69.739  1.00  0.00    -0.381 A  
HETATM   17  C   UNL     1     -10.721  12.189  68.597  1.00  0.00    -0.261 C  
HETATM   18  C   UNL     1     -12.137  13.384  70.267  1.00  0.00    -0.419 A  
HETATM   19  C   UNL     1     -12.968  13.423  71.389  1.00  0.00    -0.412 A  
HETATM   20  C   UNL     1     -13.363  12.244  72.008  1.00  0.00    -0.491 A  
HETATM   21  C   UNL     1     -12.922  11.008  71.527  1.00  0.00    -0.553 A  
HETATM   22  C   UNL     1     -13.380   9.745  72.205  1.00  0.00    -0.527 C  
ENDBRANCH  12  15
ENDBRANCH  10  11
ENDBRANCH   4   5
ENDBRANCH   3   4
ENDBRANCH   2   3
TORSDOF 5
ENDMDL
MODEL       50
REMARK 921   NORMALIZED FREE ENERGY PREDICTED BY IDOCK:   -5.07 KCAL/MOL
REMARK 922        TOTAL FREE ENERGY PREDICTED BY IDOCK:   -6.99 KCAL/MOL
REMARK 923 INTER-LIGAND FREE ENERGY PREDICTED BY IDOCK:   -7.27 KCAL/MOL
REMARK 924 INTRA-LIGAND FREE ENERGY PREDICTED BY IDOCK:    0.28 KCAL/MOL
REMARK 927      BINDING AFFINITY PREDICTED BY RF-SCORE:    0.00 PKD
ROOT
HETATM    1  C   UNL     1     -12.488   8.689  72.197  1.00  0.00    -0.453 C  
HETATM    2  C   UNL     1     -13.469   9.845  72.061  1.00  0.00    -0.478 C  
ENDROOT
BRANCH   2   3
HETATM    3  C   UNL     1     -12.798  11.089  71.471  1.00  0.00    -0.555 C  
BRANCH   3   4
HETATM    4  C   UNL     1     -13.303  12.405  72.086  1.00  0.00    -0.403 C  
BRANCH   4   5
HETATM    5  N   UNL     1     -13.420  13.529  71.146  1.00  0.00    -0.085 NA 
HETATM    6  C   UNL     1     -14.338  14.597  71.591  1.00  0.00    -0.517 C  
HETATM    7  C   UNL     1     -13.786  15.576  72.633  1.00  0.00    -0.667 C  
HETATM    8  C   UNL     1     -12.391  16.090  72.292  1.00  0.00    -0.570 C  
HETATM    9  C   UNL     1     -11.470  14.935  71.920  1.00  0.00    -0.251 C  
HETATM   10  C   UNL     1     -12.079  14.085  70.798  1.00  0.00    -0.345 C  
BRANCH  10  11
HETATM   11  C   UNL     1     -12.152  14.883  69.472  1.00  0.00    -0.279 C  
HETATM   12  N   UNL     1     -11.250  14.428  68.521  1.00  0.00    -0.253 N  
HETATM   13  O   UNL     1     -12.880  15.864  69.331  1.00  0.00     0.164 OA 
HETATM   14  H   UNL     1     -10.737  13.561  68.680  1.00  0.00     0.000 HD 
BRANCH  12  15
HETATM   15  C   UNL     1     -11.043  15.159  67.342  1.00  0.00    -0.325 A  
HETATM   16  C   UNL     1     -10.311  16.359  67.385  1.00  0.00    -0.295 A  
HETATM   17  C   UNL     1      -9.835  16.989  68.659  1.00  0.00    -0.290 C  
HETATM   18  C   UNL     1     -10.135  17.068  66.184  1.00  0.00    -0.332 A  
HETATM   19  C   UNL     1     -10.640  16.576  64.978  1.00  0.00    -0.168 A  
HETATM   20  C   UNL     1     -11.335  15.374  64.949  1.00  0.00    -0.367 A  
HETATM   21  C   UNL     1     -11.551  14.652  66.126  1.00  0.00    -0.332 A  
HETATM   22  C   UNL     1     -12.292  13.343  66.065  1.00  0.00    -0.471 C  
ENDBRANCH  12  15
ENDBRANCH  10  11
ENDBRANCH   4   5
ENDBRANCH   3   4
ENDBRANCH   2   3
TORSDOF 5
ENDMDL
MODEL       51
REMARK 921   NORMALIZED FREE ENERGY PREDICTED BY IDOCK:   -5.05 KCAL/MOL
REMARK 922        TOTAL FREE ENERGY PREDICTED BY IDOCK:   -6.96 KCAL/MOL
REMARK 923 INTER-LIGAND FREE ENERGY PREDICTED BY IDOCK:   -6.23 KCAL/MOL
REMARK 924 INTRA-LIGAND FREE ENERGY PREDICTED BY IDOCK:   -0.73 KCAL/MOL
REMARK 927      BINDING AFFINITY PREDICTED BY RF-SCORE:    0.00 PKD
ROOT
HETATM    1  C   UNL     1     -10.840  19.232  67.206  1.00  0.00    -0.554 C  
HETATM    2  C   UNL     1      -9.337  19.401  67.025  1.00  0.00    -0.393 C  
ENDROOT
BRANCH   2   3
HETATM    3  C   UNL     1      -8.689  18.128  66.473  1.00  0.00    -0.286 C  
BRANCH   3   4
HETATM    4  C   UNL     1      -9.699  17.007  66.177  1.00  0.00    -0.261 C  
BRANCH   4   5
HETATM    5  N   UNL     1      -9.397  15.712  66.805  1.00  0.00    -0.231 NA 
HETATM    6  C   UNL     1      -9.015  15.805  68.228  1.00  0.00    -0.182 C  
HETATM    7  C   UNL     1     -10.163  15.979  69.229  1.00  0.00    -0.249 C  
HETATM    8  C   UNL     1     -11.323  15.021  68.982  1.00  0.00    -0.306 C  
HETATM    9  C   UNL     1     -11.724  15.031  67.512  1.00  0.00    -0.270 C  
HETATM   10  C   UNL     1     -10.516  14.744  66.611  1.00  0.00    -0.286 C  
BRANCH  10  11
HETATM   11  C   UNL     1     -10.013  13.291  66.802  1.00  0.00    -0.263 C  
HETATM   12  N   UNL     1     -11.014  12.348  66.619  1.00  0.00    -0.257 N  
HETATM   13  O   UNL     1      -8.865  13.031  67.160  1.00  0.00    -0.203 OA 
HETATM   14  H   UNL     1     -11.919  12.632  66.244  1.00  0.00     0.000 HD 
BRANCH  12  15
HETATM   15  C   UNL     1     -10.783  11.004  66.947  1.00  0.00    -0.274 A  
HETATM   16  C   UNL     1     -10.235  10.135  65.985  1.00  0.00    -0.288 A  
HETATM   17  C   UNL     1      -9.994  10.530  64.560  1.00  0.00    -0.413 C  
HETATM   18  C   UNL     1     -10.029   8.793  66.349  1.00  0.00    -0.346 A  
HETATM   19  C   UNL     1     -10.325   8.345  67.639  1.00  0.00    -0.317 A  
HETATM   20  C   UNL     1     -10.838   9.222  68.584  1.00  0.00    -0.120 A  
HETATM   21  C   UNL     1     -11.079  10.559  68.254  1.00  0.00    -0.340 A  
HETATM   22  C   UNL     1     -11.618  11.495  69.302  1.00  0.00    -0.388 C  
ENDBRANCH  12  15
ENDBRANCH  10  11
ENDBRANCH   4   5
ENDBRANCH   3   4
ENDBRANCH   2   3
TORSDOF 5
ENDMDL
MODEL       52
REMARK 921   NORMALIZED FREE ENERGY PREDICTED BY IDOCK:   -5.04 KCAL/MOL
REMARK 922        TOTAL FREE ENERGY PREDICTED BY IDOCK:   -6.96 KCAL/MOL
REMARK 923 INTER-LIGAND FREE ENERGY PREDICTED BY IDOCK:   -6.62 KCAL/MOL
REMARK 924 INTRA-LIGAND FREE ENERGY PREDICTED BY IDOCK:   -0.34 KCAL/MOL
REMARK 927      BINDING AFFINITY PREDICTED BY RF-SCORE:    0.00 PKD
ROOT
HETATM    1  C   UNL     1      -9.367   7.619  67.658  1.00  0.00    -0.158 C  
HETATM    2  C   UNL     1     -10.035   8.363  66.509  1.00  0.00    -0.335 C  
ENDROOT
BRANCH   2   3
HETATM    3  C   UNL     1      -9.524   9.802  66.395  1.00  0.00    -0.237 C  
BRANCH   3   4
HETATM    4  C   UNL     1     -10.107  10.563  65.193  1.00  0.00    -0.314 C  
BRANCH   4   5
HETATM    5  N   UNL     1      -9.973  12.026  65.256  1.00  0.00    -0.254 NA 
HETATM    6  C   UNL     1     -10.499  12.733  64.071  1.00  0.00    -0.406 C  
HETATM    7  C   UNL     1     -12.020  12.913  64.007  1.00  0.00    -0.521 C  
HETATM    8  C   UNL     1     -12.620  13.413  65.317  1.00  0.00    -0.518 C  
HETATM    9  C   UNL     1     -12.102  12.593  66.492  1.00  0.00    -0.296 C  
HETATM   10  C   UNL     1     -10.569  12.569  66.513  1.00  0.00    -0.242 C  
BRANCH  10  11
HETATM   11  C   UNL     1      -9.995  13.975  66.819  1.00  0.00    -0.268 C  
HETATM   12  N   UNL     1     -10.974  14.886  67.188  1.00  0.00    -0.315 N  
HETATM   13  O   UNL     1      -8.806  14.252  66.664  1.00  0.00    -0.223 OA 
HETATM   14  H   UNL     1     -11.924  14.565  67.373  1.00  0.00     0.000 HD 
BRANCH  12  15
HETATM   15  C   UNL     1     -10.660  16.248  67.306  1.00  0.00    -0.298 A  
HETATM   16  C   UNL     1     -10.342  16.783  68.568  1.00  0.00    -0.316 A  
HETATM   17  C   UNL     1     -10.443  16.003  69.843  1.00  0.00    -0.287 C  
HETATM   18  C   UNL     1     -10.044  18.155  68.646  1.00  0.00    -0.406 A  
HETATM   19  C   UNL     1     -10.028  18.954  67.500  1.00  0.00    -0.399 A  
HETATM   20  C   UNL     1     -10.316  18.403  66.259  1.00  0.00    -0.440 A  
HETATM   21  C   UNL     1     -10.640  17.048  66.143  1.00  0.00    -0.194 A  
HETATM   22  C   UNL     1     -10.930  16.470  64.783  1.00  0.00    -0.192 C  
ENDBRANCH  12  15
ENDBRANCH  10  11
ENDBRANCH   4   5
ENDBRANCH   3   4
ENDBRANCH   2   3
TORSDOF 5
ENDMDL
MODEL       53
REMARK 921   NORMALIZED FREE ENERGY PREDICTED BY IDOCK:   -5.04 KCAL/MOL
REMARK 922        TOTAL FREE ENERGY PREDICTED BY IDOCK:   -6.95 KCAL/MOL
REMARK 923 INTER-LIGAND FREE ENERGY PREDICTED BY IDOCK:   -6.73 KCAL/MOL
REMARK 924 INTRA-LIGAND FREE ENERGY PREDICTED BY IDOCK:   -0.22 KCAL/MOL
REMARK 927      BINDING AFFINITY PREDICTED BY RF-SCORE:    0.00 PKD
ROOT
HETATM    1  C   UNL     1     -10.440  11.108  63.932  1.00  0.00    -0.445 C  
HETATM    2  C   UNL     1     -11.236  12.373  63.642  1.00  0.00    -0.544 C  
ENDROOT
BRANCH   2   3
HETATM    3  C   UNL     1     -12.178  12.725  64.797  1.00  0.00    -0.517 C  
BRANCH   3   4
HETATM    4  C   UNL     1     -11.445  12.997  66.122  1.00  0.00    -0.340 C  
BRANCH   4   5
HETATM    5  N   UNL     1     -11.151  14.412  66.393  1.00  0.00    -0.320 NA 
HETATM    6  C   UNL     1     -11.684  14.904  67.680  1.00  0.00    -0.307 C  
HETATM    7  C   UNL     1     -10.881  14.536  68.932  1.00  0.00    -0.262 C  
HETATM    8  C   UNL     1      -9.383  14.775  68.775  1.00  0.00    -0.198 C  
HETATM    9  C   UNL     1      -8.878  14.174  67.469  1.00  0.00    -0.202 C  
HETATM   10  C   UNL     1      -9.690  14.692  66.275  1.00  0.00    -0.307 C  
BRANCH  10  11
HETATM   11  C   UNL     1      -9.447  16.206  66.053  1.00  0.00    -0.339 C  
HETATM   12  N   UNL     1      -8.449  16.715  66.871  1.00  0.00    -0.197 N  
HETATM   13  O   UNL     1     -10.134  16.880  65.287  1.00  0.00    -0.577 OA 
HETATM   14  H   UNL     1      -7.869  16.082  67.421  1.00  0.00     0.000 HD 
BRANCH  12  15
HETATM   15  C   UNL     1      -8.237  18.100  66.944  1.00  0.00    -0.243 A  
HETATM   16  C   UNL     1      -7.168  18.680  66.236  1.00  0.00    -0.281 A  
HETATM   17  C   UNL     1      -6.141  17.880  65.494  1.00  0.00    -0.139 C  
HETATM   18  C   UNL     1      -6.982  20.069  66.344  1.00  0.00    -0.265 A  
HETATM   19  C   UNL     1      -7.855  20.855  67.101  1.00  0.00    -0.219 A  
HETATM   20  C   UNL     1      -8.922  20.270  67.769  1.00  0.00    -0.339 A  
HETATM   21  C   UNL     1      -9.126  18.888  67.706  1.00  0.00    -0.322 A  
HETATM   22  C   UNL     1     -10.301  18.281  68.425  1.00  0.00    -0.366 C  
ENDBRANCH  12  15
ENDBRANCH  10  11
ENDBRANCH   4   5
ENDBRANCH   3   4
ENDBRANCH   2   3
TORSDOF 5
ENDMDL
MODEL       54
REMARK 921   NORMALIZED FREE ENERGY PREDICTED BY IDOCK:   -4.98 KCAL/MOL
REMARK 922        TOTAL FREE ENERGY PREDICTED BY IDOCK:   -6.87 KCAL/MOL
REMARK 923 INTER-LIGAND FREE ENERGY PREDICTED BY IDOCK:   -6.23 KCAL/MOL
REMARK 924 INTRA-LIGAND FREE ENERGY PREDICTED BY IDOCK:   -0.64 KCAL/MOL
REMARK 927      BINDING AFFINITY PREDICTED BY RF-SCORE:    0.00 PKD
ROOT
HETATM    1  C   UNL     1     -10.712  19.108  67.087  1.00  0.00    -0.567 C  
HETATM    2  C   UNL     1      -9.454  19.216  67.937  1.00  0.00    -0.381 C  
ENDROOT
BRANCH   2   3
HETATM    3  C   UNL     1      -8.557  17.984  67.779  1.00  0.00    -0.244 C  
BRANCH   3   4
HETATM    4  C   UNL     1      -9.087  16.972  66.749  1.00  0.00    -0.246 C  
BRANCH   4   5
HETATM    5  N   UNL     1      -9.172  15.584  67.226  1.00  0.00    -0.205 NA 
HETATM    6  C   UNL     1      -9.845  15.433  68.532  1.00  0.00    -0.207 C  
HETATM    7  C   UNL     1     -11.376  15.480  68.515  1.00  0.00    -0.356 C  
HETATM    8  C   UNL     1     -11.991  14.613  67.421  1.00  0.00    -0.309 C  
HETATM    9  C   UNL     1     -11.310  14.874  66.083  1.00  0.00    -0.307 C  
HETATM   10  C   UNL     1      -9.790  14.697  66.197  1.00  0.00    -0.312 C  
BRANCH  10  11
HETATM   11  C   UNL     1      -9.421  13.216  66.468  1.00  0.00    -0.243 C  
HETATM   12  N   UNL     1     -10.413  12.334  66.065  1.00  0.00    -0.247 N  
HETATM   13  O   UNL     1      -8.391  12.889  67.055  1.00  0.00    -0.174 OA 
HETATM   14  H   UNL     1     -11.202  12.672  65.513  1.00  0.00     0.000 HD 
BRANCH  12  15
HETATM   15  C   UNL     1     -10.333  10.978  66.414  1.00  0.00    -0.250 A  
HETATM   16  C   UNL     1     -10.896  10.534  67.624  1.00  0.00    -0.355 A  
HETATM   17  C   UNL     1     -11.481  11.459  68.649  1.00  0.00    -0.359 C  
HETATM   18  C   UNL     1     -10.785   9.170  67.944  1.00  0.00    -0.224 A  
HETATM   19  C   UNL     1     -10.164   8.275  67.069  1.00  0.00    -0.380 A  
HETATM   20  C   UNL     1      -9.638   8.725  65.865  1.00  0.00    -0.255 A  
HETATM   21  C   UNL     1      -9.709  10.078  65.522  1.00  0.00    -0.355 A  
HETATM   22  C   UNL     1      -9.148  10.538  64.203  1.00  0.00    -0.258 C  
ENDBRANCH  12  15
ENDBRANCH  10  11
ENDBRANCH   4   5
ENDBRANCH   3   4
ENDBRANCH   2   3
TORSDOF 5
ENDMDL
MODEL       55
REMARK 921   NORMALIZED FREE ENERGY PREDICTED BY IDOCK:   -4.98 KCAL/MOL
REMARK 922        TOTAL FREE ENERGY PREDICTED BY IDOCK:   -6.87 KCAL/MOL
REMARK 923 INTER-LIGAND FREE ENERGY PREDICTED BY IDOCK:   -6.31 KCAL/MOL
REMARK 924 INTRA-LIGAND FREE ENERGY PREDICTED BY IDOCK:   -0.56 KCAL/MOL
REMARK 927      BINDING AFFINITY PREDICTED BY RF-SCORE:    0.00 PKD
ROOT
HETATM    1  C   UNL     1      -6.801  10.555  68.161  1.00  0.00    -0.072 C  
HETATM    2  C   UNL     1      -7.096  11.931  68.742  1.00  0.00    -0.111 C  
ENDROOT
BRANCH   2   3
HETATM    3  C   UNL     1      -6.939  13.034  67.691  1.00  0.00    -0.154 C  
BRANCH   3   4
HETATM    4  C   UNL     1      -8.177  13.938  67.565  1.00  0.00    -0.188 C  
BRANCH   4   5
HETATM    5  N   UNL     1      -9.385  13.438  68.239  1.00  0.00    -0.212 NA 
HETATM    6  C   UNL     1     -10.278  14.500  68.745  1.00  0.00    -0.244 C  
HETATM    7  C   UNL     1     -11.181  15.178  67.710  1.00  0.00    -0.327 C  
HETATM    8  C   UNL     1     -11.891  14.187  66.793  1.00  0.00    -0.449 C  
HETATM    9  C   UNL     1     -10.903  13.168  66.239  1.00  0.00    -0.292 C  
HETATM   10  C   UNL     1     -10.129  12.480  67.370  1.00  0.00    -0.210 C  
BRANCH  10  11
HETATM   11  C   UNL     1     -11.068  11.592  68.227  1.00  0.00    -0.234 C  
HETATM   12  N   UNL     1     -10.528  11.279  69.466  1.00  0.00    -0.442 N  
HETATM   13  O   UNL     1     -12.136  11.156  67.799  1.00  0.00    -0.606 OA 
HETATM   14  H   UNL     1      -9.677  11.743  69.782  1.00  0.00     0.000 HD 
BRANCH  12  15
HETATM   15  C   UNL     1     -11.152  10.327  70.284  1.00  0.00    -0.319 A  
HETATM   16  C   UNL     1     -10.699   8.995  70.275  1.00  0.00    -0.262 A  
HETATM   17  C   UNL     1      -9.651   8.488  69.331  1.00  0.00    -0.170 C  
HETATM   18  C   UNL     1     -11.358   8.067  71.100  1.00  0.00    -0.292 A  
HETATM   19  C   UNL     1     -12.407   8.465  71.933  1.00  0.00    -0.395 A  
HETATM   20  C   UNL     1     -12.823   9.789  71.951  1.00  0.00    -0.520 A  
HETATM   21  C   UNL     1     -12.208  10.737  71.127  1.00  0.00    -0.457 A  
HETATM   22  C   UNL     1     -12.665  12.170  71.180  1.00  0.00    -0.351 C  
ENDBRANCH  12  15
ENDBRANCH  10  11
ENDBRANCH   4   5
ENDBRANCH   3   4
ENDBRANCH   2   3
TORSDOF 5
ENDMDL
MODEL       56
REMARK 921   NORMALIZED FREE ENERGY PREDICTED BY IDOCK:   -4.98 KCAL/MOL
REMARK 922        TOTAL FREE ENERGY PREDICTED BY IDOCK:   -6.87 KCAL/MOL
REMARK 923 INTER-LIGAND FREE ENERGY PREDICTED BY IDOCK:   -6.41 KCAL/MOL
REMARK 924 INTRA-LIGAND FREE ENERGY PREDICTED BY IDOCK:   -0.46 KCAL/MOL
REMARK 927      BINDING AFFINITY PREDICTED BY RF-SCORE:    0.00 PKD
ROOT
HETATM    1  C   UNL     1      -9.117   5.443  65.822  1.00  0.00    -0.160 C  
HETATM    2  C   UNL     1     -10.530   5.206  66.335  1.00  0.00    -0.356 C  
ENDROOT
BRANCH   2   3
HETATM    3  C   UNL     1     -10.725   5.784  67.740  1.00  0.00    -0.306 C  
BRANCH   3   4
HETATM    4  C   UNL     1      -9.403   6.127  68.448  1.00  0.00    -0.116 C  
BRANCH   4   5
HETATM    5  N   UNL     1      -9.378   7.433  69.123  1.00  0.00    -0.147 NA 
HETATM    6  C   UNL     1      -8.082   8.137  69.029  1.00  0.00    -0.115 C  
HETATM    7  C   UNL     1      -7.796   8.857  67.707  1.00  0.00    -0.102 C  
HETATM    8  C   UNL     1      -8.970   9.697  67.215  1.00  0.00    -0.146 C  
HETATM    9  C   UNL     1     -10.262   8.890  67.259  1.00  0.00    -0.326 C  
HETATM   10  C   UNL     1     -10.496   8.304  68.656  1.00  0.00    -0.168 C  
BRANCH  10  11
HETATM   11  C   UNL     1     -10.776   9.424  69.690  1.00  0.00    -0.235 C  
HETATM   12  N   UNL     1     -11.958  10.106  69.436  1.00  0.00    -0.499 N  
HETATM   13  O   UNL     1      -9.980   9.714  70.582  1.00  0.00    -0.273 OA 
HETATM   14  H   UNL     1     -12.605   9.757  68.728  1.00  0.00     0.000 HD 
BRANCH  12  15
HETATM   15  C   UNL     1     -12.263  11.274  70.150  1.00  0.00    -0.330 A  
HETATM   16  C   UNL     1     -12.884  11.179  71.409  1.00  0.00    -0.544 A  
HETATM   17  C   UNL     1     -13.366   9.887  71.995  1.00  0.00    -0.532 C  
HETATM   18  C   UNL     1     -13.185  12.373  72.088  1.00  0.00    -0.491 A  
HETATM   19  C   UNL     1     -12.844  13.614  71.545  1.00  0.00    -0.445 A  
HETATM   20  C   UNL     1     -12.205  13.688  70.314  1.00  0.00    -0.423 A  
HETATM   21  C   UNL     1     -11.911  12.524  69.598  1.00  0.00    -0.382 A  
HETATM   22  C   UNL     1     -11.202  12.631  68.274  1.00  0.00    -0.312 C  
ENDBRANCH  12  15
ENDBRANCH  10  11
ENDBRANCH   4   5
ENDBRANCH   3   4
ENDBRANCH   2   3
TORSDOF 5
ENDMDL
MODEL       57
REMARK 921   NORMALIZED FREE ENERGY PREDICTED BY IDOCK:   -4.97 KCAL/MOL
REMARK 922        TOTAL FREE ENERGY PREDICTED BY IDOCK:   -6.86 KCAL/MOL
REMARK 923 INTER-LIGAND FREE ENERGY PREDICTED BY IDOCK:   -6.33 KCAL/MOL
REMARK 924 INTRA-LIGAND FREE ENERGY PREDICTED BY IDOCK:   -0.53 KCAL/MOL
REMARK 927      BINDING AFFINITY PREDICTED BY RF-SCORE:    0.00 PKD
ROOT
HETATM    1  C   UNL     1     -10.422  16.817  65.657  1.00  0.00    -0.284 C  
HETATM    2  C   UNL     1     -10.438  17.068  67.159  1.00  0.00    -0.291 C  
ENDROOT
BRANCH   2   3
HETATM    3  C   UNL     1     -11.250  16.002  67.901  1.00  0.00    -0.276 C  
BRANCH   3   4
HETATM    4  C   UNL     1     -10.418  14.774  68.307  1.00  0.00    -0.241 C  
BRANCH   4   5
HETATM    5  N   UNL     1     -11.078  13.476  68.099  1.00  0.00    -0.247 NA 
HETATM    6  C   UNL     1     -11.860  13.389  66.849  1.00  0.00    -0.403 C  
HETATM    7  C   UNL     1     -11.061  13.145  65.565  1.00  0.00    -0.299 C  
HETATM    8  C   UNL     1     -10.029  12.031  65.703  1.00  0.00    -0.270 C  
HETATM    9  C   UNL     1      -9.200  12.222  66.968  1.00  0.00    -0.205 C  
HETATM   10  C   UNL     1     -10.102  12.352  68.201  1.00  0.00    -0.224 C  
BRANCH  10  11
HETATM   11  C   UNL     1     -10.840  11.020  68.493  1.00  0.00    -0.213 C  
HETATM   12  N   UNL     1      -9.993  10.031  68.971  1.00  0.00    -0.185 N  
HETATM   13  O   UNL     1     -12.033  10.858  68.241  1.00  0.00    -0.561 OA 
HETATM   14  H   UNL     1      -9.035  10.263  69.231  1.00  0.00     0.000 HD 
BRANCH  12  15
HETATM   15  C   UNL     1     -10.453   8.712  69.097  1.00  0.00    -0.211 A  
HETATM   16  C   UNL     1     -10.431   7.855  67.981  1.00  0.00    -0.245 A  
HETATM   17  C   UNL     1     -10.055   8.308  66.602  1.00  0.00    -0.351 C  
HETATM   18  C   UNL     1     -10.911   6.545  68.145  1.00  0.00    -0.370 A  
HETATM   19  C   UNL     1     -11.363   6.095  69.388  1.00  0.00    -0.401 A  
HETATM   20  C   UNL     1     -11.352   6.945  70.486  1.00  0.00    -0.374 A  
HETATM   21  C   UNL     1     -10.904   8.263  70.357  1.00  0.00    -0.241 A  
HETATM   22  C   UNL     1     -10.884   9.159  71.567  1.00  0.00    -0.436 C  
ENDBRANCH  12  15
ENDBRANCH  10  11
ENDBRANCH   4   5
ENDBRANCH   3   4
ENDBRANCH   2   3
TORSDOF 5
ENDMDL
MODEL       58
REMARK 921   NORMALIZED FREE ENERGY PREDICTED BY IDOCK:   -4.96 KCAL/MOL
REMARK 922        TOTAL FREE ENERGY PREDICTED BY IDOCK:   -6.85 KCAL/MOL
REMARK 923 INTER-LIGAND FREE ENERGY PREDICTED BY IDOCK:   -6.47 KCAL/MOL
REMARK 924 INTRA-LIGAND FREE ENERGY PREDICTED BY IDOCK:   -0.38 KCAL/MOL
REMARK 927      BINDING AFFINITY PREDICTED BY RF-SCORE:    0.00 PKD
ROOT
HETATM    1  C   UNL     1      -9.731   9.481  65.568  1.00  0.00    -0.344 C  
HETATM    2  C   UNL     1      -9.854  10.323  64.306  1.00  0.00    -0.357 C  
ENDROOT
BRANCH   2   3
HETATM    3  C   UNL     1      -9.842  11.821  64.622  1.00  0.00    -0.230 C  
BRANCH   3   4
HETATM    4  C   UNL     1     -11.087  12.292  65.394  1.00  0.00    -0.311 C  
BRANCH   4   5
HETATM    5  N   UNL     1     -11.118  13.727  65.713  1.00  0.00    -0.288 NA 
HETATM    6  C   UNL     1     -12.150  14.106  66.698  1.00  0.00    -0.451 C  
HETATM    7  C   UNL     1     -11.819  13.826  68.168  1.00  0.00    -0.411 C  
HETATM    8  C   UNL     1     -10.419  14.280  68.565  1.00  0.00    -0.253 C  
HETATM    9  C   UNL     1      -9.389  13.790  67.553  1.00  0.00    -0.222 C  
HETATM   10  C   UNL     1      -9.771  14.216  66.130  1.00  0.00    -0.290 C  
BRANCH  10  11
HETATM   11  C   UNL     1      -9.681  15.755  65.968  1.00  0.00    -0.345 C  
HETATM   12  N   UNL     1      -8.831  16.344  66.894  1.00  0.00    -0.192 N  
HETATM   13  O   UNL     1     -10.363  16.374  65.153  1.00  0.00    -0.610 OA 
HETATM   14  H   UNL     1      -8.239  15.760  67.484  1.00  0.00     0.000 HD 
BRANCH  12  15
HETATM   15  C   UNL     1      -8.786  17.740  67.018  1.00  0.00    -0.252 A  
HETATM   16  C   UNL     1      -9.769  18.405  67.774  1.00  0.00    -0.316 A  
HETATM   17  C   UNL     1     -10.961  17.716  68.365  1.00  0.00     0.008 C  
HETATM   18  C   UNL     1      -9.695  19.806  67.865  1.00  0.00    -0.503 A  
HETATM   19  C   UNL     1      -8.656  20.513  67.254  1.00  0.00    -0.372 A  
HETATM   20  C   UNL     1      -7.679  19.837  66.535  1.00  0.00    -0.307 A  
HETATM   21  C   UNL     1      -7.731  18.447  66.402  1.00  0.00    -0.291 A  
HETATM   22  C   UNL     1      -6.648  17.737  65.633  1.00  0.00    -0.137 C  
ENDBRANCH  12  15
ENDBRANCH  10  11
ENDBRANCH   4   5
ENDBRANCH   3   4
ENDBRANCH   2   3
TORSDOF 5
ENDMDL
MODEL       59
REMARK 921   NORMALIZED FREE ENERGY PREDICTED BY IDOCK:   -4.95 KCAL/MOL
REMARK 922        TOTAL FREE ENERGY PREDICTED BY IDOCK:   -6.83 KCAL/MOL
REMARK 923 INTER-LIGAND FREE ENERGY PREDICTED BY IDOCK:   -6.26 KCAL/MOL
REMARK 924 INTRA-LIGAND FREE ENERGY PREDICTED BY IDOCK:   -0.57 KCAL/MOL
REMARK 927      BINDING AFFINITY PREDICTED BY RF-SCORE:    0.00 PKD
ROOT
HETATM    1  C   UNL     1      -9.872   3.932  71.571  1.00  0.00    -0.247 C  
HETATM    2  C   UNL     1      -9.302   4.154  70.176  1.00  0.00    -0.234 C  
ENDROOT
BRANCH   2   3
HETATM    3  C   UNL     1     -10.097   5.210  69.403  1.00  0.00    -0.305 C  
BRANCH   3   4
HETATM    4  C   UNL     1     -11.213   5.864  70.235  1.00  0.00    -0.247 C  
BRANCH   4   5
HETATM    5  N   UNL     1     -11.229   7.335  70.210  1.00  0.00    -0.273 NA 
HETATM    6  C   UNL     1     -11.976   7.950  71.326  1.00  0.00    -0.298 C  
HETATM    7  C   UNL     1     -11.249   8.019  72.673  1.00  0.00    -0.462 C  
HETATM    8  C   UNL     1      -9.818   8.533  72.556  1.00  0.00    -0.324 C  
HETATM    9  C   UNL     1      -9.075   7.803  71.443  1.00  0.00    -0.154 C  
HETATM   10  C   UNL     1      -9.846   7.888  70.120  1.00  0.00    -0.184 C  
BRANCH  10  11
HETATM   11  C   UNL     1      -9.881   9.344  69.589  1.00  0.00    -0.193 C  
HETATM   12  N   UNL     1     -11.021   9.618  68.848  1.00  0.00    -0.394 N  
HETATM   13  O   UNL     1      -8.946  10.127  69.749  1.00  0.00    -0.199 OA 
HETATM   14  H   UNL     1     -11.788   8.947  68.827  1.00  0.00     0.000 HD 
BRANCH  12  15
HETATM   15  C   UNL     1     -11.121  10.819  68.130  1.00  0.00    -0.280 A  
HETATM   16  C   UNL     1     -11.608  11.975  68.767  1.00  0.00    -0.366 A  
HETATM   17  C   UNL     1     -12.158  11.978  70.161  1.00  0.00    -0.377 C  
HETATM   18  C   UNL     1     -11.703  13.155  68.009  1.00  0.00    -0.394 A  
HETATM   19  C   UNL     1     -11.293  13.188  66.674  1.00  0.00    -0.361 A  
HETATM   20  C   UNL     1     -10.788  12.044  66.069  1.00  0.00    -0.329 A  
HETATM   21  C   UNL     1     -10.699  10.845  66.783  1.00  0.00    -0.309 A  
HETATM   22  C   UNL     1     -10.131   9.625  66.109  1.00  0.00    -0.328 C  
ENDBRANCH  12  15
ENDBRANCH  10  11
ENDBRANCH   4   5
ENDBRANCH   3   4
ENDBRANCH   2   3
TORSDOF 5
ENDMDL
MODEL       60
REMARK 921   NORMALIZED FREE ENERGY PREDICTED BY IDOCK:   -4.95 KCAL/MOL
REMARK 922        TOTAL FREE ENERGY PREDICTED BY IDOCK:   -6.83 KCAL/MOL
REMARK 923 INTER-LIGAND FREE ENERGY PREDICTED BY IDOCK:   -6.25 KCAL/MOL
REMARK 924 INTRA-LIGAND FREE ENERGY PREDICTED BY IDOCK:   -0.57 KCAL/MOL
REMARK 927      BINDING AFFINITY PREDICTED BY RF-SCORE:    0.00 PKD
ROOT
HETATM    1  C   UNL     1      -9.728   6.004  71.169  1.00  0.00    -0.206 C  
HETATM    2  C   UNL     1     -10.173   5.411  69.839  1.00  0.00    -0.351 C  
ENDROOT
BRANCH   2   3
HETATM    3  C   UNL     1     -11.072   6.378  69.062  1.00  0.00    -0.424 C  
BRANCH   3   4
HETATM    4  C   UNL     1     -10.291   7.325  68.135  1.00  0.00    -0.194 C  
BRANCH   4   5
HETATM    5  N   UNL     1     -10.742   8.724  68.150  1.00  0.00    -0.133 NA 
HETATM    6  C   UNL     1     -10.810   9.323  69.499  1.00  0.00    -0.195 C  
HETATM    7  C   UNL     1      -9.480   9.784  70.105  1.00  0.00    -0.277 C  
HETATM    8  C   UNL     1      -8.628  10.594  69.134  1.00  0.00    -0.136 C  
HETATM    9  C   UNL     1      -8.529   9.886  67.788  1.00  0.00    -0.118 C  
HETATM   10  C   UNL     1      -9.921   9.566  67.231  1.00  0.00    -0.189 C  
BRANCH  10  11
HETATM   11  C   UNL     1     -10.684  10.863  66.861  1.00  0.00    -0.264 C  
HETATM   12  N   UNL     1     -10.080  11.564  65.826  1.00  0.00    -0.227 N  
HETATM   13  O   UNL     1     -11.669  11.252  67.487  1.00  0.00    -0.574 OA 
HETATM   14  H   UNL     1      -9.314  11.140  65.303  1.00  0.00     0.000 HD 
BRANCH  12  15
HETATM   15  C   UNL     1     -10.521  12.854  65.499  1.00  0.00    -0.289 A  
HETATM   16  C   UNL     1     -11.552  13.021  64.557  1.00  0.00    -0.406 A  
HETATM   17  C   UNL     1     -12.137  11.890  63.767  1.00  0.00    -0.547 C  
HETATM   18  C   UNL     1     -11.959  14.331  64.248  1.00  0.00    -0.449 A  
HETATM   19  C   UNL     1     -11.381  15.432  64.885  1.00  0.00    -0.367 A  
HETATM   20  C   UNL     1     -10.385  15.248  65.834  1.00  0.00    -0.346 A  
HETATM   21  C   UNL     1      -9.937  13.962  66.152  1.00  0.00    -0.322 A  
HETATM   22  C   UNL     1      -8.868  13.788  67.197  1.00  0.00    -0.240 C  
ENDBRANCH  12  15
ENDBRANCH  10  11
ENDBRANCH   4   5
ENDBRANCH   3   4
ENDBRANCH   2   3
TORSDOF 5
ENDMDL
MODEL       61
REMARK 921   NORMALIZED FREE ENERGY PREDICTED BY IDOCK:   -4.94 KCAL/MOL
REMARK 922        TOTAL FREE ENERGY PREDICTED BY IDOCK:   -6.82 KCAL/MOL
REMARK 923 INTER-LIGAND FREE ENERGY PREDICTED BY IDOCK:   -6.29 KCAL/MOL
REMARK 924 INTRA-LIGAND FREE ENERGY PREDICTED BY IDOCK:   -0.53 KCAL/MOL
REMARK 927      BINDING AFFINITY PREDICTED BY RF-SCORE:    0.00 PKD
ROOT
HETATM    1  C   UNL     1     -10.541   3.598  73.468  1.00  0.00    -0.282 C  
HETATM    2  C   UNL     1     -10.648   4.857  74.317  1.00  0.00    -0.321 C  
ENDROOT
BRANCH   2   3
HETATM    3  C   UNL     1      -9.841   6.013  73.718  1.00  0.00    -0.187 C  
BRANCH   3   4
HETATM    4  C   UNL     1      -9.194   5.669  72.366  1.00  0.00    -0.144 C  
BRANCH   4   5
HETATM    5  N   UNL     1      -9.208   6.754  71.373  1.00  0.00    -0.154 NA 
HETATM    6  C   UNL     1      -8.833   6.330  70.009  1.00  0.00    -0.142 C  
HETATM    7  C   UNL     1      -9.922   5.624  69.195  1.00  0.00    -0.244 C  
HETATM    8  C   UNL     1     -11.269   6.335  69.251  1.00  0.00    -0.458 C  
HETATM    9  C   UNL     1     -11.638   6.673  70.690  1.00  0.00    -0.439 C  
HETATM   10  C   UNL     1     -10.518   7.468  71.373  1.00  0.00    -0.209 C  
BRANCH  10  11
HETATM   11  C   UNL     1     -10.367   8.873  70.737  1.00  0.00    -0.226 C  
HETATM   12  N   UNL     1     -11.461   9.232  69.961  1.00  0.00    -0.437 N  
HETATM   13  O   UNL     1      -9.343   9.544  70.853  1.00  0.00    -0.229 OA 
HETATM   14  H   UNL     1     -12.305   8.661  69.978  1.00  0.00     0.000 HD 
BRANCH  12  15
HETATM   15  C   UNL     1     -11.406  10.379  69.156  1.00  0.00    -0.226 A  
HETATM   16  C   UNL     1     -10.912  10.286  67.842  1.00  0.00    -0.350 A  
HETATM   17  C   UNL     1     -10.309   9.036  67.275  1.00  0.00    -0.342 C  
HETATM   18  C   UNL     1     -10.863  11.460  67.071  1.00  0.00    -0.331 A  
HETATM   19  C   UNL     1     -11.324  12.675  67.582  1.00  0.00    -0.362 A  
HETATM   20  C   UNL     1     -11.835  12.744  68.871  1.00  0.00    -0.351 A  
HETATM   21  C   UNL     1     -11.879  11.603  69.677  1.00  0.00    -0.419 A  
HETATM   22  C   UNL     1     -12.455  11.699  71.065  1.00  0.00    -0.436 C  
ENDBRANCH  12  15
ENDBRANCH  10  11
ENDBRANCH   4   5
ENDBRANCH   3   4
ENDBRANCH   2   3
TORSDOF 5
ENDMDL
MODEL       62
REMARK 921   NORMALIZED FREE ENERGY PREDICTED BY IDOCK:   -4.94 KCAL/MOL
REMARK 922        TOTAL FREE ENERGY PREDICTED BY IDOCK:   -6.82 KCAL/MOL
REMARK 923 INTER-LIGAND FREE ENERGY PREDICTED BY IDOCK:   -6.41 KCAL/MOL
REMARK 924 INTRA-LIGAND FREE ENERGY PREDICTED BY IDOCK:   -0.41 KCAL/MOL
REMARK 927      BINDING AFFINITY PREDICTED BY RF-SCORE:    0.00 PKD
ROOT
HETATM    1  C   UNL     1     -12.724   6.997  71.314  1.00  0.00    -0.400 C  
HETATM    2  C   UNL     1     -11.520   6.433  70.572  1.00  0.00    -0.444 C  
ENDROOT
BRANCH   2   3
HETATM    3  C   UNL     1     -10.489   7.521  70.256  1.00  0.00    -0.227 C  
BRANCH   3   4
HETATM    4  C   UNL     1     -10.520   7.983  68.790  1.00  0.00    -0.173 C  
BRANCH   4   5
HETATM    5  N   UNL     1     -10.644   9.436  68.596  1.00  0.00    -0.215 NA 
HETATM    6  C   UNL     1      -9.821  10.242  69.521  1.00  0.00    -0.220 C  
HETATM    7  C   UNL     1      -8.333  10.362  69.175  1.00  0.00    -0.160 C  
HETATM    8  C   UNL     1      -8.084  10.694  67.707  1.00  0.00    -0.111 C  
HETATM    9  C   UNL     1      -8.898   9.775  66.804  1.00  0.00    -0.151 C  
HETATM   10  C   UNL     1     -10.385   9.815  67.177  1.00  0.00    -0.248 C  
BRANCH  10  11
HETATM   11  C   UNL     1     -10.999  11.204  66.868  1.00  0.00    -0.273 C  
HETATM   12  N   UNL     1     -10.376  11.842  65.804  1.00  0.00    -0.244 N  
HETATM   13  O   UNL     1     -11.887  11.702  67.558  1.00  0.00    -0.591 OA 
HETATM   14  H   UNL     1      -9.703  11.334  65.230  1.00  0.00     0.000 HD 
BRANCH  12  15
HETATM   15  C   UNL     1     -10.670  13.183  65.518  1.00  0.00    -0.283 A  
HETATM   16  C   UNL     1      -9.948  14.207  66.157  1.00  0.00    -0.328 A  
HETATM   17  C   UNL     1      -8.946  13.956  67.243  1.00  0.00    -0.225 C  
HETATM   18  C   UNL     1     -10.281  15.539  65.852  1.00  0.00    -0.367 A  
HETATM   19  C   UNL     1     -11.274  15.835  64.915  1.00  0.00    -0.358 A  
HETATM   20  C   UNL     1     -11.957  14.811  64.273  1.00  0.00    -0.387 A  
HETATM   21  C   UNL     1     -11.671  13.474  64.566  1.00  0.00    -0.431 A  
HETATM   22  C   UNL     1     -12.413  12.383  63.842  1.00  0.00    -0.573 C  
ENDBRANCH  12  15
ENDBRANCH  10  11
ENDBRANCH   4   5
ENDBRANCH   3   4
ENDBRANCH   2   3
TORSDOF 5
ENDMDL
MODEL       63
REMARK 921   NORMALIZED FREE ENERGY PREDICTED BY IDOCK:   -4.93 KCAL/MOL
REMARK 922        TOTAL FREE ENERGY PREDICTED BY IDOCK:   -6.81 KCAL/MOL
REMARK 923 INTER-LIGAND FREE ENERGY PREDICTED BY IDOCK:   -6.42 KCAL/MOL
REMARK 924 INTRA-LIGAND FREE ENERGY PREDICTED BY IDOCK:   -0.38 KCAL/MOL
REMARK 927      BINDING AFFINITY PREDICTED BY RF-SCORE:    0.00 PKD
ROOT
HETATM    1  C   UNL     1     -10.081   4.592  71.956  1.00  0.00    -0.262 C  
HETATM    2  C   UNL     1     -10.379   5.416  70.711  1.00  0.00    -0.322 C  
ENDROOT
BRANCH   2   3
HETATM    3  C   UNL     1      -9.578   4.923  69.503  1.00  0.00    -0.240 C  
BRANCH   3   4
HETATM    4  C   UNL     1      -9.154   6.054  68.550  1.00  0.00    -0.112 C  
BRANCH   4   5
HETATM    5  N   UNL     1      -9.162   7.401  69.138  1.00  0.00    -0.147 NA 
HETATM    6  C   UNL     1      -7.929   8.176  68.892  1.00  0.00    -0.114 C  
HETATM    7  C   UNL     1      -7.798   8.822  67.508  1.00  0.00    -0.102 C  
HETATM    8  C   UNL     1      -9.061   9.552  67.066  1.00  0.00    -0.154 C  
HETATM    9  C   UNL     1     -10.289   8.672  67.268  1.00  0.00    -0.366 C  
HETATM   10  C   UNL     1     -10.371   8.167  68.714  1.00  0.00    -0.202 C  
BRANCH  10  11
HETATM   11  C   UNL     1     -10.642   9.336  69.696  1.00  0.00    -0.229 C  
HETATM   12  N   UNL     1     -11.838   9.989  69.435  1.00  0.00    -0.477 N  
HETATM   13  O   UNL     1      -9.830   9.680  70.553  1.00  0.00    -0.256 OA 
HETATM   14  H   UNL     1     -12.496   9.598  68.762  1.00  0.00     0.000 HD 
BRANCH  12  15
HETATM   15  C   UNL     1     -12.143  11.188  70.097  1.00  0.00    -0.362 A  
HETATM   16  C   UNL     1     -12.773  11.150  71.353  1.00  0.00    -0.524 A  
HETATM   17  C   UNL     1     -13.266   9.887  71.991  1.00  0.00    -0.555 C  
HETATM   18  C   UNL     1     -13.072  12.373  71.979  1.00  0.00    -0.470 A  
HETATM   19  C   UNL     1     -12.721  13.589  71.386  1.00  0.00    -0.423 A  
HETATM   20  C   UNL     1     -12.073  13.607  70.158  1.00  0.00    -0.431 A  
HETATM   21  C   UNL     1     -11.779  12.412  69.494  1.00  0.00    -0.388 A  
HETATM   22  C   UNL     1     -11.059  12.458  68.173  1.00  0.00    -0.288 C  
ENDBRANCH  12  15
ENDBRANCH  10  11
ENDBRANCH   4   5
ENDBRANCH   3   4
ENDBRANCH   2   3
TORSDOF 5
ENDMDL
MODEL       64
REMARK 921   NORMALIZED FREE ENERGY PREDICTED BY IDOCK:   -4.93 KCAL/MOL
REMARK 922        TOTAL FREE ENERGY PREDICTED BY IDOCK:   -6.80 KCAL/MOL
REMARK 923 INTER-LIGAND FREE ENERGY PREDICTED BY IDOCK:   -6.42 KCAL/MOL
REMARK 924 INTRA-LIGAND FREE ENERGY PREDICTED BY IDOCK:   -0.38 KCAL/MOL
REMARK 927      BINDING AFFINITY PREDICTED BY RF-SCORE:    0.00 PKD
ROOT
HETATM    1  C   UNL     1     -11.258  15.687  69.982  1.00  0.00    -0.332 C  
HETATM    2  C   UNL     1     -11.403  15.275  68.524  1.00  0.00    -0.337 C  
ENDROOT
BRANCH   2   3
HETATM    3  C   UNL     1     -10.048  15.238  67.810  1.00  0.00    -0.230 C  
BRANCH   3   4
HETATM    4  C   UNL     1     -10.000  14.238  66.643  1.00  0.00    -0.275 C  
BRANCH   4   5
HETATM    5  N   UNL     1     -10.770  13.002  66.847  1.00  0.00    -0.261 NA 
HETATM    6  C   UNL     1     -11.729  12.701  65.765  1.00  0.00    -0.419 C  
HETATM    7  C   UNL     1     -11.143  12.080  64.493  1.00  0.00    -0.384 C  
HETATM    8  C   UNL     1     -10.180  10.932  64.775  1.00  0.00    -0.398 C  
HETATM    9  C   UNL     1      -9.165  11.332  65.839  1.00  0.00    -0.229 C  
HETATM   10  C   UNL     1      -9.868  11.841  67.104  1.00  0.00    -0.193 C  
BRANCH  10  11
HETATM   11  C   UNL     1     -10.645  10.699  67.807  1.00  0.00    -0.236 C  
HETATM   12  N   UNL     1      -9.806   9.751  68.376  1.00  0.00    -0.149 N  
HETATM   13  O   UNL     1     -11.872  10.619  67.777  1.00  0.00    -0.460 OA 
HETATM   14  H   UNL     1      -8.803   9.927  68.431  1.00  0.00     0.000 HD 
BRANCH  12  15
HETATM   15  C   UNL     1     -10.337   8.553  68.876  1.00  0.00    -0.210 A  
HETATM   16  C   UNL     1     -10.869   8.515  70.177  1.00  0.00    -0.238 A  
HETATM   17  C   UNL     1     -10.792   9.666  71.134  1.00  0.00    -0.404 C  
HETATM   18  C   UNL     1     -11.381   7.292  70.646  1.00  0.00    -0.311 A  
HETATM   19  C   UNL     1     -11.393   6.158  69.830  1.00  0.00    -0.454 A  
HETATM   20  C   UNL     1     -10.889   6.221  68.538  1.00  0.00    -0.394 A  
HETATM   21  C   UNL     1     -10.350   7.412  68.044  1.00  0.00    -0.247 A  
HETATM   22  C   UNL     1      -9.827   7.459  66.633  1.00  0.00    -0.263 C  
ENDBRANCH  12  15
ENDBRANCH  10  11
ENDBRANCH   4   5
ENDBRANCH   3   4
ENDBRANCH   2   3
TORSDOF 5
ENDMDL
MODEL       65
REMARK 921   NORMALIZED FREE ENERGY PREDICTED BY IDOCK:   -4.92 KCAL/MOL
REMARK 922        TOTAL FREE ENERGY PREDICTED BY IDOCK:   -6.80 KCAL/MOL
REMARK 923 INTER-LIGAND FREE ENERGY PREDICTED BY IDOCK:   -6.35 KCAL/MOL
REMARK 924 INTRA-LIGAND FREE ENERGY PREDICTED BY IDOCK:   -0.44 KCAL/MOL
REMARK 927      BINDING AFFINITY PREDICTED BY RF-SCORE:    0.00 PKD
ROOT
HETATM    1  C   UNL     1      -8.526   6.370  66.365  1.00  0.00    -0.123 C  
HETATM    2  C   UNL     1      -9.881   5.679  66.301  1.00  0.00    -0.156 C  
ENDROOT
BRANCH   2   3
HETATM    3  C   UNL     1     -10.908   6.364  67.208  1.00  0.00    -0.463 C  
BRANCH   3   4
HETATM    4  C   UNL     1     -10.988   5.745  68.614  1.00  0.00    -0.126 C  
BRANCH   4   5
HETATM    5  N   UNL     1     -11.147   6.711  69.712  1.00  0.00    -0.315 NA 
HETATM    6  C   UNL     1     -11.163   6.100  71.056  1.00  0.00    -0.296 C  
HETATM    7  C   UNL     1      -9.800   5.715  71.642  1.00  0.00    -0.213 C  
HETATM    8  C   UNL     1      -8.753   6.815  71.497  1.00  0.00    -0.127 C  
HETATM    9  C   UNL     1      -8.729   7.347  70.069  1.00  0.00    -0.140 C  
HETATM   10  C   UNL     1     -10.127   7.797  69.627  1.00  0.00    -0.196 C  
BRANCH  10  11
HETATM   11  C   UNL     1     -10.592   9.038  70.431  1.00  0.00    -0.218 C  
HETATM   12  N   UNL     1     -11.737   9.620  69.905  1.00  0.00    -0.450 N  
HETATM   13  O   UNL     1      -9.951   9.489  71.379  1.00  0.00    -0.225 OA 
HETATM   14  H   UNL     1     -12.258   9.144  69.168  1.00  0.00     0.000 HD 
BRANCH  12  15
HETATM   15  C   UNL     1     -12.179  10.861  70.385  1.00  0.00    -0.365 A  
HETATM   16  C   UNL     1     -12.955  10.920  71.557  1.00  0.00    -0.556 A  
HETATM   17  C   UNL     1     -13.458   9.703  72.274  1.00  0.00    -0.488 C  
HETATM   18  C   UNL     1     -13.388  12.181  72.000  1.00  0.00    -0.470 A  
HETATM   19  C   UNL     1     -13.028  13.345  71.317  1.00  0.00    -0.368 A  
HETATM   20  C   UNL     1     -12.238  13.272  70.177  1.00  0.00    -0.376 A  
HETATM   21  C   UNL     1     -11.806  12.034  69.693  1.00  0.00    -0.401 A  
HETATM   22  C   UNL     1     -10.935  11.982  68.466  1.00  0.00    -0.280 C  
ENDBRANCH  12  15
ENDBRANCH  10  11
ENDBRANCH   4   5
ENDBRANCH   3   4
ENDBRANCH   2   3
TORSDOF 5
ENDMDL
MODEL       66
REMARK 921   NORMALIZED FREE ENERGY PREDICTED BY IDOCK:   -4.90 KCAL/MOL
REMARK 922        TOTAL FREE ENERGY PREDICTED BY IDOCK:   -6.77 KCAL/MOL
REMARK 923 INTER-LIGAND FREE ENERGY PREDICTED BY IDOCK:   -6.36 KCAL/MOL
REMARK 924 INTRA-LIGAND FREE ENERGY PREDICTED BY IDOCK:   -0.41 KCAL/MOL
REMARK 927      BINDING AFFINITY PREDICTED BY RF-SCORE:    0.00 PKD
ROOT
HETATM    1  C   UNL     1     -13.276   9.735  71.677  1.00  0.00    -0.514 C  
HETATM    2  C   UNL     1     -12.116   8.859  72.130  1.00  0.00    -0.430 C  
ENDROOT
BRANCH   2   3
HETATM    3  C   UNL     1     -11.522   8.062  70.965  1.00  0.00    -0.300 C  
BRANCH   3   4
HETATM    4  C   UNL     1     -10.078   8.465  70.622  1.00  0.00    -0.193 C  
BRANCH   4   5
HETATM    5  N   UNL     1      -9.944   9.711  69.851  1.00  0.00    -0.225 NA 
HETATM    6  C   UNL     1      -8.563  10.011  69.422  1.00  0.00    -0.175 C  
HETATM    7  C   UNL     1      -8.052   9.243  68.198  1.00  0.00    -0.107 C  
HETATM    8  C   UNL     1      -9.047   9.225  67.043  1.00  0.00    -0.153 C  
HETATM    9  C   UNL     1     -10.433   8.829  67.536  1.00  0.00    -0.340 C  
HETATM   10  C   UNL     1     -10.883   9.731  68.692  1.00  0.00    -0.188 C  
BRANCH  10  11
HETATM   11  C   UNL     1     -11.112  11.185  68.207  1.00  0.00    -0.251 C  
HETATM   12  N   UNL     1     -10.483  12.124  69.012  1.00  0.00    -0.418 N  
HETATM   13  O   UNL     1     -11.845  11.457  67.257  1.00  0.00    -0.594 OA 
HETATM   14  H   UNL     1      -9.828  11.820  69.732  1.00  0.00     0.000 HD 
BRANCH  12  15
HETATM   15  C   UNL     1     -10.748  13.490  68.836  1.00  0.00    -0.201 A  
HETATM   16  C   UNL     1     -10.081  14.205  67.824  1.00  0.00    -0.239 A  
HETATM   17  C   UNL     1      -8.988  13.619  66.984  1.00  0.00    -0.244 C  
HETATM   18  C   UNL     1     -10.365  15.575  67.688  1.00  0.00    -0.269 A  
HETATM   19  C   UNL     1     -11.308  16.199  68.509  1.00  0.00    -0.359 A  
HETATM   20  C   UNL     1     -11.978  15.472  69.483  1.00  0.00    -0.372 A  
HETATM   21  C   UNL     1     -11.706  14.113  69.666  1.00  0.00    -0.372 A  
HETATM   22  C   UNL     1     -12.459  13.342  70.717  1.00  0.00    -0.418 C  
ENDBRANCH  12  15
ENDBRANCH  10  11
ENDBRANCH   4   5
ENDBRANCH   3   4
ENDBRANCH   2   3
TORSDOF 5
ENDMDL
MODEL       67
REMARK 921   NORMALIZED FREE ENERGY PREDICTED BY IDOCK:   -4.89 KCAL/MOL
REMARK 922        TOTAL FREE ENERGY PREDICTED BY IDOCK:   -6.75 KCAL/MOL
REMARK 923 INTER-LIGAND FREE ENERGY PREDICTED BY IDOCK:   -6.25 KCAL/MOL
REMARK 924 INTRA-LIGAND FREE ENERGY PREDICTED BY IDOCK:   -0.50 KCAL/MOL
REMARK 927      BINDING AFFINITY PREDICTED BY RF-SCORE:    0.00 PKD
ROOT
HETATM    1  C   UNL     1      -9.524   4.379  69.492  1.00  0.00    -0.251 C  
HETATM    2  C   UNL     1     -10.297   5.389  70.330  1.00  0.00    -0.357 C  
ENDROOT
BRANCH   2   3
HETATM    3  C   UNL     1     -11.179   6.288  69.459  1.00  0.00    -0.500 C  
BRANCH   3   4
HETATM    4  C   UNL     1     -10.402   7.014  68.347  1.00  0.00    -0.193 C  
BRANCH   4   5
HETATM    5  N   UNL     1     -10.490   8.482  68.381  1.00  0.00    -0.200 NA 
HETATM    6  C   UNL     1     -10.758   9.041  69.722  1.00  0.00    -0.225 C  
HETATM    7  C   UNL     1      -9.559   9.128  70.672  1.00  0.00    -0.312 C  
HETATM    8  C   UNL     1      -8.315   9.718  70.016  1.00  0.00    -0.211 C  
HETATM    9  C   UNL     1      -8.045   9.045  68.676  1.00  0.00    -0.107 C  
HETATM   10  C   UNL     1      -9.281   9.108  67.770  1.00  0.00    -0.133 C  
BRANCH  10  11
HETATM   11  C   UNL     1      -9.585  10.568  67.346  1.00  0.00    -0.158 C  
HETATM   12  N   UNL     1     -10.880  10.731  66.874  1.00  0.00    -0.254 N  
HETATM   13  O   UNL     1      -8.729  11.451  67.357  1.00  0.00    -0.140 OA 
HETATM   14  H   UNL     1     -11.556   9.973  66.970  1.00  0.00     0.000 HD 
BRANCH  12  15
HETATM   15  C   UNL     1     -11.260  11.936  66.265  1.00  0.00    -0.337 A  
HETATM   16  C   UNL     1     -11.167  12.070  64.867  1.00  0.00    -0.374 A  
HETATM   17  C   UNL     1     -10.557  11.030  63.978  1.00  0.00    -0.395 C  
HETATM   18  C   UNL     1     -11.547  13.297  64.296  1.00  0.00    -0.444 A  
HETATM   19  C   UNL     1     -12.035  14.339  65.089  1.00  0.00    -0.395 A  
HETATM   20  C   UNL     1     -12.146  14.179  66.463  1.00  0.00    -0.481 A  
HETATM   21  C   UNL     1     -11.758  12.982  67.071  1.00  0.00    -0.441 A  
HETATM   22  C   UNL     1     -11.906  12.827  68.562  1.00  0.00    -0.345 C  
ENDBRANCH  12  15
ENDBRANCH  10  11
ENDBRANCH   4   5
ENDBRANCH   3   4
ENDBRANCH   2   3
TORSDOF 5
ENDMDL
MODEL       68
REMARK 921   NORMALIZED FREE ENERGY PREDICTED BY IDOCK:   -4.86 KCAL/MOL
REMARK 922        TOTAL FREE ENERGY PREDICTED BY IDOCK:   -6.72 KCAL/MOL
REMARK 923 INTER-LIGAND FREE ENERGY PREDICTED BY IDOCK:   -6.13 KCAL/MOL
REMARK 924 INTRA-LIGAND FREE ENERGY PREDICTED BY IDOCK:   -0.59 KCAL/MOL
REMARK 927      BINDING AFFINITY PREDICTED BY RF-SCORE:    0.00 PKD
ROOT
HETATM    1  C   UNL     1      -9.954   4.079  72.551  1.00  0.00    -0.222 C  
HETATM    2  C   UNL     1     -11.117   4.658  73.345  1.00  0.00    -0.418 C  
ENDROOT
BRANCH   2   3
HETATM    3  C   UNL     1     -11.919   5.668  72.518  1.00  0.00    -0.130 C  
BRANCH   3   4
HETATM    4  C   UNL     1     -11.203   6.106  71.229  1.00  0.00    -0.287 C  
BRANCH   4   5
HETATM    5  N   UNL     1     -10.986   7.554  71.096  1.00  0.00    -0.243 NA 
HETATM    6  C   UNL     1     -10.919   8.275  72.383  1.00  0.00    -0.368 C  
HETATM    7  C   UNL     1      -9.590   8.185  73.143  1.00  0.00    -0.307 C  
HETATM    8  C   UNL     1      -8.375   8.429  72.255  1.00  0.00    -0.218 C  
HETATM    9  C   UNL     1      -8.464   7.596  70.982  1.00  0.00    -0.116 C  
HETATM   10  C   UNL     1      -9.790   7.846  70.254  1.00  0.00    -0.184 C  
BRANCH  10  11
HETATM   11  C   UNL     1      -9.857   9.293  69.702  1.00  0.00    -0.186 C  
HETATM   12  N   UNL     1     -11.040   9.554  69.026  1.00  0.00    -0.432 N  
HETATM   13  O   UNL     1      -8.916  10.079  69.794  1.00  0.00    -0.207 OA 
HETATM   14  H   UNL     1     -11.806   8.882  69.060  1.00  0.00     0.000 HD 
BRANCH  12  15
HETATM   15  C   UNL     1     -11.184  10.743  68.294  1.00  0.00    -0.297 A  
HETATM   16  C   UNL     1     -10.810  10.777  66.939  1.00  0.00    -0.288 A  
HETATM   17  C   UNL     1     -10.134   9.636  66.241  1.00  0.00    -0.322 C  
HETATM   18  C   UNL     1     -10.958  11.990  66.244  1.00  0.00    -0.340 A  
HETATM   19  C   UNL     1     -11.495  13.117  66.871  1.00  0.00    -0.384 A  
HETATM   20  C   UNL     1     -11.886  13.057  68.202  1.00  0.00    -0.381 A  
HETATM   21  C   UNL     1     -11.733  11.876  68.934  1.00  0.00    -0.381 A  
HETATM   22  C   UNL     1     -12.181  11.832  70.370  1.00  0.00    -0.416 C  
ENDBRANCH  12  15
ENDBRANCH  10  11
ENDBRANCH   4   5
ENDBRANCH   3   4
ENDBRANCH   2   3
TORSDOF 5
ENDMDL
MODEL       69
REMARK 921   NORMALIZED FREE ENERGY PREDICTED BY IDOCK:   -4.85 KCAL/MOL
REMARK 922        TOTAL FREE ENERGY PREDICTED BY IDOCK:   -6.70 KCAL/MOL
REMARK 923 INTER-LIGAND FREE ENERGY PREDICTED BY IDOCK:   -6.38 KCAL/MOL
REMARK 924 INTRA-LIGAND FREE ENERGY PREDICTED BY IDOCK:   -0.33 KCAL/MOL
REMARK 927      BINDING AFFINITY PREDICTED BY RF-SCORE:    0.00 PKD
ROOT
HETATM    1  C   UNL     1     -11.439   8.795  71.856  1.00  0.00    -0.428 C  
HETATM    2  C   UNL     1     -12.588   9.791  71.770  1.00  0.00    -0.506 C  
ENDROOT
BRANCH   2   3
HETATM    3  C   UNL     1     -12.632  10.487  70.406  1.00  0.00    -0.364 C  
BRANCH   3   4
HETATM    4  C   UNL     1     -11.447  10.120  69.496  1.00  0.00    -0.168 C  
BRANCH   4   5
HETATM    5  N   UNL     1     -10.575  11.244  69.123  1.00  0.00    -0.211 NA 
HETATM    6  C   UNL     1      -9.313  10.840  68.472  1.00  0.00    -0.174 C  
HETATM    7  C   UNL     1      -9.403  10.468  66.988  1.00  0.00    -0.176 C  
HETATM    8  C   UNL     1     -10.205  11.471  66.167  1.00  0.00    -0.272 C  
HETATM    9  C   UNL     1     -11.531  11.786  66.849  1.00  0.00    -0.364 C  
HETATM   10  C   UNL     1     -11.310  12.245  68.295  1.00  0.00    -0.289 C  
BRANCH  10  11
HETATM   11  C   UNL     1     -10.588  13.616  68.339  1.00  0.00    -0.251 C  
HETATM   12  N   UNL     1     -11.418  14.671  67.987  1.00  0.00    -0.310 N  
HETATM   13  O   UNL     1      -9.386  13.723  68.580  1.00  0.00    -0.198 OA 
HETATM   14  H   UNL     1     -12.420  14.516  67.880  1.00  0.00     0.000 HD 
BRANCH  12  15
HETATM   15  C   UNL     1     -10.881  15.950  67.781  1.00  0.00    -0.324 A  
HETATM   16  C   UNL     1     -10.657  16.799  68.881  1.00  0.00    -0.350 A  
HETATM   17  C   UNL     1     -11.083  16.466  70.279  1.00  0.00    -0.267 C  
HETATM   18  C   UNL     1     -10.128  18.077  68.631  1.00  0.00    -0.401 A  
HETATM   19  C   UNL     1      -9.800  18.478  67.334  1.00  0.00    -0.330 A  
HETATM   20  C   UNL     1     -10.000  17.617  66.263  1.00  0.00    -0.324 A  
HETATM   21  C   UNL     1     -10.546  16.347  66.468  1.00  0.00    -0.235 A  
HETATM   22  C   UNL     1     -10.736  15.425  65.293  1.00  0.00    -0.439 C  
ENDBRANCH  12  15
ENDBRANCH  10  11
ENDBRANCH   4   5
ENDBRANCH   3   4
ENDBRANCH   2   3
TORSDOF 5
ENDMDL
MODEL       70
REMARK 921   NORMALIZED FREE ENERGY PREDICTED BY IDOCK:   -4.85 KCAL/MOL
REMARK 922        TOTAL FREE ENERGY PREDICTED BY IDOCK:   -6.70 KCAL/MOL
REMARK 923 INTER-LIGAND FREE ENERGY PREDICTED BY IDOCK:   -6.53 KCAL/MOL
REMARK 924 INTRA-LIGAND FREE ENERGY PREDICTED BY IDOCK:   -0.18 KCAL/MOL
REMARK 927      BINDING AFFINITY PREDICTED BY RF-SCORE:    0.00 PKD
ROOT
HETATM    1  C   UNL     1     -10.065   7.657  66.868  1.00  0.00    -0.348 C  
HETATM    2  C   UNL     1     -10.169   9.172  66.967  1.00  0.00    -0.333 C  
ENDROOT
BRANCH   2   3
HETATM    3  C   UNL     1      -9.221   9.869  65.986  1.00  0.00    -0.215 C  
BRANCH   3   4
HETATM    4  C   UNL     1      -9.944  10.516  64.793  1.00  0.00    -0.345 C  
BRANCH   4   5
HETATM    5  N   UNL     1      -9.944  11.987  64.788  1.00  0.00    -0.244 NA 
HETATM    6  C   UNL     1     -10.726  12.588  63.688  1.00  0.00    -0.430 C  
HETATM    7  C   UNL     1     -12.246  12.627  63.879  1.00  0.00    -0.565 C  
HETATM    8  C   UNL     1     -12.664  13.132  65.256  1.00  0.00    -0.457 C  
HETATM    9  C   UNL     1     -11.881  12.417  66.350  1.00  0.00    -0.421 C  
HETATM   10  C   UNL     1     -10.371  12.532  66.110  1.00  0.00    -0.253 C  
BRANCH  10  11
HETATM   11  C   UNL     1      -9.892  13.997  66.270  1.00  0.00    -0.305 C  
HETATM   12  N   UNL     1      -9.584  14.320  67.584  1.00  0.00    -0.215 N  
HETATM   13  O   UNL     1      -9.875  14.793  65.332  1.00  0.00    -0.345 OA 
HETATM   14  H   UNL     1      -9.544  13.588  68.292  1.00  0.00     0.000 HD 
BRANCH  12  15
HETATM   15  C   UNL     1      -9.327  15.653  67.939  1.00  0.00    -0.195 A  
HETATM   16  C   UNL     1      -8.035  16.183  67.773  1.00  0.00    -0.155 A  
HETATM   17  C   UNL     1      -6.855  15.361  67.350  1.00  0.00    -0.204 C  
HETATM   18  C   UNL     1      -7.816  17.519  68.151  1.00  0.00    -0.244 A  
HETATM   19  C   UNL     1      -8.859  18.307  68.642  1.00  0.00    -0.294 A  
HETATM   20  C   UNL     1     -10.135  17.777  68.773  1.00  0.00    -0.381 A  
HETATM   21  C   UNL     1     -10.388  16.445  68.429  1.00  0.00    -0.282 A  
HETATM   22  C   UNL     1     -11.785  15.900  68.563  1.00  0.00    -0.297 C  
ENDBRANCH  12  15
ENDBRANCH  10  11
ENDBRANCH   4   5
ENDBRANCH   3   4
ENDBRANCH   2   3
TORSDOF 5
ENDMDL
MODEL       71
REMARK 921   NORMALIZED FREE ENERGY PREDICTED BY IDOCK:   -4.85 KCAL/MOL
REMARK 922        TOTAL FREE ENERGY PREDICTED BY IDOCK:   -6.70 KCAL/MOL
REMARK 923 INTER-LIGAND FREE ENERGY PREDICTED BY IDOCK:   -6.38 KCAL/MOL
REMARK 924 INTRA-LIGAND FREE ENERGY PREDICTED BY IDOCK:   -0.32 KCAL/MOL
REMARK 927      BINDING AFFINITY PREDICTED BY RF-SCORE:    0.00 PKD
ROOT
HETATM    1  C   UNL     1     -11.997   7.083  71.017  1.00  0.00    -0.406 C  
HETATM    2  C   UNL     1     -11.799   8.198  72.034  1.00  0.00    -0.392 C  
ENDROOT
BRANCH   2   3
HETATM    3  C   UNL     1     -10.447   8.895  71.852  1.00  0.00    -0.415 C  
BRANCH   3   4
HETATM    4  C   UNL     1      -9.859   8.727  70.441  1.00  0.00    -0.182 C  
BRANCH   4   5
HETATM    5  N   UNL     1      -9.821   9.953  69.631  1.00  0.00    -0.219 NA 
HETATM    6  C   UNL     1      -8.514  10.219  68.996  1.00  0.00    -0.150 C  
HETATM    7  C   UNL     1      -8.200   9.417  67.729  1.00  0.00    -0.114 C  
HETATM    8  C   UNL     1      -9.355   9.394  66.733  1.00  0.00    -0.202 C  
HETATM    9  C   UNL     1     -10.660   9.034  67.433  1.00  0.00    -0.309 C  
HETATM   10  C   UNL     1     -10.920   9.967  68.622  1.00  0.00    -0.204 C  
BRANCH  10  11
HETATM   11  C   UNL     1     -11.195  11.415  68.143  1.00  0.00    -0.278 C  
HETATM   12  N   UNL     1     -10.485  12.364  68.865  1.00  0.00    -0.402 N  
HETATM   13  O   UNL     1     -12.022  11.676  67.270  1.00  0.00    -0.627 OA 
HETATM   14  H   UNL     1      -9.759  12.068  69.518  1.00  0.00     0.000 HD 
BRANCH  12  15
HETATM   15  C   UNL     1     -10.764  13.728  68.699  1.00  0.00    -0.256 A  
HETATM   16  C   UNL     1     -11.633  14.377  69.595  1.00  0.00    -0.343 A  
HETATM   17  C   UNL     1     -12.398  13.660  70.666  1.00  0.00    -0.440 C  
HETATM   18  C   UNL     1     -11.896  15.742  69.387  1.00  0.00    -0.361 A  
HETATM   19  C   UNL     1     -11.284  16.442  68.344  1.00  0.00    -0.324 A  
HETATM   20  C   UNL     1     -10.407  15.792  67.486  1.00  0.00    -0.280 A  
HETATM   21  C   UNL     1     -10.137  14.430  67.646  1.00  0.00    -0.222 A  
HETATM   22  C   UNL     1      -9.168  13.753  66.714  1.00  0.00    -0.255 C  
ENDBRANCH  12  15
ENDBRANCH  10  11
ENDBRANCH   4   5
ENDBRANCH   3   4
ENDBRANCH   2   3
TORSDOF 5
ENDMDL
MODEL       72
REMARK 921   NORMALIZED FREE ENERGY PREDICTED BY IDOCK:   -4.83 KCAL/MOL
REMARK 922        TOTAL FREE ENERGY PREDICTED BY IDOCK:   -6.67 KCAL/MOL
REMARK 923 INTER-LIGAND FREE ENERGY PREDICTED BY IDOCK:   -6.29 KCAL/MOL
REMARK 924 INTRA-LIGAND FREE ENERGY PREDICTED BY IDOCK:   -0.38 KCAL/MOL
REMARK 927      BINDING AFFINITY PREDICTED BY RF-SCORE:    0.00 PKD
ROOT
HETATM    1  C   UNL     1     -10.241  17.772  67.231  1.00  0.00    -0.350 C  
HETATM    2  C   UNL     1      -8.908  17.389  66.602  1.00  0.00    -0.278 C  
ENDROOT
BRANCH   2   3
HETATM    3  C   UNL     1      -8.873  15.908  66.212  1.00  0.00    -0.386 C  
BRANCH   3   4
HETATM    4  C   UNL     1     -10.217  15.385  65.677  1.00  0.00    -0.376 C  
BRANCH   4   5
HETATM    5  N   UNL     1     -10.719  14.169  66.334  1.00  0.00    -0.286 NA 
HETATM    6  C   UNL     1     -12.188  14.119  66.473  1.00  0.00    -0.433 C  
HETATM    7  C   UNL     1     -12.975  13.722  65.219  1.00  0.00    -0.328 C  
HETATM    8  C   UNL     1     -12.400  12.500  64.513  1.00  0.00    -0.545 C  
HETATM    9  C   UNL     1     -10.895  12.647  64.326  1.00  0.00    -0.411 C  
HETATM   10  C   UNL     1     -10.202  12.941  65.662  1.00  0.00    -0.285 C  
BRANCH  10  11
HETATM   11  C   UNL     1     -10.294  11.723  66.616  1.00  0.00    -0.218 C  
HETATM   12  N   UNL     1      -9.964  12.041  67.926  1.00  0.00    -0.192 N  
HETATM   13  O   UNL     1     -10.553  10.589  66.216  1.00  0.00    -0.212 OA 
HETATM   14  H   UNL     1      -9.839  13.017  68.197  1.00  0.00     0.000 HD 
BRANCH  12  15
HETATM   15  C   UNL     1      -9.802  11.024  68.877  1.00  0.00    -0.177 A  
HETATM   16  C   UNL     1     -10.870  10.689  69.729  1.00  0.00    -0.317 A  
HETATM   17  C   UNL     1     -12.159  11.452  69.774  1.00  0.00    -0.388 C  
HETATM   18  C   UNL     1     -10.664   9.671  70.677  1.00  0.00    -0.388 A  
HETATM   19  C   UNL     1      -9.447   8.988  70.745  1.00  0.00    -0.308 A  
HETATM   20  C   UNL     1      -8.413   9.312  69.877  1.00  0.00    -0.170 A  
HETATM   21  C   UNL     1      -8.571  10.334  68.937  1.00  0.00    -0.150 A  
HETATM   22  C   UNL     1      -7.441  10.653  67.994  1.00  0.00    -0.090 C  
ENDBRANCH  12  15
ENDBRANCH  10  11
ENDBRANCH   4   5
ENDBRANCH   3   4
ENDBRANCH   2   3
TORSDOF 5
ENDMDL
MODEL       73
REMARK 921   NORMALIZED FREE ENERGY PREDICTED BY IDOCK:   -4.82 KCAL/MOL
REMARK 922        TOTAL FREE ENERGY PREDICTED BY IDOCK:   -6.67 KCAL/MOL
REMARK 923 INTER-LIGAND FREE ENERGY PREDICTED BY IDOCK:   -6.36 KCAL/MOL
REMARK 924 INTRA-LIGAND FREE ENERGY PREDICTED BY IDOCK:   -0.31 KCAL/MOL
REMARK 927      BINDING AFFINITY PREDICTED BY RF-SCORE:    0.00 PKD
ROOT
HETATM    1  C   UNL     1      -8.116   8.565  63.521  1.00  0.00    -0.155 C  
HETATM    2  C   UNL     1      -8.374   9.961  64.073  1.00  0.00    -0.168 C  
ENDROOT
BRANCH   2   3
HETATM    3  C   UNL     1      -9.872  10.268  64.154  1.00  0.00    -0.319 C  
BRANCH   3   4
HETATM    4  C   UNL     1     -10.281  10.974  65.457  1.00  0.00    -0.268 C  
BRANCH   4   5
HETATM    5  N   UNL     1     -10.111  12.435  65.455  1.00  0.00    -0.267 NA 
HETATM    6  C   UNL     1     -10.588  13.097  64.224  1.00  0.00    -0.412 C  
HETATM    7  C   UNL     1     -12.101  13.310  64.110  1.00  0.00    -0.494 C  
HETATM    8  C   UNL     1     -12.722  13.887  65.378  1.00  0.00    -0.525 C  
HETATM    9  C   UNL     1     -12.257  13.111  66.604  1.00  0.00    -0.331 C  
HETATM   10  C   UNL     1     -10.726  13.051  66.668  1.00  0.00    -0.274 C  
BRANCH  10  11
HETATM   11  C   UNL     1     -10.124  14.456  66.923  1.00  0.00    -0.259 C  
HETATM   12  N   UNL     1     -11.077  15.385  67.316  1.00  0.00    -0.322 N  
HETATM   13  O   UNL     1      -8.940  14.716  66.713  1.00  0.00    -0.246 OA 
HETATM   14  H   UNL     1     -12.022  15.078  67.548  1.00  0.00     0.000 HD 
BRANCH  12  15
HETATM   15  C   UNL     1     -10.743  16.745  67.396  1.00  0.00    -0.244 A  
HETATM   16  C   UNL     1     -10.650  17.510  66.219  1.00  0.00    -0.198 A  
HETATM   17  C   UNL     1     -10.764  16.925  64.844  1.00  0.00     0.045 C  
HETATM   18  C   UNL     1     -10.302  18.867  66.340  1.00  0.00    -0.503 A  
HETATM   19  C   UNL     1     -10.090  19.446  67.594  1.00  0.00    -0.505 A  
HETATM   20  C   UNL     1     -10.214  18.682  68.746  1.00  0.00    -0.316 A  
HETATM   21  C   UNL     1     -10.536  17.324  68.666  1.00  0.00    -0.329 A  
HETATM   22  C   UNL     1     -10.683  16.523  69.932  1.00  0.00    -0.269 C  
ENDBRANCH  12  15
ENDBRANCH  10  11
ENDBRANCH   4   5
ENDBRANCH   3   4
ENDBRANCH   2   3
TORSDOF 5
ENDMDL
MODEL       74
REMARK 921   NORMALIZED FREE ENERGY PREDICTED BY IDOCK:   -4.82 KCAL/MOL
REMARK 922        TOTAL FREE ENERGY PREDICTED BY IDOCK:   -6.66 KCAL/MOL
REMARK 923 INTER-LIGAND FREE ENERGY PREDICTED BY IDOCK:   -6.17 KCAL/MOL
REMARK 924 INTRA-LIGAND FREE ENERGY PREDICTED BY IDOCK:   -0.50 KCAL/MOL
REMARK 927      BINDING AFFINITY PREDICTED BY RF-SCORE:    0.00 PKD
ROOT
HETATM    1  C   UNL     1      -9.436   4.883  65.798  1.00  0.00    -0.172 C  
HETATM    2  C   UNL     1     -10.277   5.200  67.027  1.00  0.00    -0.265 C  
ENDROOT
BRANCH   2   3
HETATM    3  C   UNL     1     -10.775   6.648  67.014  1.00  0.00    -0.437 C  
BRANCH   3   4
HETATM    4  C   UNL     1     -10.476   7.408  68.317  1.00  0.00    -0.189 C  
BRANCH   4   5
HETATM    5  N   UNL     1     -10.767   8.849  68.280  1.00  0.00    -0.139 NA 
HETATM    6  C   UNL     1     -10.468   9.559  69.540  1.00  0.00    -0.220 C  
HETATM    7  C   UNL     1      -8.995   9.901  69.792  1.00  0.00    -0.242 C  
HETATM    8  C   UNL     1      -8.307  10.519  68.579  1.00  0.00    -0.129 C  
HETATM    9  C   UNL     1      -8.587   9.696  67.327  1.00  0.00    -0.132 C  
HETATM   10  C   UNL     1     -10.095   9.505  67.121  1.00  0.00    -0.229 C  
BRANCH  10  11
HETATM   11  C   UNL     1     -10.785  10.852  66.787  1.00  0.00    -0.252 C  
HETATM   12  N   UNL     1     -10.212  11.494  65.698  1.00  0.00    -0.238 N  
HETATM   13  O   UNL     1     -11.688  11.321  67.479  1.00  0.00    -0.574 OA 
HETATM   14  H   UNL     1      -9.523  11.007  65.125  1.00  0.00     0.000 HD 
BRANCH  12  15
HETATM   15  C   UNL     1     -10.581  12.810  65.383  1.00  0.00    -0.287 A  
HETATM   16  C   UNL     1      -9.894  13.887  65.972  1.00  0.00    -0.306 A  
HETATM   17  C   UNL     1      -8.852  13.717  67.036  1.00  0.00    -0.233 C  
HETATM   18  C   UNL     1     -10.301  15.190  65.640  1.00  0.00    -0.379 A  
HETATM   19  C   UNL     1     -11.333  15.410  64.724  1.00  0.00    -0.381 A  
HETATM   20  C   UNL     1     -11.982  14.335  64.130  1.00  0.00    -0.401 A  
HETATM   21  C   UNL     1     -11.621  13.023  64.453  1.00  0.00    -0.418 A  
HETATM   22  C   UNL     1     -12.328  11.876  63.781  1.00  0.00    -0.541 C  
ENDBRANCH  12  15
ENDBRANCH  10  11
ENDBRANCH   4   5
ENDBRANCH   3   4
ENDBRANCH   2   3
TORSDOF 5
ENDMDL
MODEL       75
REMARK 921   NORMALIZED FREE ENERGY PREDICTED BY IDOCK:   -4.82 KCAL/MOL
REMARK 922        TOTAL FREE ENERGY PREDICTED BY IDOCK:   -6.66 KCAL/MOL
REMARK 923 INTER-LIGAND FREE ENERGY PREDICTED BY IDOCK:   -6.01 KCAL/MOL
REMARK 924 INTRA-LIGAND FREE ENERGY PREDICTED BY IDOCK:   -0.65 KCAL/MOL
REMARK 927      BINDING AFFINITY PREDICTED BY RF-SCORE:    0.00 PKD
ROOT
HETATM    1  C   UNL     1     -11.171   6.472  71.260  1.00  0.00    -0.338 C  
HETATM    2  C   UNL     1     -11.847   7.612  72.010  1.00  0.00    -0.342 C  
ENDROOT
BRANCH   2   3
HETATM    3  C   UNL     1     -11.095   8.934  71.825  1.00  0.00    -0.433 C  
BRANCH   3   4
HETATM    4  C   UNL     1      -9.681   8.756  71.249  1.00  0.00    -0.265 C  
BRANCH   4   5
HETATM    5  N   UNL     1      -9.331   9.677  70.157  1.00  0.00    -0.245 NA 
HETATM    6  C   UNL     1      -8.085   9.327  69.446  1.00  0.00    -0.108 C  
HETATM    7  C   UNL     1      -8.189   8.201  68.411  1.00  0.00    -0.129 C  
HETATM    8  C   UNL     1      -9.387   8.351  67.480  1.00  0.00    -0.172 C  
HETATM    9  C   UNL     1     -10.655   8.630  68.279  1.00  0.00    -0.181 C  
HETATM   10  C   UNL     1     -10.467   9.839  69.203  1.00  0.00    -0.215 C  
BRANCH  10  11
HETATM   11  C   UNL     1     -10.303  11.145  68.385  1.00  0.00    -0.186 C  
HETATM   12  N   UNL     1     -11.296  11.308  67.430  1.00  0.00    -0.299 N  
HETATM   13  O   UNL     1      -9.341  11.898  68.528  1.00  0.00    -0.196 OA 
HETATM   14  H   UNL     1     -12.104  10.686  67.424  1.00  0.00     0.000 HD 
BRANCH  12  15
HETATM   15  C   UNL     1     -11.190  12.328  66.472  1.00  0.00    -0.324 A  
HETATM   16  C   UNL     1     -10.720  12.026  65.181  1.00  0.00    -0.332 A  
HETATM   17  C   UNL     1     -10.193  10.679  64.790  1.00  0.00    -0.401 C  
HETATM   18  C   UNL     1     -10.618  13.077  64.254  1.00  0.00    -0.434 A  
HETATM   19  C   UNL     1     -11.006  14.376  64.593  1.00  0.00    -0.367 A  
HETATM   20  C   UNL     1     -11.495  14.650  65.863  1.00  0.00    -0.338 A  
HETATM   21  C   UNL     1     -11.590  13.636  66.821  1.00  0.00    -0.393 A  
HETATM   22  C   UNL     1     -12.141  13.956  68.185  1.00  0.00    -0.317 C  
ENDBRANCH  12  15
ENDBRANCH  10  11
ENDBRANCH   4   5
ENDBRANCH   3   4
ENDBRANCH   2   3
TORSDOF 5
ENDMDL
MODEL       76
REMARK 921   NORMALIZED FREE ENERGY PREDICTED BY IDOCK:   -4.80 KCAL/MOL
REMARK 922        TOTAL FREE ENERGY PREDICTED BY IDOCK:   -6.64 KCAL/MOL
REMARK 923 INTER-LIGAND FREE ENERGY PREDICTED BY IDOCK:   -6.20 KCAL/MOL
REMARK 924 INTRA-LIGAND FREE ENERGY PREDICTED BY IDOCK:   -0.44 KCAL/MOL
REMARK 927      BINDING AFFINITY PREDICTED BY RF-SCORE:    0.00 PKD
ROOT
HETATM    1  C   UNL     1     -13.238   9.334  72.186  1.00  0.00    -0.535 C  
HETATM    2  C   UNL     1     -11.910   8.592  72.244  1.00  0.00    -0.436 C  
ENDROOT
BRANCH   2   3
HETATM    3  C   UNL     1     -11.610   7.866  70.929  1.00  0.00    -0.286 C  
BRANCH   3   4
HETATM    4  C   UNL     1     -10.112   7.821  70.584  1.00  0.00    -0.191 C  
BRANCH   4   5
HETATM    5  N   UNL     1      -9.627   8.941  69.764  1.00  0.00    -0.167 NA 
HETATM    6  C   UNL     1      -8.284   8.731  69.187  1.00  0.00    -0.119 C  
HETATM    7  C   UNL     1      -8.212   7.839  67.943  1.00  0.00    -0.123 C  
HETATM    8  C   UNL     1      -9.264   8.184  66.896  1.00  0.00    -0.198 C  
HETATM    9  C   UNL     1     -10.641   8.307  67.539  1.00  0.00    -0.291 C  
HETATM   10  C   UNL     1     -10.615   9.302  68.705  1.00  0.00    -0.193 C  
BRANCH  10  11
HETATM   11  C   UNL     1     -10.362  10.745  68.199  1.00  0.00    -0.171 C  
HETATM   12  N   UNL     1     -11.340  11.184  67.318  1.00  0.00    -0.285 N  
HETATM   13  O   UNL     1      -9.351  11.381  68.495  1.00  0.00    -0.182 OA 
HETATM   14  H   UNL     1     -12.188  10.634  67.184  1.00  0.00     0.000 HD 
BRANCH  12  15
HETATM   15  C   UNL     1     -11.163  12.384  66.613  1.00  0.00    -0.315 A  
HETATM   16  C   UNL     1     -11.434  13.611  67.245  1.00  0.00    -0.370 A  
HETATM   17  C   UNL     1     -12.033  13.718  68.615  1.00  0.00    -0.401 C  
HETATM   18  C   UNL     1     -11.255  14.790  66.501  1.00  0.00    -0.342 A  
HETATM   19  C   UNL     1     -10.789  14.746  65.185  1.00  0.00    -0.417 A  
HETATM   20  C   UNL     1     -10.499  13.528  64.586  1.00  0.00    -0.439 A  
HETATM   21  C   UNL     1     -10.686  12.332  65.285  1.00  0.00    -0.329 A  
HETATM   22  C   UNL     1     -10.347  11.025  64.619  1.00  0.00    -0.410 C  
ENDBRANCH  12  15
ENDBRANCH  10  11
ENDBRANCH   4   5
ENDBRANCH   3   4
ENDBRANCH   2   3
TORSDOF 5
ENDMDL
MODEL       77
REMARK 921   NORMALIZED FREE ENERGY PREDICTED BY IDOCK:   -4.80 KCAL/MOL
REMARK 922        TOTAL FREE ENERGY PREDICTED BY IDOCK:   -6.63 KCAL/MOL
REMARK 923 INTER-LIGAND FREE ENERGY PREDICTED BY IDOCK:   -6.26 KCAL/MOL
REMARK 924 INTRA-LIGAND FREE ENERGY PREDICTED BY IDOCK:   -0.37 KCAL/MOL
REMARK 927      BINDING AFFINITY PREDICTED BY RF-SCORE:    0.00 PKD
ROOT
HETATM    1  C   UNL     1      -9.812  11.155  63.040  1.00  0.00    -0.368 C  
HETATM    2  C   UNL     1      -9.606  10.414  64.354  1.00  0.00    -0.375 C  
ENDROOT
BRANCH   2   3
HETATM    3  C   UNL     1     -10.420  11.041  65.490  1.00  0.00    -0.302 C  
BRANCH   3   4
HETATM    4  C   UNL     1      -9.595  11.978  66.388  1.00  0.00    -0.228 C  
BRANCH   4   5
HETATM    5  N   UNL     1      -9.684  13.406  66.049  1.00  0.00    -0.253 NA 
HETATM    6  C   UNL     1     -10.976  13.807  65.457  1.00  0.00    -0.299 C  
HETATM    7  C   UNL     1     -12.138  14.006  66.436  1.00  0.00    -0.483 C  
HETATM    8  C   UNL     1     -11.757  14.835  67.658  1.00  0.00    -0.364 C  
HETATM    9  C   UNL     1     -10.460  14.321  68.271  1.00  0.00    -0.247 C  
HETATM   10  C   UNL     1      -9.343  14.262  67.223  1.00  0.00    -0.213 C  
BRANCH  10  11
HETATM   11  C   UNL     1      -8.942  15.684  66.756  1.00  0.00    -0.261 C  
HETATM   12  N   UNL     1      -8.336  16.427  67.759  1.00  0.00    -0.164 N  
HETATM   13  O   UNL     1      -9.217  16.114  65.637  1.00  0.00    -0.407 OA 
HETATM   14  H   UNL     1      -8.068  15.978  68.635  1.00  0.00     0.000 HD 
BRANCH  12  15
HETATM   15  C   UNL     1      -8.092  17.796  67.571  1.00  0.00    -0.223 A  
HETATM   16  C   UNL     1      -6.815  18.227  67.169  1.00  0.00    -0.209 A  
HETATM   17  C   UNL     1      -5.635  17.311  67.048  1.00  0.00    -0.196 C  
HETATM   18  C   UNL     1      -6.607  19.607  67.002  1.00  0.00    -0.208 A  
HETATM   19  C   UNL     1      -7.648  20.519  67.194  1.00  0.00    -0.372 A  
HETATM   20  C   UNL     1      -8.910  20.074  67.562  1.00  0.00    -0.426 A  
HETATM   21  C   UNL     1      -9.150  18.711  67.761  1.00  0.00    -0.303 A  
HETATM   22  C   UNL     1     -10.532  18.251  68.142  1.00  0.00    -0.359 C  
ENDBRANCH  12  15
ENDBRANCH  10  11
ENDBRANCH   4   5
ENDBRANCH   3   4
ENDBRANCH   2   3
TORSDOF 5
ENDMDL
MODEL       78
REMARK 921   NORMALIZED FREE ENERGY PREDICTED BY IDOCK:   -4.77 KCAL/MOL
REMARK 922        TOTAL FREE ENERGY PREDICTED BY IDOCK:   -6.60 KCAL/MOL
REMARK 923 INTER-LIGAND FREE ENERGY PREDICTED BY IDOCK:   -6.36 KCAL/MOL
REMARK 924 INTRA-LIGAND FREE ENERGY PREDICTED BY IDOCK:   -0.24 KCAL/MOL
REMARK 927      BINDING AFFINITY PREDICTED BY RF-SCORE:    0.00 PKD
ROOT
HETATM    1  C   UNL     1     -13.350   7.449  71.617  1.00  0.00    -0.426 C  
HETATM    2  C   UNL     1     -12.181   6.926  70.793  1.00  0.00    -0.364 C  
ENDROOT
BRANCH   2   3
HETATM    3  C   UNL     1     -10.980   7.875  70.850  1.00  0.00    -0.256 C  
BRANCH   3   4
HETATM    4  C   UNL     1     -10.317   8.101  69.481  1.00  0.00    -0.222 C  
BRANCH   4   5
HETATM    5  N   UNL     1     -10.373   9.483  68.981  1.00  0.00    -0.199 NA 
HETATM    6  C   UNL     1      -9.172  10.286  69.286  1.00  0.00    -0.202 C  
HETATM    7  C   UNL     1      -7.953  10.051  68.387  1.00  0.00    -0.097 C  
HETATM    8  C   UNL     1      -8.299  10.031  66.902  1.00  0.00    -0.125 C  
HETATM    9  C   UNL     1      -9.494   9.122  66.641  1.00  0.00    -0.242 C  
HETATM   10  C   UNL     1     -10.686   9.516  67.522  1.00  0.00    -0.245 C  
BRANCH  10  11
HETATM   11  C   UNL     1     -11.239  10.907  67.120  1.00  0.00    -0.184 C  
HETATM   12  N   UNL     1     -10.684  11.385  65.941  1.00  0.00    -0.267 N  
HETATM   13  O   UNL     1     -12.023  11.536  67.829  1.00  0.00    -0.623 OA 
HETATM   14  H   UNL     1     -10.103  10.774  65.368  1.00  0.00     0.000 HD 
BRANCH  12  15
HETATM   15  C   UNL     1     -10.922  12.707  65.538  1.00  0.00    -0.279 A  
HETATM   16  C   UNL     1     -11.960  12.984  64.631  1.00  0.00    -0.445 A  
HETATM   17  C   UNL     1     -12.768  11.919  63.953  1.00  0.00    -0.413 C  
HETATM   18  C   UNL     1     -12.158  14.320  64.242  1.00  0.00    -0.467 A  
HETATM   19  C   UNL     1     -11.371  15.347  64.770  1.00  0.00    -0.381 A  
HETATM   20  C   UNL     1     -10.369  15.059  65.687  1.00  0.00    -0.374 A  
HETATM   21  C   UNL     1     -10.126  13.740  66.080  1.00  0.00    -0.314 A  
HETATM   22  C   UNL     1      -9.045  13.456  67.090  1.00  0.00    -0.235 C  
ENDBRANCH  12  15
ENDBRANCH  10  11
ENDBRANCH   4   5
ENDBRANCH   3   4
ENDBRANCH   2   3
TORSDOF 5
ENDMDL
MODEL       79
REMARK 921   NORMALIZED FREE ENERGY PREDICTED BY IDOCK:   -4.76 KCAL/MOL
REMARK 922        TOTAL FREE ENERGY PREDICTED BY IDOCK:   -6.59 KCAL/MOL
REMARK 923 INTER-LIGAND FREE ENERGY PREDICTED BY IDOCK:   -5.97 KCAL/MOL
REMARK 924 INTRA-LIGAND FREE ENERGY PREDICTED BY IDOCK:   -0.62 KCAL/MOL
REMARK 927      BINDING AFFINITY PREDICTED BY RF-SCORE:    0.00 PKD
ROOT
HETATM    1  C   UNL     1      -8.510  20.036  66.682  1.00  0.00    -0.370 C  
HETATM    2  C   UNL     1      -9.637  19.922  67.700  1.00  0.00    -0.493 C  
ENDROOT
BRANCH   2   3
HETATM    3  C   UNL     1     -10.643  18.836  67.309  1.00  0.00    -0.504 C  
BRANCH   3   4
HETATM    4  C   UNL     1     -10.635  17.627  68.259  1.00  0.00    -0.339 C  
BRANCH   4   5
HETATM    5  N   UNL     1     -10.532  16.316  67.600  1.00  0.00    -0.289 NA 
HETATM    6  C   UNL     1      -9.790  16.338  66.323  1.00  0.00    -0.313 C  
HETATM    7  C   UNL     1      -8.261  16.364  66.427  1.00  0.00    -0.366 C  
HETATM    8  C   UNL     1      -7.711  15.347  67.422  1.00  0.00    -0.224 C  
HETATM    9  C   UNL     1      -8.462  15.429  68.745  1.00  0.00    -0.188 C  
HETATM   10  C   UNL     1      -9.974  15.289  68.528  1.00  0.00    -0.222 C  
BRANCH  10  11
HETATM   11  C   UNL     1     -10.335  13.864  68.036  1.00  0.00    -0.245 C  
HETATM   12  N   UNL     1      -9.749  12.867  68.803  1.00  0.00    -0.416 N  
HETATM   13  O   UNL     1     -11.002  13.664  67.022  1.00  0.00    -0.284 OA 
HETATM   14  H   UNL     1      -9.277  13.107  69.675  1.00  0.00     0.000 HD 
BRANCH  12  15
HETATM   15  C   UNL     1      -9.807  11.530  68.382  1.00  0.00    -0.204 A  
HETATM   16  C   UNL     1      -8.815  11.027  67.521  1.00  0.00    -0.131 A  
HETATM   17  C   UNL     1      -7.745  11.879  66.909  1.00  0.00    -0.106 C  
HETATM   18  C   UNL     1      -8.914   9.685  67.112  1.00  0.00    -0.148 A  
HETATM   19  C   UNL     1      -9.947   8.867  67.577  1.00  0.00    -0.258 A  
HETATM   20  C   UNL     1     -10.901   9.373  68.449  1.00  0.00    -0.156 A  
HETATM   21  C   UNL     1     -10.850  10.708  68.860  1.00  0.00    -0.272 A  
HETATM   22  C   UNL     1     -11.886  11.226  69.821  1.00  0.00    -0.437 C  
ENDBRANCH  12  15
ENDBRANCH  10  11
ENDBRANCH   4   5
ENDBRANCH   3   4
ENDBRANCH   2   3
TORSDOF 5
ENDMDL
MODEL       80
REMARK 921   NORMALIZED FREE ENERGY PREDICTED BY IDOCK:   -4.73 KCAL/MOL
REMARK 922        TOTAL FREE ENERGY PREDICTED BY IDOCK:   -6.55 KCAL/MOL
REMARK 923 INTER-LIGAND FREE ENERGY PREDICTED BY IDOCK:   -6.21 KCAL/MOL
REMARK 924 INTRA-LIGAND FREE ENERGY PREDICTED BY IDOCK:   -0.34 KCAL/MOL
REMARK 927      BINDING AFFINITY PREDICTED BY RF-SCORE:    0.00 PKD
ROOT
HETATM    1  C   UNL     1      -9.985   5.412  69.660  1.00  0.00    -0.297 C  
HETATM    2  C   UNL     1     -10.950   6.544  69.983  1.00  0.00    -0.388 C  
ENDROOT
BRANCH   2   3
HETATM    3  C   UNL     1     -10.230   7.733  70.627  1.00  0.00    -0.199 C  
BRANCH   3   4
HETATM    4  C   UNL     1      -9.279   8.465  69.665  1.00  0.00    -0.160 C  
BRANCH   4   5
HETATM    5  N   UNL     1      -9.602   9.879  69.424  1.00  0.00    -0.202 NA 
HETATM    6  C   UNL     1      -8.469  10.680  68.918  1.00  0.00    -0.154 C  
HETATM    7  C   UNL     1      -8.151  10.538  67.426  1.00  0.00    -0.111 C  
HETATM    8  C   UNL     1      -9.388  10.624  66.538  1.00  0.00    -0.192 C  
HETATM    9  C   UNL     1     -10.491   9.714  67.065  1.00  0.00    -0.302 C  
HETATM   10  C   UNL     1     -10.795  10.017  68.538  1.00  0.00    -0.231 C  
BRANCH  10  11
HETATM   11  C   UNL     1     -11.428  11.423  68.698  1.00  0.00    -0.296 C  
HETATM   12  N   UNL     1     -11.068  12.040  69.887  1.00  0.00    -0.461 N  
HETATM   13  O   UNL     1     -12.226  11.884  67.884  1.00  0.00    -0.508 OA 
HETATM   14  H   UNL     1     -10.340  11.632  70.473  1.00  0.00     0.000 HD 
BRANCH  12  15
HETATM   15  C   UNL     1     -11.705  13.226  70.284  1.00  0.00    -0.143 A  
HETATM   16  C   UNL     1     -12.747  13.176  71.228  1.00  0.00    -0.396 A  
HETATM   17  C   UNL     1     -13.320  11.896  71.756  1.00  0.00    -0.334 C  
HETATM   18  C   UNL     1     -13.367  14.384  71.591  1.00  0.00    -0.442 A  
HETATM   19  C   UNL     1     -12.937  15.601  71.058  1.00  0.00    -0.518 A  
HETATM   20  C   UNL     1     -11.888  15.635  70.148  1.00  0.00    -0.381 A  
HETATM   21  C   UNL     1     -11.261  14.453  69.745  1.00  0.00    -0.251 A  
HETATM   22  C   UNL     1     -10.114  14.518  68.772  1.00  0.00    -0.239 C  
ENDBRANCH  12  15
ENDBRANCH  10  11
ENDBRANCH   4   5
ENDBRANCH   3   4
ENDBRANCH   2   3
TORSDOF 5
ENDMDL
MODEL       81
REMARK 921   NORMALIZED FREE ENERGY PREDICTED BY IDOCK:   -4.70 KCAL/MOL
REMARK 922        TOTAL FREE ENERGY PREDICTED BY IDOCK:   -6.50 KCAL/MOL
REMARK 923 INTER-LIGAND FREE ENERGY PREDICTED BY IDOCK:   -6.11 KCAL/MOL
REMARK 924 INTRA-LIGAND FREE ENERGY PREDICTED BY IDOCK:   -0.39 KCAL/MOL
REMARK 927      BINDING AFFINITY PREDICTED BY RF-SCORE:    0.00 PKD
ROOT
HETATM    1  C   UNL     1      -9.820   9.101  65.981  1.00  0.00    -0.342 C  
HETATM    2  C   UNL     1      -8.867   9.723  66.993  1.00  0.00    -0.145 C  
ENDROOT
BRANCH   2   3
HETATM    3  C   UNL     1      -9.098  11.230  67.135  1.00  0.00    -0.160 C  
BRANCH   3   4
HETATM    4  C   UNL     1      -9.561  11.902  65.831  1.00  0.00    -0.231 C  
BRANCH   4   5
HETATM    5  N   UNL     1      -9.851  13.340  65.939  1.00  0.00    -0.262 NA 
HETATM    6  C   UNL     1     -10.471  13.924  64.733  1.00  0.00    -0.429 C  
HETATM    7  C   UNL     1     -11.972  13.673  64.553  1.00  0.00    -0.454 C  
HETATM    8  C   UNL     1     -12.779  13.927  65.822  1.00  0.00    -0.503 C  
HETATM    9  C   UNL     1     -12.134  13.231  67.015  1.00  0.00    -0.375 C  
HETATM   10  C   UNL     1     -10.661  13.637  67.157  1.00  0.00    -0.277 C  
BRANCH  10  11
HETATM   11  C   UNL     1     -10.531  15.133  67.541  1.00  0.00    -0.258 C  
HETATM   12  N   UNL     1      -9.405  15.731  66.994  1.00  0.00    -0.214 N  
HETATM   13  O   UNL     1     -11.309  15.686  68.317  1.00  0.00    -0.334 OA 
HETATM   14  H   UNL     1      -8.852  15.233  66.296  1.00  0.00     0.000 HD 
BRANCH  12  15
HETATM   15  C   UNL     1      -9.026  17.019  67.398  1.00  0.00    -0.211 A  
HETATM   16  C   UNL     1      -8.089  17.178  68.436  1.00  0.00    -0.255 A  
HETATM   17  C   UNL     1      -7.551  16.035  69.242  1.00  0.00    -0.230 C  
HETATM   18  C   UNL     1      -7.745  18.486  68.820  1.00  0.00    -0.305 A  
HETATM   19  C   UNL     1      -8.289  19.594  68.166  1.00  0.00    -0.347 A  
HETATM   20  C   UNL     1      -9.191  19.419  67.125  1.00  0.00    -0.375 A  
HETATM   21  C   UNL     1      -9.576  18.134  66.729  1.00  0.00    -0.301 A  
HETATM   22  C   UNL     1     -10.541  17.971  65.585  1.00  0.00    -0.104 C  
ENDBRANCH  12  15
ENDBRANCH  10  11
ENDBRANCH   4   5
ENDBRANCH   3   4
ENDBRANCH   2   3
TORSDOF 5
ENDMDL
MODEL       82
REMARK 921   NORMALIZED FREE ENERGY PREDICTED BY IDOCK:   -4.66 KCAL/MOL
REMARK 922        TOTAL FREE ENERGY PREDICTED BY IDOCK:   -6.45 KCAL/MOL
REMARK 923 INTER-LIGAND FREE ENERGY PREDICTED BY IDOCK:   -6.08 KCAL/MOL
REMARK 924 INTRA-LIGAND FREE ENERGY PREDICTED BY IDOCK:   -0.38 KCAL/MOL
REMARK 927      BINDING AFFINITY PREDICTED BY RF-SCORE:    0.00 PKD
ROOT
HETATM    1  C   UNL     1      -9.089   9.859  62.755  1.00  0.00    -0.300 C  
HETATM    2  C   UNL     1      -9.200   9.843  64.274  1.00  0.00    -0.317 C  
ENDROOT
BRANCH   2   3
HETATM    3  C   UNL     1     -10.338  10.743  64.766  1.00  0.00    -0.380 C  
BRANCH   3   4
HETATM    4  C   UNL     1     -10.031  11.437  66.104  1.00  0.00    -0.227 C  
BRANCH   4   5
HETATM    5  N   UNL     1      -9.833  12.892  66.021  1.00  0.00    -0.268 NA 
HETATM    6  C   UNL     1     -10.884  13.603  65.266  1.00  0.00    -0.322 C  
HETATM    7  C   UNL     1     -12.197  13.863  66.012  1.00  0.00    -0.495 C  
HETATM    8  C   UNL     1     -11.989  14.420  67.416  1.00  0.00    -0.407 C  
HETATM    9  C   UNL     1     -10.954  13.595  68.172  1.00  0.00    -0.273 C  
HETATM   10  C   UNL     1      -9.648  13.489  67.376  1.00  0.00    -0.227 C  
BRANCH  10  11
HETATM   11  C   UNL     1      -8.949  14.869  67.268  1.00  0.00    -0.199 C  
HETATM   12  N   UNL     1      -8.742  15.464  68.504  1.00  0.00    -0.170 N  
HETATM   13  O   UNL     1      -8.692  15.396  66.186  1.00  0.00    -0.282 OA 
HETATM   14  H   UNL     1      -8.907  14.933  69.359  1.00  0.00     0.000 HD 
BRANCH  12  15
HETATM   15  C   UNL     1      -8.306  16.795  68.579  1.00  0.00    -0.243 A  
HETATM   16  C   UNL     1      -9.237  17.842  68.455  1.00  0.00    -0.288 A  
HETATM   17  C   UNL     1     -10.680  17.626  68.114  1.00  0.00    -0.312 C  
HETATM   18  C   UNL     1      -8.759  19.162  68.525  1.00  0.00    -0.401 A  
HETATM   19  C   UNL     1      -7.405  19.425  68.747  1.00  0.00    -0.390 A  
HETATM   20  C   UNL     1      -6.504  18.379  68.896  1.00  0.00    -0.247 A  
HETATM   21  C   UNL     1      -6.937  17.053  68.810  1.00  0.00    -0.211 A  
HETATM   22  C   UNL     1      -5.944  15.937  68.993  1.00  0.00    -0.116 C  
ENDBRANCH  12  15
ENDBRANCH  10  11
ENDBRANCH   4   5
ENDBRANCH   3   4
ENDBRANCH   2   3
TORSDOF 5
ENDMDL
MODEL       83
REMARK 921   NORMALIZED FREE ENERGY PREDICTED BY IDOCK:   -4.63 KCAL/MOL
REMARK 922        TOTAL FREE ENERGY PREDICTED BY IDOCK:   -6.42 KCAL/MOL
REMARK 923 INTER-LIGAND FREE ENERGY PREDICTED BY IDOCK:   -5.78 KCAL/MOL
REMARK 924 INTRA-LIGAND FREE ENERGY PREDICTED BY IDOCK:   -0.63 KCAL/MOL
REMARK 927      BINDING AFFINITY PREDICTED BY RF-SCORE:    0.00 PKD
ROOT
HETATM    1  C   UNL     1      -9.412   5.482  72.753  1.00  0.00    -0.160 C  
HETATM    2  C   UNL     1      -9.872   4.280  71.939  1.00  0.00    -0.248 C  
ENDROOT
BRANCH   2   3
HETATM    3  C   UNL     1      -9.641   4.491  70.440  1.00  0.00    -0.270 C  
BRANCH   3   4
HETATM    4  C   UNL     1      -9.137   5.902  70.093  1.00  0.00    -0.145 C  
BRANCH   4   5
HETATM    5  N   UNL     1     -10.041   6.698  69.248  1.00  0.00    -0.164 NA 
HETATM    6  C   UNL     1     -11.410   6.833  69.788  1.00  0.00    -0.296 C  
HETATM    7  C   UNL     1     -11.601   7.868  70.902  1.00  0.00    -0.286 C  
HETATM    8  C   UNL     1     -10.945   9.209  70.592  1.00  0.00    -0.319 C  
HETATM    9  C   UNL     1      -9.510   9.008  70.119  1.00  0.00    -0.217 C  
HETATM   10  C   UNL     1      -9.453   8.033  68.937  1.00  0.00    -0.151 C  
BRANCH  10  11
HETATM   11  C   UNL     1     -10.128   8.642  67.681  1.00  0.00    -0.213 C  
HETATM   12  N   UNL     1      -9.673   9.921  67.394  1.00  0.00    -0.157 N  
HETATM   13  O   UNL     1     -11.029   8.067  67.072  1.00  0.00    -0.191 OA 
HETATM   14  H   UNL     1      -8.869  10.299  67.894  1.00  0.00     0.000 HD 
BRANCH  12  15
HETATM   15  C   UNL     1     -10.317  10.693  66.416  1.00  0.00    -0.231 A  
HETATM   16  C   UNL     1     -11.251  11.671  66.803  1.00  0.00    -0.371 A  
HETATM   17  C   UNL     1     -11.707  11.862  68.218  1.00  0.00    -0.385 C  
HETATM   18  C   UNL     1     -11.883  12.416  65.792  1.00  0.00    -0.467 A  
HETATM   19  C   UNL     1     -11.567  12.216  64.446  1.00  0.00    -0.422 A  
HETATM   20  C   UNL     1     -10.622  11.265  64.084  1.00  0.00    -0.437 A  
HETATM   21  C   UNL     1      -9.988  10.488  65.058  1.00  0.00    -0.388 A  
HETATM   22  C   UNL     1      -8.954   9.478  64.641  1.00  0.00    -0.266 C  
ENDBRANCH  12  15
ENDBRANCH  10  11
ENDBRANCH   4   5
ENDBRANCH   3   4
ENDBRANCH   2   3
TORSDOF 5
ENDMDL
MODEL       84
REMARK 921   NORMALIZED FREE ENERGY PREDICTED BY IDOCK:   -4.62 KCAL/MOL
REMARK 922        TOTAL FREE ENERGY PREDICTED BY IDOCK:   -6.41 KCAL/MOL
REMARK 923 INTER-LIGAND FREE ENERGY PREDICTED BY IDOCK:   -5.68 KCAL/MOL
REMARK 924 INTRA-LIGAND FREE ENERGY PREDICTED BY IDOCK:   -0.73 KCAL/MOL
REMARK 927      BINDING AFFINITY PREDICTED BY RF-SCORE:    0.00 PKD
ROOT
HETATM    1  C   UNL     1      -9.188   5.162  72.478  1.00  0.00    -0.145 C  
HETATM    2  C   UNL     1      -9.859   4.021  71.725  1.00  0.00    -0.249 C  
ENDROOT
BRANCH   2   3
HETATM    3  C   UNL     1      -9.696   4.173  70.210  1.00  0.00    -0.277 C  
BRANCH   3   4
HETATM    4  C   UNL     1      -9.106   5.530  69.792  1.00  0.00    -0.132 C  
BRANCH   4   5
HETATM    5  N   UNL     1     -10.005   6.384  69.001  1.00  0.00    -0.144 NA 
HETATM    6  C   UNL     1     -11.395   6.423  69.499  1.00  0.00    -0.393 C  
HETATM    7  C   UNL     1     -11.658   7.329  70.707  1.00  0.00    -0.334 C  
HETATM    8  C   UNL     1     -11.035   8.713  70.565  1.00  0.00    -0.266 C  
HETATM    9  C   UNL     1      -9.579   8.604  70.128  1.00  0.00    -0.181 C  
HETATM   10  C   UNL     1      -9.449   7.761  68.854  1.00  0.00    -0.150 C  
BRANCH  10  11
HETATM   11  C   UNL     1     -10.099   8.479  67.644  1.00  0.00    -0.213 C  
HETATM   12  N   UNL     1      -9.646   9.781  67.486  1.00  0.00    -0.147 N  
HETATM   13  O   UNL     1     -10.981   7.959  66.962  1.00  0.00    -0.219 OA 
HETATM   14  H   UNL     1      -8.857  10.116  68.038  1.00  0.00     0.000 HD 
BRANCH  12  15
HETATM   15  C   UNL     1     -10.273  10.637  66.568  1.00  0.00    -0.233 A  
HETATM   16  C   UNL     1      -9.914  10.585  65.208  1.00  0.00    -0.364 A  
HETATM   17  C   UNL     1      -8.790   9.743  64.684  1.00  0.00    -0.244 C  
HETATM   18  C   UNL     1     -10.556  11.467  64.322  1.00  0.00    -0.405 A  
HETATM   19  C   UNL     1     -11.547  12.343  64.772  1.00  0.00    -0.395 A  
HETATM   20  C   UNL     1     -11.909  12.361  66.112  1.00  0.00    -0.442 A  
HETATM   21  C   UNL     1     -11.277  11.516  67.029  1.00  0.00    -0.365 A  
HETATM   22  C   UNL     1     -11.701  11.542  68.473  1.00  0.00    -0.379 C  
ENDBRANCH  12  15
ENDBRANCH  10  11
ENDBRANCH   4   5
ENDBRANCH   3   4
ENDBRANCH   2   3
TORSDOF 5
ENDMDL
MODEL       85
REMARK 921   NORMALIZED FREE ENERGY PREDICTED BY IDOCK:   -4.62 KCAL/MOL
REMARK 922        TOTAL FREE ENERGY PREDICTED BY IDOCK:   -6.41 KCAL/MOL
REMARK 923 INTER-LIGAND FREE ENERGY PREDICTED BY IDOCK:   -6.01 KCAL/MOL
REMARK 924 INTRA-LIGAND FREE ENERGY PREDICTED BY IDOCK:   -0.40 KCAL/MOL
REMARK 927      BINDING AFFINITY PREDICTED BY RF-SCORE:    0.00 PKD
ROOT
HETATM    1  C   UNL     1      -8.593  11.290  66.396  1.00  0.00    -0.174 C  
HETATM    2  C   UNL     1      -7.933  11.506  67.750  1.00  0.00    -0.128 C  
ENDROOT
BRANCH   2   3
HETATM    3  C   UNL     1      -6.970  12.697  67.726  1.00  0.00    -0.125 C  
BRANCH   3   4
HETATM    4  C   UNL     1      -7.658  14.031  67.388  1.00  0.00    -0.148 C  
BRANCH   4   5
HETATM    5  N   UNL     1      -8.781  14.394  68.266  1.00  0.00    -0.173 NA 
HETATM    6  C   UNL     1      -8.539  15.592  69.094  1.00  0.00    -0.251 C  
HETATM    7  C   UNL     1      -8.700  16.945  68.392  1.00  0.00    -0.244 C  
HETATM    8  C   UNL     1      -9.974  17.041  67.560  1.00  0.00    -0.274 C  
HETATM    9  C   UNL     1     -10.125  15.815  66.668  1.00  0.00    -0.287 C  
HETATM   10  C   UNL     1     -10.050  14.523  67.492  1.00  0.00    -0.228 C  
BRANCH  10  11
HETATM   11  C   UNL     1     -11.274  14.394  68.435  1.00  0.00    -0.273 C  
HETATM   12  N   UNL     1     -10.923  13.997  69.717  1.00  0.00    -0.459 N  
HETATM   13  O   UNL     1     -12.429  14.550  68.043  1.00  0.00    -0.064 OA 
HETATM   14  H   UNL     1      -9.941  13.965  69.990  1.00  0.00     0.000 HD 
BRANCH  12  15
HETATM   15  C   UNL     1     -11.918  13.639  70.639  1.00  0.00    -0.252 A  
HETATM   16  C   UNL     1     -12.389  12.314  70.678  1.00  0.00    -0.375 A  
HETATM   17  C   UNL     1     -11.978  11.264  69.691  1.00  0.00    -0.423 C  
HETATM   18  C   UNL     1     -13.394  11.998  71.608  1.00  0.00    -0.237 A  
HETATM   19  C   UNL     1     -13.885  12.963  72.492  1.00  0.00    -0.332 A  
HETATM   20  C   UNL     1     -13.388  14.259  72.459  1.00  0.00    -0.595 A  
HETATM   21  C   UNL     1     -12.405  14.618  71.533  1.00  0.00    -0.415 A  
HETATM   22  C   UNL     1     -11.870  16.025  71.530  1.00  0.00    -0.554 C  
ENDBRANCH  12  15
ENDBRANCH  10  11
ENDBRANCH   4   5
ENDBRANCH   3   4
ENDBRANCH   2   3
TORSDOF 5
ENDMDL
MODEL       86
REMARK 921   NORMALIZED FREE ENERGY PREDICTED BY IDOCK:   -4.61 KCAL/MOL
REMARK 922        TOTAL FREE ENERGY PREDICTED BY IDOCK:   -6.39 KCAL/MOL
REMARK 923 INTER-LIGAND FREE ENERGY PREDICTED BY IDOCK:   -6.08 KCAL/MOL
REMARK 924 INTRA-LIGAND FREE ENERGY PREDICTED BY IDOCK:   -0.31 KCAL/MOL
REMARK 927      BINDING AFFINITY PREDICTED BY RF-SCORE:    0.00 PKD
ROOT
HETATM    1  C   UNL     1     -12.958  10.777  71.593  1.00  0.00    -0.581 C  
HETATM    2  C   UNL     1     -11.936  10.374  70.538  1.00  0.00    -0.427 C  
ENDROOT
BRANCH   2   3
HETATM    3  C   UNL     1     -12.048  11.243  69.282  1.00  0.00    -0.372 C  
BRANCH   3   4
HETATM    4  C   UNL     1     -11.334  10.643  68.060  1.00  0.00    -0.278 C  
BRANCH   4   5
HETATM    5  N   UNL     1     -10.377  11.540  67.394  1.00  0.00    -0.202 NA 
HETATM    6  C   UNL     1      -9.515  10.873  66.397  1.00  0.00    -0.187 C  
HETATM    7  C   UNL     1     -10.148  10.596  65.030  1.00  0.00    -0.388 C  
HETATM    8  C   UNL     1     -10.900  11.796  64.463  1.00  0.00    -0.377 C  
HETATM    9  C   UNL     1     -11.832  12.389  65.512  1.00  0.00    -0.469 C  
HETATM   10  C   UNL     1     -11.069  12.722  66.800  1.00  0.00    -0.277 C  
BRANCH  10  11
HETATM   11  C   UNL     1     -10.061  13.877  66.567  1.00  0.00    -0.286 C  
HETATM   12  N   UNL     1      -9.465  14.313  67.742  1.00  0.00    -0.211 N  
HETATM   13  O   UNL     1      -9.889  14.390  65.463  1.00  0.00    -0.324 OA 
HETATM   14  H   UNL     1      -9.595  13.787  68.605  1.00  0.00     0.000 HD 
BRANCH  12  15
HETATM   15  C   UNL     1      -8.682  15.477  67.742  1.00  0.00    -0.167 A  
HETATM   16  C   UNL     1      -7.291  15.382  67.557  1.00  0.00    -0.222 A  
HETATM   17  C   UNL     1      -6.556  14.078  67.483  1.00  0.00    -0.101 C  
HETATM   18  C   UNL     1      -6.540  16.571  67.575  1.00  0.00    -0.178 A  
HETATM   19  C   UNL     1      -7.162  17.811  67.736  1.00  0.00    -0.207 A  
HETATM   20  C   UNL     1      -8.540  17.889  67.889  1.00  0.00    -0.252 A  
HETATM   21  C   UNL     1      -9.318  16.728  67.899  1.00  0.00    -0.229 A  
HETATM   22  C   UNL     1     -10.812  16.840  68.048  1.00  0.00    -0.341 C  
ENDBRANCH  12  15
ENDBRANCH  10  11
ENDBRANCH   4   5
ENDBRANCH   3   4
ENDBRANCH   2   3
TORSDOF 5
ENDMDL
MODEL       87
REMARK 921   NORMALIZED FREE ENERGY PREDICTED BY IDOCK:   -4.60 KCAL/MOL
REMARK 922        TOTAL FREE ENERGY PREDICTED BY IDOCK:   -6.38 KCAL/MOL
REMARK 923 INTER-LIGAND FREE ENERGY PREDICTED BY IDOCK:   -6.03 KCAL/MOL
REMARK 924 INTRA-LIGAND FREE ENERGY PREDICTED BY IDOCK:   -0.36 KCAL/MOL
REMARK 927      BINDING AFFINITY PREDICTED BY RF-SCORE:    0.00 PKD
ROOT
HETATM    1  C   UNL     1     -11.655   8.277  72.470  1.00  0.00    -0.454 C  
HETATM    2  C   UNL     1     -12.681   9.329  72.067  1.00  0.00    -0.479 C  
ENDROOT
BRANCH   2   3
HETATM    3  C   UNL     1     -12.256  10.075  70.798  1.00  0.00    -0.408 C  
BRANCH   3   4
HETATM    4  C   UNL     1     -10.814   9.766  70.363  1.00  0.00    -0.311 C  
BRANCH   4   5
HETATM    5  N   UNL     1     -10.127  10.859  69.658  1.00  0.00    -0.027 NA 
HETATM    6  C   UNL     1      -8.877  10.453  68.984  1.00  0.00    -0.172 C  
HETATM    7  C   UNL     1      -9.033   9.735  67.640  1.00  0.00    -0.133 C  
HETATM    8  C   UNL     1     -10.021  10.423  66.703  1.00  0.00    -0.262 C  
HETATM    9  C   UNL     1     -11.320  10.742  67.434  1.00  0.00    -0.239 C  
HETATM   10  C   UNL     1     -11.048  11.551  68.709  1.00  0.00    -0.233 C  
BRANCH  10  11
HETATM   11  C   UNL     1     -10.510  12.964  68.367  1.00  0.00    -0.251 C  
HETATM   12  N   UNL     1     -11.466  13.771  67.768  1.00  0.00    -0.303 N  
HETATM   13  O   UNL     1      -9.335  13.283  68.541  1.00  0.00    -0.182 OA 
HETATM   14  H   UNL     1     -12.439  13.467  67.730  1.00  0.00     0.000 HD 
BRANCH  12  15
HETATM   15  C   UNL     1     -11.097  15.006  67.215  1.00  0.00    -0.334 A  
HETATM   16  C   UNL     1     -11.018  16.144  68.039  1.00  0.00    -0.338 A  
HETATM   17  C   UNL     1     -11.434  16.150  69.478  1.00  0.00    -0.292 C  
HETATM   18  C   UNL     1     -10.655  17.365  67.444  1.00  0.00    -0.308 A  
HETATM   19  C   UNL     1     -10.347  17.439  66.083  1.00  0.00    -0.329 A  
HETATM   20  C   UNL     1     -10.403  16.300  65.291  1.00  0.00    -0.247 A  
HETATM   21  C   UNL     1     -10.782  15.072  65.840  1.00  0.00    -0.337 A  
HETATM   22  C   UNL     1     -10.816  13.849  64.963  1.00  0.00    -0.389 C  
ENDBRANCH  12  15
ENDBRANCH  10  11
ENDBRANCH   4   5
ENDBRANCH   3   4
ENDBRANCH   2   3
TORSDOF 5
ENDMDL
MODEL       88
REMARK 921   NORMALIZED FREE ENERGY PREDICTED BY IDOCK:   -4.58 KCAL/MOL
REMARK 922        TOTAL FREE ENERGY PREDICTED BY IDOCK:   -6.35 KCAL/MOL
REMARK 923 INTER-LIGAND FREE ENERGY PREDICTED BY IDOCK:   -5.96 KCAL/MOL
REMARK 924 INTRA-LIGAND FREE ENERGY PREDICTED BY IDOCK:   -0.40 KCAL/MOL
REMARK 927      BINDING AFFINITY PREDICTED BY RF-SCORE:    0.00 PKD
ROOT
HETATM    1  C   UNL     1      -6.103  13.325  69.118  1.00  0.00    -0.094 C  
HETATM    2  C   UNL     1      -6.352  11.981  69.789  1.00  0.00    -0.110 C  
ENDROOT
BRANCH   2   3
HETATM    3  C   UNL     1      -6.508  10.857  68.760  1.00  0.00    -0.053 C  
BRANCH   3   4
HETATM    4  C   UNL     1      -7.912  10.228  68.752  1.00  0.00    -0.113 C  
BRANCH   4   5
HETATM    5  N   UNL     1      -9.020  11.178  68.571  1.00  0.00    -0.164 NA 
HETATM    6  C   UNL     1      -8.954  11.953  67.316  1.00  0.00    -0.176 C  
HETATM    7  C   UNL     1      -9.417  11.229  66.047  1.00  0.00    -0.240 C  
HETATM    8  C   UNL     1     -10.740  10.493  66.226  1.00  0.00    -0.139 C  
HETATM    9  C   UNL     1     -10.717   9.648  67.494  1.00  0.00    -0.321 C  
HETATM   10  C   UNL     1     -10.341  10.499  68.714  1.00  0.00    -0.191 C  
BRANCH  10  11
HETATM   11  C   UNL     1     -11.450  11.534  69.032  1.00  0.00    -0.291 C  
HETATM   12  N   UNL     1     -11.146  12.324  70.132  1.00  0.00    -0.193 N  
HETATM   13  O   UNL     1     -12.512  11.576  68.413  1.00  0.00    -0.319 OA 
HETATM   14  H   UNL     1     -10.214  12.286  70.544  1.00  0.00     0.000 HD 
BRANCH  12  15
HETATM   15  C   UNL     1     -12.120  13.172  70.679  1.00  0.00    -0.264 A  
HETATM   16  C   UNL     1     -13.055  12.662  71.598  1.00  0.00    -0.421 A  
HETATM   17  C   UNL     1     -13.159  11.207  71.944  1.00  0.00    -0.513 C  
HETATM   18  C   UNL     1     -14.022  13.542  72.114  1.00  0.00    -0.575 A  
HETATM   19  C   UNL     1     -14.031  14.891  71.753  1.00  0.00    -0.583 A  
HETATM   20  C   UNL     1     -13.084  15.385  70.866  1.00  0.00    -0.528 A  
HETATM   21  C   UNL     1     -12.120  14.536  70.313  1.00  0.00    -0.386 A  
HETATM   22  C   UNL     1     -11.092  15.100  69.369  1.00  0.00    -0.283 C  
ENDBRANCH  12  15
ENDBRANCH  10  11
ENDBRANCH   4   5
ENDBRANCH   3   4
ENDBRANCH   2   3
TORSDOF 5
ENDMDL
MODEL       89
REMARK 921   NORMALIZED FREE ENERGY PREDICTED BY IDOCK:   -4.56 KCAL/MOL
REMARK 922        TOTAL FREE ENERGY PREDICTED BY IDOCK:   -6.33 KCAL/MOL
REMARK 923 INTER-LIGAND FREE ENERGY PREDICTED BY IDOCK:   -6.17 KCAL/MOL
REMARK 924 INTRA-LIGAND FREE ENERGY PREDICTED BY IDOCK:   -0.16 KCAL/MOL
REMARK 927      BINDING AFFINITY PREDICTED BY RF-SCORE:    0.00 PKD
ROOT
HETATM    1  C   UNL     1     -10.568   9.206  70.969  1.00  0.00    -0.362 C  
HETATM    2  C   UNL     1     -11.908   9.924  70.892  1.00  0.00    -0.443 C  
ENDROOT
BRANCH   2   3
HETATM    3  C   UNL     1     -11.807  11.225  70.091  1.00  0.00    -0.449 C  
BRANCH   3   4
HETATM    4  C   UNL     1     -11.631  11.000  68.580  1.00  0.00    -0.310 C  
BRANCH   4   5
HETATM    5  N   UNL     1     -10.731  11.949  67.908  1.00  0.00    -0.197 NA 
HETATM    6  C   UNL     1     -10.754  11.864  66.433  1.00  0.00    -0.266 C  
HETATM    7  C   UNL     1     -11.934  12.547  65.734  1.00  0.00    -0.482 C  
HETATM    8  C   UNL     1     -12.209  13.953  66.256  1.00  0.00    -0.498 C  
HETATM    9  C   UNL     1     -12.254  13.959  67.780  1.00  0.00    -0.217 C  
HETATM   10  C   UNL     1     -10.978  13.346  68.369  1.00  0.00    -0.267 C  
BRANCH  10  11
HETATM   11  C   UNL     1      -9.745  14.238  68.075  1.00  0.00    -0.223 C  
HETATM   12  N   UNL     1      -9.576  15.246  69.014  1.00  0.00    -0.224 N  
HETATM   13  O   UNL     1      -9.055  14.099  67.067  1.00  0.00    -0.223 OA 
HETATM   14  H   UNL     1     -10.138  15.248  69.865  1.00  0.00     0.000 HD 
BRANCH  12  15
HETATM   15  C   UNL     1      -8.633  16.261  68.794  1.00  0.00    -0.240 A  
HETATM   16  C   UNL     1      -9.043  17.483  68.229  1.00  0.00    -0.274 A  
HETATM   17  C   UNL     1     -10.430  17.731  67.718  1.00  0.00    -0.402 C  
HETATM   18  C   UNL     1      -8.066  18.470  68.013  1.00  0.00    -0.288 A  
HETATM   19  C   UNL     1      -6.735  18.258  68.383  1.00  0.00    -0.229 A  
HETATM   20  C   UNL     1      -6.354  17.057  68.966  1.00  0.00    -0.198 A  
HETATM   21  C   UNL     1      -7.292  16.042  69.175  1.00  0.00    -0.209 A  
HETATM   22  C   UNL     1      -6.856  14.756  69.826  1.00  0.00    -0.173 C  
ENDBRANCH  12  15
ENDBRANCH  10  11
ENDBRANCH   4   5
ENDBRANCH   3   4
ENDBRANCH   2   3
TORSDOF 5
ENDMDL
MODEL       90
REMARK 921   NORMALIZED FREE ENERGY PREDICTED BY IDOCK:   -4.56 KCAL/MOL
REMARK 922        TOTAL FREE ENERGY PREDICTED BY IDOCK:   -6.33 KCAL/MOL
REMARK 923 INTER-LIGAND FREE ENERGY PREDICTED BY IDOCK:   -5.88 KCAL/MOL
REMARK 924 INTRA-LIGAND FREE ENERGY PREDICTED BY IDOCK:   -0.44 KCAL/MOL
REMARK 927      BINDING AFFINITY PREDICTED BY RF-SCORE:    0.00 PKD
ROOT
HETATM    1  C   UNL     1     -11.236  14.888  65.452  1.00  0.00    -0.359 C  
HETATM    2  C   UNL     1     -12.367  14.091  64.818  1.00  0.00    -0.437 C  
ENDROOT
BRANCH   2   3
HETATM    3  C   UNL     1     -12.274  12.602  65.168  1.00  0.00    -0.539 C  
BRANCH   3   4
HETATM    4  C   UNL     1     -11.846  12.343  66.623  1.00  0.00    -0.325 C  
BRANCH   4   5
HETATM    5  N   UNL     1     -11.150  11.068  66.850  1.00  0.00    -0.263 NA 
HETATM    6  C   UNL     1     -10.464  10.532  65.658  1.00  0.00    -0.143 C  
HETATM    7  C   UNL     1      -9.111  11.165  65.312  1.00  0.00    -0.183 C  
HETATM    8  C   UNL     1      -8.190  11.306  66.519  1.00  0.00    -0.165 C  
HETATM    9  C   UNL     1      -8.933  11.939  67.690  1.00  0.00    -0.169 C  
HETATM   10  C   UNL     1     -10.216  11.163  68.010  1.00  0.00    -0.181 C  
BRANCH  10  11
HETATM   11  C   UNL     1      -9.889   9.750  68.557  1.00  0.00    -0.156 C  
HETATM   12  N   UNL     1     -11.025   9.029  68.896  1.00  0.00    -0.433 N  
HETATM   13  O   UNL     1      -8.736   9.363  68.741  1.00  0.00    -0.128 OA 
HETATM   14  H   UNL     1     -11.947   9.383  68.641  1.00  0.00     0.000 HD 
BRANCH  12  15
HETATM   15  C   UNL     1     -10.907   7.816  69.589  1.00  0.00    -0.184 A  
HETATM   16  C   UNL     1     -10.817   6.609  68.872  1.00  0.00    -0.326 A  
HETATM   17  C   UNL     1     -10.968   6.521  67.384  1.00  0.00    -0.458 C  
HETATM   18  C   UNL     1     -10.711   5.413  69.604  1.00  0.00    -0.267 A  
HETATM   19  C   UNL     1     -10.661   5.426  71.000  1.00  0.00    -0.239 A  
HETATM   20  C   UNL     1     -10.723   6.629  71.691  1.00  0.00    -0.259 A  
HETATM   21  C   UNL     1     -10.852   7.837  71.000  1.00  0.00    -0.253 A  
HETATM   22  C   UNL     1     -10.898   9.129  71.772  1.00  0.00    -0.416 C  
ENDBRANCH  12  15
ENDBRANCH  10  11
ENDBRANCH   4   5
ENDBRANCH   3   4
ENDBRANCH   2   3
TORSDOF 5
ENDMDL
MODEL       91
REMARK 921   NORMALIZED FREE ENERGY PREDICTED BY IDOCK:   -4.50 KCAL/MOL
REMARK 922        TOTAL FREE ENERGY PREDICTED BY IDOCK:   -6.25 KCAL/MOL
REMARK 923 INTER-LIGAND FREE ENERGY PREDICTED BY IDOCK:   -5.89 KCAL/MOL
REMARK 924 INTRA-LIGAND FREE ENERGY PREDICTED BY IDOCK:   -0.37 KCAL/MOL
REMARK 927      BINDING AFFINITY PREDICTED BY RF-SCORE:    0.00 PKD
ROOT
HETATM    1  C   UNL     1      -6.273  13.105  67.529  1.00  0.00    -0.129 C  
HETATM    2  C   UNL     1      -6.746  12.814  68.946  1.00  0.00    -0.097 C  
ENDROOT
BRANCH   2   3
HETATM    3  C   UNL     1      -6.289  11.432  69.422  1.00  0.00    -0.100 C  
BRANCH   3   4
HETATM    4  C   UNL     1      -7.452  10.507  69.819  1.00  0.00    -0.119 C  
BRANCH   4   5
HETATM    5  N   UNL     1      -8.457  10.283  68.768  1.00  0.00    -0.122 NA 
HETATM    6  C   UNL     1      -8.531   8.887  68.291  1.00  0.00    -0.130 C  
HETATM    7  C   UNL     1      -9.299   7.906  69.183  1.00  0.00    -0.154 C  
HETATM    8  C   UNL     1     -10.644   8.449  69.653  1.00  0.00    -0.219 C  
HETATM    9  C   UNL     1     -10.488   9.860  70.209  1.00  0.00    -0.348 C  
HETATM   10  C   UNL     1      -9.799  10.778  69.192  1.00  0.00    -0.175 C  
BRANCH  10  11
HETATM   11  C   UNL     1     -10.703  11.014  67.955  1.00  0.00    -0.219 C  
HETATM   12  N   UNL     1     -10.066  11.733  66.954  1.00  0.00    -0.205 N  
HETATM   13  O   UNL     1     -11.882  10.663  67.921  1.00  0.00    -0.485 OA 
HETATM   14  H   UNL     1      -9.065  11.919  67.019  1.00  0.00     0.000 HD 
BRANCH  12  15
HETATM   15  C   UNL     1     -10.796  12.206  65.854  1.00  0.00    -0.278 A  
HETATM   16  C   UNL     1     -11.584  13.364  65.985  1.00  0.00    -0.375 A  
HETATM   17  C   UNL     1     -11.798  14.072  67.288  1.00  0.00    -0.445 C  
HETATM   18  C   UNL     1     -12.310  13.799  64.862  1.00  0.00    -0.435 A  
HETATM   19  C   UNL     1     -12.223  13.121  63.643  1.00  0.00    -0.553 A  
HETATM   20  C   UNL     1     -11.419  11.996  63.524  1.00  0.00    -0.536 A  
HETATM   21  C   UNL     1     -10.699  11.519  64.624  1.00  0.00    -0.379 A  
HETATM   22  C   UNL     1      -9.820  10.308  64.464  1.00  0.00    -0.384 C  
ENDBRANCH  12  15
ENDBRANCH  10  11
ENDBRANCH   4   5
ENDBRANCH   3   4
ENDBRANCH   2   3
TORSDOF 5
ENDMDL
MODEL       92
REMARK 921   NORMALIZED FREE ENERGY PREDICTED BY IDOCK:   -4.50 KCAL/MOL
REMARK 922        TOTAL FREE ENERGY PREDICTED BY IDOCK:   -6.25 KCAL/MOL
REMARK 923 INTER-LIGAND FREE ENERGY PREDICTED BY IDOCK:   -5.91 KCAL/MOL
REMARK 924 INTRA-LIGAND FREE ENERGY PREDICTED BY IDOCK:   -0.34 KCAL/MOL
REMARK 927      BINDING AFFINITY PREDICTED BY RF-SCORE:    0.00 PKD
ROOT
HETATM    1  C   UNL     1     -11.983  13.131  63.399  1.00  0.00    -0.552 C  
HETATM    2  C   UNL     1     -11.762  14.079  64.570  1.00  0.00    -0.428 C  
ENDROOT
BRANCH   2   3
HETATM    3  C   UNL     1     -10.272  14.276  64.863  1.00  0.00    -0.361 C  
BRANCH   3   4
HETATM    4  C   UNL     1      -9.855  13.789  66.261  1.00  0.00    -0.303 C  
BRANCH   4   5
HETATM    5  N   UNL     1     -10.186  12.387  66.558  1.00  0.00    -0.224 NA 
HETATM    6  C   UNL     1      -9.637  11.418  65.588  1.00  0.00    -0.231 C  
HETATM    7  C   UNL     1      -8.155  11.062  65.750  1.00  0.00    -0.038 C  
HETATM    8  C   UNL     1      -7.767  10.751  67.191  1.00  0.00    -0.120 C  
HETATM    9  C   UNL     1      -8.292  11.829  68.132  1.00  0.00    -0.156 C  
HETATM   10  C   UNL     1      -9.802  12.026  67.954  1.00  0.00    -0.196 C  
BRANCH  10  11
HETATM   11  C   UNL     1     -10.586  10.774  68.423  1.00  0.00    -0.197 C  
HETATM   12  N   UNL     1      -9.773   9.830  69.036  1.00  0.00    -0.169 N  
HETATM   13  O   UNL     1     -11.784  10.619  68.191  1.00  0.00    -0.474 OA 
HETATM   14  H   UNL     1      -8.807  10.063  69.265  1.00  0.00     0.000 HD 
BRANCH  12  15
HETATM   15  C   UNL     1     -10.278   8.558  69.340  1.00  0.00    -0.211 A  
HETATM   16  C   UNL     1     -10.785   8.298  70.626  1.00  0.00    -0.240 A  
HETATM   17  C   UNL     1     -10.704   9.277  71.758  1.00  0.00    -0.324 C  
HETATM   18  C   UNL     1     -11.272   7.007  70.895  1.00  0.00    -0.318 A  
HETATM   19  C   UNL     1     -11.286   6.023  69.903  1.00  0.00    -0.438 A  
HETATM   20  C   UNL     1     -10.807   6.305  68.631  1.00  0.00    -0.401 A  
HETATM   21  C   UNL     1     -10.294   7.570  68.331  1.00  0.00    -0.226 A  
HETATM   22  C   UNL     1      -9.798   7.856  66.939  1.00  0.00    -0.309 C  
ENDBRANCH  12  15
ENDBRANCH  10  11
ENDBRANCH   4   5
ENDBRANCH   3   4
ENDBRANCH   2   3
TORSDOF 5
ENDMDL
MODEL       93
REMARK 921   NORMALIZED FREE ENERGY PREDICTED BY IDOCK:   -4.49 KCAL/MOL
REMARK 922        TOTAL FREE ENERGY PREDICTED BY IDOCK:   -6.24 KCAL/MOL
REMARK 923 INTER-LIGAND FREE ENERGY PREDICTED BY IDOCK:   -5.97 KCAL/MOL
REMARK 924 INTRA-LIGAND FREE ENERGY PREDICTED BY IDOCK:   -0.27 KCAL/MOL
REMARK 927      BINDING AFFINITY PREDICTED BY RF-SCORE:    0.00 PKD
ROOT
HETATM    1  C   UNL     1     -11.971  16.131  72.524  1.00  0.00    -0.660 C  
HETATM    2  C   UNL     1     -11.325  15.561  71.268  1.00  0.00    -0.449 C  
ENDROOT
BRANCH   2   3
HETATM    3  C   UNL     1     -12.273  15.625  70.067  1.00  0.00    -0.351 C  
BRANCH   3   4
HETATM    4  C   UNL     1     -11.542  15.672  68.715  1.00  0.00    -0.384 C  
BRANCH   4   5
HETATM    5  N   UNL     1     -11.249  14.361  68.118  1.00  0.00    -0.269 NA 
HETATM    6  C   UNL     1     -12.106  14.016  66.965  1.00  0.00    -0.420 C  
HETATM    7  C   UNL     1     -11.737  14.665  65.627  1.00  0.00    -0.304 C  
HETATM    8  C   UNL     1     -10.248  14.581  65.311  1.00  0.00    -0.431 C  
HETATM    9  C   UNL     1      -9.419  15.027  66.509  1.00  0.00    -0.306 C  
HETATM   10  C   UNL     1      -9.804  14.238  67.767  1.00  0.00    -0.223 C  
BRANCH  10  11
HETATM   11  C   UNL     1      -9.406  12.746  67.632  1.00  0.00    -0.191 C  
HETATM   12  N   UNL     1      -8.639  12.496  66.502  1.00  0.00    -0.413 N  
HETATM   13  O   UNL     1      -9.808  11.882  68.409  1.00  0.00    -0.198 OA 
HETATM   14  H   UNL     1      -8.278  13.273  65.950  1.00  0.00     0.000 HD 
BRANCH  12  15
HETATM   15  C   UNL     1      -8.361  11.175  66.120  1.00  0.00    -0.144 A  
HETATM   16  C   UNL     1      -7.173  10.559  66.552  1.00  0.00    -0.124 A  
HETATM   17  C   UNL     1      -6.099  11.280  67.308  1.00  0.00    -0.076 C  
HETATM   18  C   UNL     1      -6.926   9.239  66.138  1.00  0.00    -0.086 A  
HETATM   19  C   UNL     1      -7.850   8.548  65.350  1.00  0.00    -0.107 A  
HETATM   20  C   UNL     1      -9.031   9.161  64.956  1.00  0.00    -0.221 A  
HETATM   21  C   UNL     1      -9.303  10.481  65.329  1.00  0.00    -0.258 A  
HETATM   22  C   UNL     1     -10.599  11.117  64.904  1.00  0.00    -0.356 C  
ENDBRANCH  12  15
ENDBRANCH  10  11
ENDBRANCH   4   5
ENDBRANCH   3   4
ENDBRANCH   2   3
TORSDOF 5
ENDMDL
MODEL       94
REMARK 921   NORMALIZED FREE ENERGY PREDICTED BY IDOCK:   -4.44 KCAL/MOL
REMARK 922        TOTAL FREE ENERGY PREDICTED BY IDOCK:   -6.18 KCAL/MOL
REMARK 923 INTER-LIGAND FREE ENERGY PREDICTED BY IDOCK:   -5.90 KCAL/MOL
REMARK 924 INTRA-LIGAND FREE ENERGY PREDICTED BY IDOCK:   -0.28 KCAL/MOL
REMARK 927      BINDING AFFINITY PREDICTED BY RF-SCORE:    0.00 PKD
ROOT
HETATM    1  C   UNL     1      -7.088   8.315  64.029  1.00  0.00    -0.084 C  
HETATM    2  C   UNL     1      -7.690   9.500  63.286  1.00  0.00    -0.127 C  
ENDROOT
BRANCH   2   3
HETATM    3  C   UNL     1      -8.987   9.980  63.943  1.00  0.00    -0.271 C  
BRANCH   3   4
HETATM    4  C   UNL     1      -8.758  10.754  65.252  1.00  0.00    -0.173 C  
BRANCH   4   5
HETATM    5  N   UNL     1      -9.891  10.745  66.189  1.00  0.00    -0.212 NA 
HETATM    6  C   UNL     1     -10.445   9.401  66.455  1.00  0.00    -0.129 C  
HETATM    7  C   UNL     1      -9.666   8.531  67.448  1.00  0.00    -0.222 C  
HETATM    8  C   UNL     1      -9.270   9.277  68.717  1.00  0.00    -0.136 C  
HETATM    9  C   UNL     1      -8.632  10.618  68.375  1.00  0.00    -0.134 C  
HETATM   10  C   UNL     1      -9.545  11.444  67.461  1.00  0.00    -0.167 C  
BRANCH  10  11
HETATM   11  C   UNL     1     -10.833  11.877  68.207  1.00  0.00    -0.224 C  
HETATM   12  N   UNL     1     -10.568  12.492  69.423  1.00  0.00    -0.419 N  
HETATM   13  O   UNL     1     -11.959  11.618  67.786  1.00  0.00    -0.608 OA 
HETATM   14  H   UNL     1      -9.611  12.745  69.667  1.00  0.00     0.000 HD 
BRANCH  12  15
HETATM   15  C   UNL     1     -11.615  12.766  70.315  1.00  0.00     0.035 A  
HETATM   16  C   UNL     1     -12.195  11.718  71.053  1.00  0.00    -0.303 A  
HETATM   17  C   UNL     1     -11.845  10.275  70.850  1.00  0.00    -0.473 C  
HETATM   18  C   UNL     1     -13.250  12.032  71.928  1.00  0.00    -0.469 A  
HETATM   19  C   UNL     1     -13.683  13.350  72.087  1.00  0.00    -0.646 A  
HETATM   20  C   UNL     1     -13.080  14.376  71.372  1.00  0.00    -0.416 A  
HETATM   21  C   UNL     1     -12.044  14.101  70.475  1.00  0.00    -0.420 A  
HETATM   22  C   UNL     1     -11.394  15.234  69.726  1.00  0.00    -0.306 C  
ENDBRANCH  12  15
ENDBRANCH  10  11
ENDBRANCH   4   5
ENDBRANCH   3   4
ENDBRANCH   2   3
TORSDOF 5
ENDMDL
MODEL       95
REMARK 921   NORMALIZED FREE ENERGY PREDICTED BY IDOCK:   -4.44 KCAL/MOL
REMARK 922        TOTAL FREE ENERGY PREDICTED BY IDOCK:   -6.18 KCAL/MOL
REMARK 923 INTER-LIGAND FREE ENERGY PREDICTED BY IDOCK:   -5.86 KCAL/MOL
REMARK 924 INTRA-LIGAND FREE ENERGY PREDICTED BY IDOCK:   -0.32 KCAL/MOL
REMARK 927      BINDING AFFINITY PREDICTED BY RF-SCORE:    0.00 PKD
ROOT
HETATM    1  C   UNL     1     -12.815  14.390  72.031  1.00  0.00    -0.419 C  
HETATM    2  C   UNL     1     -12.400  14.920  70.665  1.00  0.00    -0.406 C  
ENDROOT
BRANCH   2   3
HETATM    3  C   UNL     1     -12.271  13.792  69.637  1.00  0.00    -0.359 C  
BRANCH   3   4
HETATM    4  C   UNL     1     -12.078  14.298  68.197  1.00  0.00    -0.240 C  
BRANCH   4   5
HETATM    5  N   UNL     1     -11.801  13.252  67.200  1.00  0.00    -0.372 NA 
HETATM    6  C   UNL     1     -12.520  13.429  65.923  1.00  0.00    -0.408 C  
HETATM    7  C   UNL     1     -11.933  14.459  64.951  1.00  0.00    -0.430 C  
HETATM    8  C   UNL     1     -10.424  14.324  64.775  1.00  0.00    -0.421 C  
HETATM    9  C   UNL     1      -9.732  14.228  66.129  1.00  0.00    -0.325 C  
HETATM   10  C   UNL     1     -10.334  13.099  66.974  1.00  0.00    -0.249 C  
BRANCH  10  11
HETATM   11  C   UNL     1     -10.026  11.713  66.352  1.00  0.00    -0.206 C  
HETATM   12  N   UNL     1      -8.835  11.698  65.640  1.00  0.00    -0.405 N  
HETATM   13  O   UNL     1     -10.809  10.768  66.424  1.00  0.00    -0.204 OA 
HETATM   14  H   UNL     1      -8.200  12.495  65.692  1.00  0.00     0.000 HD 
BRANCH  12  15
HETATM   15  C   UNL     1      -8.502  10.588  64.849  1.00  0.00    -0.158 A  
HETATM   16  C   UNL     1      -9.043  10.466  63.556  1.00  0.00    -0.270 A  
HETATM   17  C   UNL     1     -10.075  11.401  63.002  1.00  0.00    -0.333 C  
HETATM   18  C   UNL     1      -8.695   9.333  62.799  1.00  0.00    -0.218 A  
HETATM   19  C   UNL     1      -7.809   8.377  63.303  1.00  0.00    -0.151 A  
HETATM   20  C   UNL     1      -7.263   8.528  64.570  1.00  0.00    -0.086 A  
HETATM   21  C   UNL     1      -7.602   9.629  65.362  1.00  0.00    -0.111 A  
HETATM   22  C   UNL     1      -6.981   9.779  66.725  1.00  0.00    -0.085 C  
ENDBRANCH  12  15
ENDBRANCH  10  11
ENDBRANCH   4   5
ENDBRANCH   3   4
ENDBRANCH   2   3
TORSDOF 5
ENDMDL
MODEL       96
REMARK 921   NORMALIZED FREE ENERGY PREDICTED BY IDOCK:   -4.43 KCAL/MOL
REMARK 922        TOTAL FREE ENERGY PREDICTED BY IDOCK:   -6.17 KCAL/MOL
REMARK 923 INTER-LIGAND FREE ENERGY PREDICTED BY IDOCK:   -5.65 KCAL/MOL
REMARK 924 INTRA-LIGAND FREE ENERGY PREDICTED BY IDOCK:   -0.52 KCAL/MOL
REMARK 927      BINDING AFFINITY PREDICTED BY RF-SCORE:    0.00 PKD
ROOT
HETATM    1  C   UNL     1      -6.926  13.965  67.601  1.00  0.00    -0.189 C  
HETATM    2  C   UNL     1      -6.976  13.472  69.041  1.00  0.00    -0.091 C  
ENDROOT
BRANCH   2   3
HETATM    3  C   UNL     1      -6.250  12.133  69.205  1.00  0.00    -0.097 C  
BRANCH   3   4
HETATM    4  C   UNL     1      -7.203  10.946  69.425  1.00  0.00    -0.126 C  
BRANCH   4   5
HETATM    5  N   UNL     1      -8.197  10.739  68.361  1.00  0.00    -0.122 NA 
HETATM    6  C   UNL     1      -8.068   9.449  67.655  1.00  0.00    -0.106 C  
HETATM    7  C   UNL     1      -8.638   8.221  68.374  1.00  0.00    -0.133 C  
HETATM    8  C   UNL     1     -10.034   8.455  68.943  1.00  0.00    -0.194 C  
HETATM    9  C   UNL     1     -10.082   9.760  69.729  1.00  0.00    -0.268 C  
HETATM   10  C   UNL     1      -9.585  10.933  68.875  1.00  0.00    -0.181 C  
BRANCH  10  11
HETATM   11  C   UNL     1     -10.559  11.221  67.705  1.00  0.00    -0.213 C  
HETATM   12  N   UNL     1      -9.992  12.015  66.717  1.00  0.00    -0.199 N  
HETATM   13  O   UNL     1     -11.731  10.846  67.713  1.00  0.00    -0.569 OA 
HETATM   14  H   UNL     1      -8.993  12.219  66.740  1.00  0.00     0.000 HD 
BRANCH  12  15
HETATM   15  C   UNL     1     -10.791  12.535  65.689  1.00  0.00    -0.277 A  
HETATM   16  C   UNL     1     -10.888  11.848  64.465  1.00  0.00    -0.368 A  
HETATM   17  C   UNL     1     -10.074  10.633  64.136  1.00  0.00    -0.402 C  
HETATM   18  C   UNL     1     -11.689  12.408  63.455  1.00  0.00    -0.592 A  
HETATM   19  C   UNL     1     -12.397  13.592  63.673  1.00  0.00    -0.377 A  
HETATM   20  C   UNL     1     -12.313  14.242  64.897  1.00  0.00    -0.435 A  
HETATM   21  C   UNL     1     -11.509  13.729  65.918  1.00  0.00    -0.330 A  
HETATM   22  C   UNL     1     -11.449  14.443  67.243  1.00  0.00    -0.377 C  
ENDBRANCH  12  15
ENDBRANCH  10  11
ENDBRANCH   4   5
ENDBRANCH   3   4
ENDBRANCH   2   3
TORSDOF 5
ENDMDL
MODEL       97
REMARK 921   NORMALIZED FREE ENERGY PREDICTED BY IDOCK:   -4.43 KCAL/MOL
REMARK 922        TOTAL FREE ENERGY PREDICTED BY IDOCK:   -6.16 KCAL/MOL
REMARK 923 INTER-LIGAND FREE ENERGY PREDICTED BY IDOCK:   -5.58 KCAL/MOL
REMARK 924 INTRA-LIGAND FREE ENERGY PREDICTED BY IDOCK:   -0.58 KCAL/MOL
REMARK 927      BINDING AFFINITY PREDICTED BY RF-SCORE:    0.00 PKD
ROOT
HETATM    1  C   UNL     1      -9.940   3.854  73.603  1.00  0.00    -0.169 C  
HETATM    2  C   UNL     1     -10.122   3.268  72.210  1.00  0.00    -0.215 C  
ENDROOT
BRANCH   2   3
HETATM    3  C   UNL     1      -9.438   4.128  71.142  1.00  0.00    -0.234 C  
BRANCH   3   4
HETATM    4  C   UNL     1      -9.324   5.610  71.534  1.00  0.00    -0.146 C  
BRANCH   4   5
HETATM    5  N   UNL     1     -10.053   6.544  70.662  1.00  0.00    -0.184 NA 
HETATM    6  C   UNL     1     -11.518   6.354  70.665  1.00  0.00    -0.362 C  
HETATM    7  C   UNL     1     -12.276   6.940  71.861  1.00  0.00    -0.370 C  
HETATM    8  C   UNL     1     -11.857   8.367  72.196  1.00  0.00    -0.441 C  
HETATM    9  C   UNL     1     -10.338   8.480  72.259  1.00  0.00    -0.402 C  
HETATM   10  C   UNL     1      -9.695   7.960  70.968  1.00  0.00    -0.159 C  
BRANCH  10  11
HETATM   11  C   UNL     1     -10.040   8.876  69.766  1.00  0.00    -0.199 C  
HETATM   12  N   UNL     1      -9.753  10.212  70.010  1.00  0.00    -0.404 N  
HETATM   13  O   UNL     1     -10.586   8.453  68.749  1.00  0.00    -0.203 OA 
HETATM   14  H   UNL     1      -9.227  10.475  70.843  1.00  0.00     0.000 HD 
BRANCH  12  15
HETATM   15  C   UNL     1     -10.185  11.199  69.113  1.00  0.00    -0.141 A  
HETATM   16  C   UNL     1      -9.439  11.458  67.948  1.00  0.00    -0.174 A  
HETATM   17  C   UNL     1      -8.114  10.820  67.659  1.00  0.00    -0.114 C  
HETATM   18  C   UNL     1      -9.899  12.463  67.080  1.00  0.00    -0.214 A  
HETATM   19  C   UNL     1     -11.081  13.158  67.347  1.00  0.00    -0.301 A  
HETATM   20  C   UNL     1     -11.820  12.870  68.486  1.00  0.00    -0.350 A  
HETATM   21  C   UNL     1     -11.383  11.894  69.386  1.00  0.00    -0.327 A  
HETATM   22  C   UNL     1     -12.212  11.587  70.605  1.00  0.00    -0.473 C  
ENDBRANCH  12  15
ENDBRANCH  10  11
ENDBRANCH   4   5
ENDBRANCH   3   4
ENDBRANCH   2   3
TORSDOF 5
ENDMDL
MODEL       98
REMARK 921   NORMALIZED FREE ENERGY PREDICTED BY IDOCK:   -4.43 KCAL/MOL
REMARK 922        TOTAL FREE ENERGY PREDICTED BY IDOCK:   -6.16 KCAL/MOL
REMARK 923 INTER-LIGAND FREE ENERGY PREDICTED BY IDOCK:   -5.81 KCAL/MOL
REMARK 924 INTRA-LIGAND FREE ENERGY PREDICTED BY IDOCK:   -0.35 KCAL/MOL
REMARK 927      BINDING AFFINITY PREDICTED BY RF-SCORE:    0.00 PKD
ROOT
HETATM    1  C   UNL     1      -5.870  12.504  69.247  1.00  0.00    -0.086 C  
HETATM    2  C   UNL     1      -6.984  13.479  68.893  1.00  0.00    -0.108 C  
ENDROOT
BRANCH   2   3
HETATM    3  C   UNL     1      -6.811  14.046  67.481  1.00  0.00    -0.150 C  
BRANCH   3   4
HETATM    4  C   UNL     1      -7.564  15.369  67.258  1.00  0.00    -0.212 C  
BRANCH   4   5
HETATM    5  N   UNL     1      -8.967  15.370  67.701  1.00  0.00    -0.179 NA 
HETATM    6  C   UNL     1      -9.676  16.642  67.459  1.00  0.00    -0.247 C  
HETATM    7  C   UNL     1     -10.167  16.884  66.027  1.00  0.00    -0.350 C  
HETATM    8  C   UNL     1     -10.882  15.677  65.428  1.00  0.00    -0.394 C  
HETATM    9  C   UNL     1     -10.062  14.410  65.638  1.00  0.00    -0.377 C  
HETATM   10  C   UNL     1      -9.717  14.218  67.120  1.00  0.00    -0.254 C  
BRANCH  10  11
HETATM   11  C   UNL     1     -10.990  13.926  67.954  1.00  0.00    -0.250 C  
HETATM   12  N   UNL     1     -10.748  13.931  69.321  1.00  0.00    -0.419 N  
HETATM   13  O   UNL     1     -12.068  13.641  67.436  1.00  0.00    -0.380 OA 
HETATM   14  H   UNL     1      -9.850  14.255  69.678  1.00  0.00     0.000 HD 
BRANCH  12  15
HETATM   15  C   UNL     1     -11.739  13.491  70.211  1.00  0.00    -0.173 A  
HETATM   16  C   UNL     1     -12.614  14.423  70.797  1.00  0.00    -0.426 A  
HETATM   17  C   UNL     1     -12.475  15.905  70.624  1.00  0.00    -0.274 C  
HETATM   18  C   UNL     1     -13.586  13.944  71.693  1.00  0.00    -0.415 A  
HETATM   19  C   UNL     1     -13.701  12.579  71.965  1.00  0.00    -0.251 A  
HETATM   20  C   UNL     1     -12.847  11.669  71.357  1.00  0.00    -0.461 A  
HETATM   21  C   UNL     1     -11.853  12.109  70.477  1.00  0.00    -0.185 A  
HETATM   22  C   UNL     1     -10.951  11.101  69.816  1.00  0.00    -0.216 C  
ENDBRANCH  12  15
ENDBRANCH  10  11
ENDBRANCH   4   5
ENDBRANCH   3   4
ENDBRANCH   2   3
TORSDOF 5
ENDMDL
MODEL       99
REMARK 921   NORMALIZED FREE ENERGY PREDICTED BY IDOCK:   -4.42 KCAL/MOL
REMARK 922        TOTAL FREE ENERGY PREDICTED BY IDOCK:   -6.15 KCAL/MOL
REMARK 923 INTER-LIGAND FREE ENERGY PREDICTED BY IDOCK:   -5.81 KCAL/MOL
REMARK 924 INTRA-LIGAND FREE ENERGY PREDICTED BY IDOCK:   -0.34 KCAL/MOL
REMARK 927      BINDING AFFINITY PREDICTED BY RF-SCORE:    0.00 PKD
ROOT
HETATM    1  C   UNL     1     -11.431  13.761  64.346  1.00  0.00    -0.392 C  
HETATM    2  C   UNL     1     -10.579  12.551  63.989  1.00  0.00    -0.451 C  
ENDROOT
BRANCH   2   3
HETATM    3  C   UNL     1     -10.876  11.361  64.906  1.00  0.00    -0.323 C  
BRANCH   3   4
HETATM    4  C   UNL     1      -9.610  10.667  65.435  1.00  0.00    -0.230 C  
BRANCH   4   5
HETATM    5  N   UNL     1      -9.806   9.842  66.637  1.00  0.00    -0.196 NA 
HETATM    6  C   UNL     1      -9.575   8.399  66.424  1.00  0.00    -0.237 C  
HETATM    7  C   UNL     1      -8.112   7.943  66.396  1.00  0.00    -0.108 C  
HETATM    8  C   UNL     1      -7.282   8.519  67.538  1.00  0.00    -0.084 C  
HETATM    9  C   UNL     1      -7.501  10.023  67.654  1.00  0.00    -0.090 C  
HETATM   10  C   UNL     1      -8.993  10.353  67.779  1.00  0.00    -0.131 C  
BRANCH  10  11
HETATM   11  C   UNL     1      -9.566   9.836  69.123  1.00  0.00    -0.188 C  
HETATM   12  N   UNL     1     -10.916   9.525  69.047  1.00  0.00    -0.398 N  
HETATM   13  O   UNL     1      -8.896   9.793  70.154  1.00  0.00    -0.218 OA 
HETATM   14  H   UNL     1     -11.384   9.508  68.141  1.00  0.00     0.000 HD 
BRANCH  12  15
HETATM   15  C   UNL     1     -11.638   9.235  70.214  1.00  0.00    -0.114 A  
HETATM   16  C   UNL     1     -12.317  10.265  70.890  1.00  0.00    -0.471 A  
HETATM   17  C   UNL     1     -12.213  11.710  70.506  1.00  0.00    -0.451 C  
HETATM   18  C   UNL     1     -13.019   9.935  72.062  1.00  0.00    -0.518 A  
HETATM   19  C   UNL     1     -13.071   8.617  72.522  1.00  0.00    -0.339 A  
HETATM   20  C   UNL     1     -12.419   7.607  71.827  1.00  0.00    -0.358 A  
HETATM   21  C   UNL     1     -11.691   7.899  70.670  1.00  0.00    -0.169 A  
HETATM   22  C   UNL     1     -11.008   6.784  69.924  1.00  0.00    -0.340 C  
ENDBRANCH  12  15
ENDBRANCH  10  11
ENDBRANCH   4   5
ENDBRANCH   3   4
ENDBRANCH   2   3
TORSDOF 5
ENDMDL
MODEL      100
REMARK 921   NORMALIZED FREE ENERGY PREDICTED BY IDOCK:   -4.41 KCAL/MOL
REMARK 922        TOTAL FREE ENERGY PREDICTED BY IDOCK:   -6.13 KCAL/MOL
REMARK 923 INTER-LIGAND FREE ENERGY PREDICTED BY IDOCK:   -5.72 KCAL/MOL
REMARK 924 INTRA-LIGAND FREE ENERGY PREDICTED BY IDOCK:   -0.42 KCAL/MOL
REMARK 927      BINDING AFFINITY PREDICTED BY RF-SCORE:    0.00 PKD
ROOT
HETATM    1  C   UNL     1     -10.644  19.519  66.761  1.00  0.00    -0.597 C  
HETATM    2  C   UNL     1     -10.461  18.111  67.311  1.00  0.00    -0.407 C  
ENDROOT
BRANCH   2   3
HETATM    3  C   UNL     1      -9.855  17.170  66.265  1.00  0.00    -0.306 C  
BRANCH   3   4
HETATM    4  C   UNL     1     -10.847  16.115  65.748  1.00  0.00    -0.201 C  
BRANCH   4   5
HETATM    5  N   UNL     1     -10.813  14.826  66.456  1.00  0.00    -0.313 NA 
HETATM    6  C   UNL     1     -12.140  14.211  66.656  1.00  0.00    -0.451 C  
HETATM    7  C   UNL     1     -12.741  13.487  65.446  1.00  0.00    -0.495 C  
HETATM    8  C   UNL     1     -11.751  12.560  64.750  1.00  0.00    -0.411 C  
HETATM    9  C   UNL     1     -10.430  13.277  64.498  1.00  0.00    -0.434 C  
HETATM   10  C   UNL     1      -9.873  13.873  65.797  1.00  0.00    -0.239 C  
BRANCH  10  11
HETATM   11  C   UNL     1      -9.454  12.756  66.786  1.00  0.00    -0.243 C  
HETATM   12  N   UNL     1      -8.464  11.929  66.275  1.00  0.00    -0.385 N  
HETATM   13  O   UNL     1     -10.013  12.589  67.869  1.00  0.00    -0.200 OA 
HETATM   14  H   UNL     1      -7.992  12.178  65.405  1.00  0.00     0.000 HD 
BRANCH  12  15
HETATM   15  C   UNL     1      -8.109  10.754  66.952  1.00  0.00    -0.132 A  
HETATM   16  C   UNL     1      -7.113  10.793  67.945  1.00  0.00    -0.085 A  
HETATM   17  C   UNL     1      -6.297  12.014  68.245  1.00  0.00    -0.052 C  
HETATM   18  C   UNL     1      -6.779   9.592  68.593  1.00  0.00    -0.052 A  
HETATM   19  C   UNL     1      -7.442   8.401  68.286  1.00  0.00    -0.096 A  
HETATM   20  C   UNL     1      -8.443   8.385  67.324  1.00  0.00    -0.124 A  
HETATM   21  C   UNL     1      -8.788   9.555  66.641  1.00  0.00    -0.150 A  
HETATM   22  C   UNL     1      -9.889   9.515  65.616  1.00  0.00    -0.343 C  
ENDBRANCH  12  15
ENDBRANCH  10  11
ENDBRANCH   4   5
ENDBRANCH   3   4
ENDBRANCH   2   3
TORSDOF 5
ENDMDL
MODEL      101
REMARK 921   NORMALIZED FREE ENERGY PREDICTED BY IDOCK:   -4.40 KCAL/MOL
REMARK 922        TOTAL FREE ENERGY PREDICTED BY IDOCK:   -6.12 KCAL/MOL
REMARK 923 INTER-LIGAND FREE ENERGY PREDICTED BY IDOCK:   -6.16 KCAL/MOL
REMARK 924 INTRA-LIGAND FREE ENERGY PREDICTED BY IDOCK:    0.05 KCAL/MOL
REMARK 927      BINDING AFFINITY PREDICTED BY RF-SCORE:    0.00 PKD
ROOT
HETATM    1  C   UNL     1     -10.409  19.808  67.049  1.00  0.00    -0.593 C  
HETATM    2  C   UNL     1     -10.850  18.770  68.072  1.00  0.00    -0.168 C  
ENDROOT
BRANCH   2   3
HETATM    3  C   UNL     1     -10.771  17.349  67.504  1.00  0.00    -0.278 C  
BRANCH   3   4
HETATM    4  C   UNL     1     -11.318  16.278  68.462  1.00  0.00    -0.330 C  
BRANCH   4   5
HETATM    5  N   UNL     1     -11.362  14.914  67.913  1.00  0.00    -0.315 NA 
HETATM    6  C   UNL     1     -11.004  14.826  66.483  1.00  0.00    -0.325 C  
HETATM    7  C   UNL     1      -9.508  14.868  66.155  1.00  0.00    -0.328 C  
HETATM    8  C   UNL     1      -8.674  13.947  67.039  1.00  0.00    -0.215 C  
HETATM    9  C   UNL     1      -9.032  14.143  68.507  1.00  0.00    -0.174 C  
HETATM   10  C   UNL     1     -10.540  13.976  68.732  1.00  0.00    -0.251 C  
BRANCH  10  11
HETATM   11  C   UNL     1     -10.981  12.512  68.482  1.00  0.00    -0.249 C  
HETATM   12  N   UNL     1      -9.960  11.598  68.706  1.00  0.00    -0.345 N  
HETATM   13  O   UNL     1     -12.096  12.222  68.051  1.00  0.00    -0.439 OA 
HETATM   14  H   UNL     1      -9.089  11.904  69.139  1.00  0.00     0.000 HD 
BRANCH  12  15
HETATM   15  C   UNL     1     -10.125  10.255  68.337  1.00  0.00    -0.159 A  
HETATM   16  C   UNL     1     -10.500   9.307  69.306  1.00  0.00    -0.228 A  
HETATM   17  C   UNL     1     -10.614   9.622  70.767  1.00  0.00    -0.392 C  
HETATM   18  C   UNL     1     -10.644   7.969  68.899  1.00  0.00    -0.160 A  
HETATM   19  C   UNL     1     -10.456   7.599  67.565  1.00  0.00    -0.336 A  
HETATM   20  C   UNL     1     -10.115   8.553  66.616  1.00  0.00    -0.364 A  
HETATM   21  C   UNL     1      -9.940   9.890  66.986  1.00  0.00    -0.254 A  
HETATM   22  C   UNL     1      -9.587  10.908  65.934  1.00  0.00    -0.257 C  
ENDBRANCH  12  15
ENDBRANCH  10  11
ENDBRANCH   4   5
ENDBRANCH   3   4
ENDBRANCH   2   3
TORSDOF 5
ENDMDL
MODEL      102
REMARK 921   NORMALIZED FREE ENERGY PREDICTED BY IDOCK:   -4.40 KCAL/MOL
REMARK 922        TOTAL FREE ENERGY PREDICTED BY IDOCK:   -6.12 KCAL/MOL
REMARK 923 INTER-LIGAND FREE ENERGY PREDICTED BY IDOCK:   -5.97 KCAL/MOL
REMARK 924 INTRA-LIGAND FREE ENERGY PREDICTED BY IDOCK:   -0.14 KCAL/MOL
REMARK 927      BINDING AFFINITY PREDICTED BY RF-SCORE:    0.00 PKD
ROOT
HETATM    1  C   UNL     1     -12.425  12.010  63.307  1.00  0.00    -0.544 C  
HETATM    2  C   UNL     1     -10.907  12.097  63.370  1.00  0.00    -0.474 C  
ENDROOT
BRANCH   2   3
HETATM    3  C   UNL     1     -10.279  10.754  63.758  1.00  0.00    -0.354 C  
BRANCH   3   4
HETATM    4  C   UNL     1     -10.041  10.606  65.271  1.00  0.00    -0.297 C  
BRANCH   4   5
HETATM    5  N   UNL     1     -10.282  11.822  66.062  1.00  0.00    -0.222 NA 
HETATM    6  C   UNL     1     -11.502  11.772  66.892  1.00  0.00    -0.293 C  
HETATM    7  C   UNL     1     -11.398  10.985  68.203  1.00  0.00    -0.374 C  
HETATM    8  C   UNL     1     -10.144  11.316  69.004  1.00  0.00    -0.147 C  
HETATM    9  C   UNL     1      -8.910  11.273  68.110  1.00  0.00    -0.159 C  
HETATM   10  C   UNL     1      -9.088  12.176  66.884  1.00  0.00    -0.203 C  
BRANCH  10  11
HETATM   11  C   UNL     1      -9.139  13.670  67.296  1.00  0.00    -0.228 C  
HETATM   12  N   UNL     1      -8.710  14.520  66.287  1.00  0.00    -0.429 N  
HETATM   13  O   UNL     1      -9.450  14.031  68.430  1.00  0.00    -0.209 OA 
HETATM   14  H   UNL     1      -8.545  14.154  65.349  1.00  0.00     0.000 HD 
BRANCH  12  15
HETATM   15  C   UNL     1      -8.503  15.881  66.555  1.00  0.00    -0.313 A  
HETATM   16  C   UNL     1      -7.296  16.300  67.145  1.00  0.00    -0.244 A  
HETATM   17  C   UNL     1      -6.244  15.351  67.632  1.00  0.00    -0.167 C  
HETATM   18  C   UNL     1      -7.132  17.671  67.408  1.00  0.00    -0.187 A  
HETATM   19  C   UNL     1      -8.122  18.594  67.061  1.00  0.00    -0.259 A  
HETATM   20  C   UNL     1      -9.295  18.166  66.454  1.00  0.00    -0.274 A  
HETATM   21  C   UNL     1      -9.506  16.808  66.197  1.00  0.00    -0.295 A  
HETATM   22  C   UNL     1     -10.778  16.372  65.520  1.00  0.00    -0.300 C  
ENDBRANCH  12  15
ENDBRANCH  10  11
ENDBRANCH   4   5
ENDBRANCH   3   4
ENDBRANCH   2   3
TORSDOF 5
ENDMDL
MODEL      103
REMARK 921   NORMALIZED FREE ENERGY PREDICTED BY IDOCK:   -4.39 KCAL/MOL
REMARK 922        TOTAL FREE ENERGY PREDICTED BY IDOCK:   -6.11 KCAL/MOL
REMARK 923 INTER-LIGAND FREE ENERGY PREDICTED BY IDOCK:   -5.61 KCAL/MOL
REMARK 924 INTRA-LIGAND FREE ENERGY PREDICTED BY IDOCK:   -0.50 KCAL/MOL
REMARK 927      BINDING AFFINITY PREDICTED BY RF-SCORE:    0.00 PKD
ROOT
HETATM    1  C   UNL     1     -12.132  12.118  63.548  1.00  0.00    -0.649 C  
HETATM    2  C   UNL     1     -10.657  12.111  63.926  1.00  0.00    -0.457 C  
ENDROOT
BRANCH   2   3
HETATM    3  C   UNL     1     -10.097  10.687  63.990  1.00  0.00    -0.378 C  
BRANCH   3   4
HETATM    4  C   UNL     1     -10.107  10.091  65.408  1.00  0.00    -0.247 C  
BRANCH   4   5
HETATM    5  N   UNL     1     -10.272  11.068  66.494  1.00  0.00    -0.226 NA 
HETATM    6  C   UNL     1     -11.190  10.632  67.565  1.00  0.00    -0.253 C  
HETATM    7  C   UNL     1     -10.618   9.646  68.590  1.00  0.00    -0.246 C  
HETATM    8  C   UNL     1      -9.243  10.052  69.110  1.00  0.00    -0.196 C  
HETATM    9  C   UNL     1      -8.317  10.412  67.954  1.00  0.00    -0.114 C  
HETATM   10  C   UNL     1      -8.951  11.480  67.054  1.00  0.00    -0.174 C  
BRANCH  10  11
HETATM   11  C   UNL     1      -9.080  12.832  67.802  1.00  0.00    -0.197 C  
HETATM   12  N   UNL     1     -10.265  13.494  67.514  1.00  0.00    -0.232 N  
HETATM   13  O   UNL     1      -8.178  13.287  68.504  1.00  0.00    -0.147 OA 
HETATM   14  H   UNL     1     -10.999  13.019  66.988  1.00  0.00     0.000 HD 
BRANCH  12  15
HETATM   15  C   UNL     1     -10.455  14.815  67.945  1.00  0.00    -0.246 A  
HETATM   16  C   UNL     1     -10.051  15.882  67.123  1.00  0.00    -0.264 A  
HETATM   17  C   UNL     1      -9.298  15.695  65.841  1.00  0.00    -0.357 C  
HETATM   18  C   UNL     1     -10.248  17.191  67.596  1.00  0.00    -0.329 A  
HETATM   19  C   UNL     1     -10.861  17.425  68.830  1.00  0.00    -0.081 A  
HETATM   20  C   UNL     1     -11.279  16.360  69.616  1.00  0.00    -0.257 A  
HETATM   21  C   UNL     1     -11.080  15.044  69.191  1.00  0.00    -0.278 A  
HETATM   22  C   UNL     1     -11.560  13.907  70.053  1.00  0.00    -0.282 C  
ENDBRANCH  12  15
ENDBRANCH  10  11
ENDBRANCH   4   5
ENDBRANCH   3   4
ENDBRANCH   2   3
TORSDOF 5
ENDMDL
MODEL      104
REMARK 921   NORMALIZED FREE ENERGY PREDICTED BY IDOCK:   -4.38 KCAL/MOL
REMARK 922        TOTAL FREE ENERGY PREDICTED BY IDOCK:   -6.10 KCAL/MOL
REMARK 923 INTER-LIGAND FREE ENERGY PREDICTED BY IDOCK:   -5.71 KCAL/MOL
REMARK 924 INTRA-LIGAND FREE ENERGY PREDICTED BY IDOCK:   -0.39 KCAL/MOL
REMARK 927      BINDING AFFINITY PREDICTED BY RF-SCORE:    0.00 PKD
ROOT
HETATM    1  C   UNL     1      -7.273   9.479  64.597  1.00  0.00    -0.113 C  
HETATM    2  C   UNL     1      -8.646   9.356  63.951  1.00  0.00    -0.225 C  
ENDROOT
BRANCH   2   3
HETATM    3  C   UNL     1      -9.690  10.211  64.675  1.00  0.00    -0.377 C  
BRANCH   3   4
HETATM    4  C   UNL     1      -9.074  11.247  65.630  1.00  0.00    -0.189 C  
BRANCH   4   5
HETATM    5  N   UNL     1      -9.061  10.858  67.049  1.00  0.00    -0.148 NA 
HETATM    6  C   UNL     1      -8.797  11.974  67.979  1.00  0.00    -0.179 C  
HETATM    7  C   UNL     1      -9.981  12.898  68.283  1.00  0.00    -0.234 C  
HETATM    8  C   UNL     1     -11.265  12.142  68.605  1.00  0.00    -0.318 C  
HETATM    9  C   UNL     1     -11.525  11.059  67.565  1.00  0.00    -0.266 C  
HETATM   10  C   UNL     1     -10.311  10.133  67.420  1.00  0.00    -0.238 C  
BRANCH  10  11
HETATM   11  C   UNL     1     -10.091   9.301  68.709  1.00  0.00    -0.195 C  
HETATM   12  N   UNL     1     -11.225   8.604  69.099  1.00  0.00    -0.391 N  
HETATM   13  O   UNL     1      -9.039   9.336  69.346  1.00  0.00    -0.141 OA 
HETATM   14  H   UNL     1     -12.033   8.558  68.478  1.00  0.00     0.000 HD 
BRANCH  12  15
HETATM   15  C   UNL     1     -11.263   7.962  70.345  1.00  0.00    -0.234 A  
HETATM   16  C   UNL     1     -11.771   8.644  71.466  1.00  0.00    -0.369 A  
HETATM   17  C   UNL     1     -12.169  10.089  71.441  1.00  0.00    -0.510 C  
HETATM   18  C   UNL     1     -11.781   7.970  72.700  1.00  0.00    -0.418 A  
HETATM   19  C   UNL     1     -11.333   6.651  72.802  1.00  0.00    -0.223 A  
HETATM   20  C   UNL     1     -10.861   5.984  71.680  1.00  0.00    -0.314 A  
HETATM   21  C   UNL     1     -10.814   6.627  70.440  1.00  0.00    -0.316 A  
HETATM   22  C   UNL     1     -10.315   5.875  69.235  1.00  0.00    -0.312 C  
ENDBRANCH  12  15
ENDBRANCH  10  11
ENDBRANCH   4   5
ENDBRANCH   3   4
ENDBRANCH   2   3
TORSDOF 5
ENDMDL
MODEL      105
REMARK 921   NORMALIZED FREE ENERGY PREDICTED BY IDOCK:   -4.38 KCAL/MOL
REMARK 922        TOTAL FREE ENERGY PREDICTED BY IDOCK:   -6.09 KCAL/MOL
REMARK 923 INTER-LIGAND FREE ENERGY PREDICTED BY IDOCK:   -5.80 KCAL/MOL
REMARK 924 INTRA-LIGAND FREE ENERGY PREDICTED BY IDOCK:   -0.30 KCAL/MOL
REMARK 927      BINDING AFFINITY PREDICTED BY RF-SCORE:    0.00 PKD
ROOT
HETATM    1  C   UNL     1      -7.387   2.315  72.510  1.00  0.00    -0.039 C  
HETATM    2  C   UNL     1      -8.593   2.527  71.605  1.00  0.00    -0.095 C  
ENDROOT
BRANCH   2   3
HETATM    3  C   UNL     1      -9.085   3.977  71.650  1.00  0.00    -0.174 C  
BRANCH   3   4
HETATM    4  C   UNL     1      -8.712   4.786  70.397  1.00  0.00    -0.098 C  
BRANCH   4   5
HETATM    5  N   UNL     1      -9.010   6.224  70.471  1.00  0.00    -0.150 NA 
HETATM    6  C   UNL     1      -8.337   7.036  69.437  1.00  0.00    -0.133 C  
HETATM    7  C   UNL     1      -8.969   7.016  68.041  1.00  0.00    -0.126 C  
HETATM    8  C   UNL     1     -10.481   7.212  68.065  1.00  0.00    -0.251 C  
HETATM    9  C   UNL     1     -11.126   6.289  69.093  1.00  0.00    -0.457 C  
HETATM   10  C   UNL     1     -10.482   6.470  70.473  1.00  0.00    -0.207 C  
BRANCH  10  11
HETATM   11  C   UNL     1     -10.794   7.874  71.053  1.00  0.00    -0.235 C  
HETATM   12  N   UNL     1     -11.850   8.499  70.405  1.00  0.00    -0.475 N  
HETATM   13  O   UNL     1     -10.112   8.390  71.936  1.00  0.00    -0.215 OA 
HETATM   14  H   UNL     1     -12.419   7.977  69.738  1.00  0.00     0.000 HD 
BRANCH  12  15
HETATM   15  C   UNL     1     -12.137   9.847  70.667  1.00  0.00    -0.257 A  
HETATM   16  C   UNL     1     -13.008  10.183  71.718  1.00  0.00    -0.567 A  
HETATM   17  C   UNL     1     -13.767   9.168  72.517  1.00  0.00    -0.499 C  
HETATM   18  C   UNL     1     -13.278  11.545  71.941  1.00  0.00    -0.479 A  
HETATM   19  C   UNL     1     -12.671  12.535  71.165  1.00  0.00    -0.340 A  
HETATM   20  C   UNL     1     -11.792  12.186  70.149  1.00  0.00    -0.368 A  
HETATM   21  C   UNL     1     -11.515  10.842  69.881  1.00  0.00    -0.398 A  
HETATM   22  C   UNL     1     -10.543  10.491  68.787  1.00  0.00    -0.233 C  
ENDBRANCH  12  15
ENDBRANCH  10  11
ENDBRANCH   4   5
ENDBRANCH   3   4
ENDBRANCH   2   3
TORSDOF 5
ENDMDL
MODEL      106
REMARK 921   NORMALIZED FREE ENERGY PREDICTED BY IDOCK:   -4.38 KCAL/MOL
REMARK 922        TOTAL FREE ENERGY PREDICTED BY IDOCK:   -6.09 KCAL/MOL
REMARK 923 INTER-LIGAND FREE ENERGY PREDICTED BY IDOCK:   -5.72 KCAL/MOL
REMARK 924 INTRA-LIGAND FREE ENERGY PREDICTED BY IDOCK:   -0.37 KCAL/MOL
REMARK 927      BINDING AFFINITY PREDICTED BY RF-SCORE:    0.00 PKD
ROOT
HETATM    1  C   UNL     1      -9.633  10.346  63.675  1.00  0.00    -0.364 C  
HETATM    2  C   UNL     1     -10.059  11.731  63.208  1.00  0.00    -0.448 C  
ENDROOT
BRANCH   2   3
HETATM    3  C   UNL     1     -11.253  12.255  64.012  1.00  0.00    -0.456 C  
BRANCH   3   4
HETATM    4  C   UNL     1     -10.848  12.967  65.313  1.00  0.00    -0.291 C  
BRANCH   4   5
HETATM    5  N   UNL     1     -10.165  12.119  66.302  1.00  0.00    -0.219 NA 
HETATM    6  C   UNL     1      -9.256  12.855  67.203  1.00  0.00    -0.225 C  
HETATM    7  C   UNL     1      -9.914  13.610  68.363  1.00  0.00    -0.235 C  
HETATM    8  C   UNL     1     -10.951  12.778  69.109  1.00  0.00    -0.185 C  
HETATM    9  C   UNL     1     -11.909  12.111  68.129  1.00  0.00    -0.362 C  
HETATM   10  C   UNL     1     -11.142  11.300  67.077  1.00  0.00    -0.293 C  
BRANCH  10  11
HETATM   11  C   UNL     1     -10.434  10.081  67.721  1.00  0.00    -0.234 C  
HETATM   12  N   UNL     1     -11.311   9.251  68.405  1.00  0.00    -0.315 N  
HETATM   13  O   UNL     1      -9.214   9.933  67.688  1.00  0.00    -0.133 OA 
HETATM   14  H   UNL     1     -12.317   9.393  68.321  1.00  0.00     0.000 HD 
BRANCH  12  15
HETATM   15  C   UNL     1     -10.815   8.216  69.211  1.00  0.00    -0.050 A  
HETATM   16  C   UNL     1     -10.625   8.433  70.588  1.00  0.00    -0.234 A  
HETATM   17  C   UNL     1     -10.804   9.769  71.243  1.00  0.00    -0.276 C  
HETATM   18  C   UNL     1     -10.116   7.375  71.359  1.00  0.00    -0.196 A  
HETATM   19  C   UNL     1      -9.840   6.133  70.783  1.00  0.00    -0.220 A  
HETATM   20  C   UNL     1     -10.060   5.926  69.427  1.00  0.00    -0.260 A  
HETATM   21  C   UNL     1     -10.544   6.961  68.622  1.00  0.00    -0.254 A  
HETATM   22  C   UNL     1     -10.792   6.707  67.159  1.00  0.00    -0.471 C  
ENDBRANCH  12  15
ENDBRANCH  10  11
ENDBRANCH   4   5
ENDBRANCH   3   4
ENDBRANCH   2   3
TORSDOF 5
ENDMDL
MODEL      107
REMARK 921   NORMALIZED FREE ENERGY PREDICTED BY IDOCK:   -4.37 KCAL/MOL
REMARK 922        TOTAL FREE ENERGY PREDICTED BY IDOCK:   -6.09 KCAL/MOL
REMARK 923 INTER-LIGAND FREE ENERGY PREDICTED BY IDOCK:   -5.79 KCAL/MOL
REMARK 924 INTRA-LIGAND FREE ENERGY PREDICTED BY IDOCK:   -0.29 KCAL/MOL
REMARK 927      BINDING AFFINITY PREDICTED BY RF-SCORE:    0.00 PKD
ROOT
HETATM    1  C   UNL     1     -10.625  17.889  67.772  1.00  0.00    -0.399 C  
HETATM    2  C   UNL     1      -9.846  17.203  66.658  1.00  0.00    -0.295 C  
ENDROOT
BRANCH   2   3
HETATM    3  C   UNL     1     -10.689  17.056  65.387  1.00  0.00    -0.126 C  
BRANCH   3   4
HETATM    4  C   UNL     1     -10.929  15.592  64.980  1.00  0.00    -0.431 C  
BRANCH   4   5
HETATM    5  N   UNL     1     -10.947  14.630  66.092  1.00  0.00    -0.323 NA 
HETATM    6  C   UNL     1     -12.241  13.941  66.274  1.00  0.00    -0.461 C  
HETATM    7  C   UNL     1     -12.532  12.781  65.316  1.00  0.00    -0.528 C  
HETATM    8  C   UNL     1     -11.359  11.820  65.164  1.00  0.00    -0.281 C  
HETATM    9  C   UNL     1     -10.069  12.586  64.897  1.00  0.00    -0.249 C  
HETATM   10  C   UNL     1      -9.828  13.650  65.975  1.00  0.00    -0.276 C  
BRANCH  10  11
HETATM   11  C   UNL     1      -9.540  12.994  67.350  1.00  0.00    -0.211 C  
HETATM   12  N   UNL     1      -9.529  11.607  67.291  1.00  0.00    -0.167 N  
HETATM   13  O   UNL     1      -9.420  13.650  68.383  1.00  0.00    -0.208 OA 
HETATM   14  H   UNL     1      -9.555  11.136  66.387  1.00  0.00     0.000 HD 
BRANCH  12  15
HETATM   15  C   UNL     1      -9.482  10.854  68.473  1.00  0.00    -0.185 A  
HETATM   16  C   UNL     1      -8.248  10.365  68.940  1.00  0.00    -0.132 A  
HETATM   17  C   UNL     1      -6.967  10.493  68.173  1.00  0.00    -0.073 C  
HETATM   18  C   UNL     1      -8.244   9.605  70.122  1.00  0.00    -0.206 A  
HETATM   19  C   UNL     1      -9.425   9.372  70.831  1.00  0.00    -0.279 A  
HETATM   20  C   UNL     1     -10.630   9.886  70.371  1.00  0.00    -0.364 A  
HETATM   21  C   UNL     1     -10.679  10.627  69.187  1.00  0.00    -0.264 A  
HETATM   22  C   UNL     1     -11.995  11.189  68.719  1.00  0.00    -0.337 C  
ENDBRANCH  12  15
ENDBRANCH  10  11
ENDBRANCH   4   5
ENDBRANCH   3   4
ENDBRANCH   2   3
TORSDOF 5
ENDMDL
MODEL      108
REMARK 921   NORMALIZED FREE ENERGY PREDICTED BY IDOCK:   -4.36 KCAL/MOL
REMARK 922        TOTAL FREE ENERGY PREDICTED BY IDOCK:   -6.08 KCAL/MOL
REMARK 923 INTER-LIGAND FREE ENERGY PREDICTED BY IDOCK:   -5.41 KCAL/MOL
REMARK 924 INTRA-LIGAND FREE ENERGY PREDICTED BY IDOCK:   -0.67 KCAL/MOL
REMARK 927      BINDING AFFINITY PREDICTED BY RF-SCORE:    0.00 PKD
ROOT
HETATM    1  C   UNL     1     -11.399   4.348  73.462  1.00  0.00    -0.334 C  
HETATM    2  C   UNL     1     -10.203   3.409  73.539  1.00  0.00    -0.212 C  
ENDROOT
BRANCH   2   3
HETATM    3  C   UNL     1      -9.867   2.809  72.171  1.00  0.00    -0.239 C  
BRANCH   3   4
HETATM    4  C   UNL     1      -8.723   3.539  71.447  1.00  0.00    -0.085 C  
BRANCH   4   5
HETATM    5  N   UNL     1      -9.057   4.881  70.948  1.00  0.00    -0.137 NA 
HETATM    6  C   UNL     1      -7.895   5.651  70.459  1.00  0.00    -0.099 C  
HETATM    7  C   UNL     1      -7.389   5.296  69.056  1.00  0.00    -0.066 C  
HETATM    8  C   UNL     1      -8.507   5.182  68.026  1.00  0.00    -0.100 C  
HETATM    9  C   UNL     1      -9.639   4.310  68.557  1.00  0.00    -0.202 C  
HETATM   10  C   UNL     1     -10.134   4.820  69.916  1.00  0.00    -0.229 C  
BRANCH  10  11
HETATM   11  C   UNL     1     -10.825   6.201  69.774  1.00  0.00    -0.353 C  
HETATM   12  N   UNL     1     -10.802   6.936  70.951  1.00  0.00    -0.237 N  
HETATM   13  O   UNL     1     -11.398   6.549  68.743  1.00  0.00    -0.278 OA 
HETATM   14  H   UNL     1     -10.239   6.617  71.739  1.00  0.00     0.000 HD 
BRANCH  12  15
HETATM   15  C   UNL     1     -11.551   8.117  71.057  1.00  0.00    -0.279 A  
HETATM   16  C   UNL     1     -12.890   8.057  71.486  1.00  0.00    -0.331 A  
HETATM   17  C   UNL     1     -13.623   6.771  71.721  1.00  0.00    -0.163 C  
HETATM   18  C   UNL     1     -13.611   9.261  71.568  1.00  0.00    -0.412 A  
HETATM   19  C   UNL     1     -13.005  10.483  71.268  1.00  0.00    -0.532 A  
HETATM   20  C   UNL     1     -11.674  10.527  70.874  1.00  0.00    -0.431 A  
HETATM   21  C   UNL     1     -10.931   9.349  70.758  1.00  0.00    -0.371 A  
HETATM   22  C   UNL     1      -9.484   9.425  70.346  1.00  0.00    -0.319 C  
ENDBRANCH  12  15
ENDBRANCH  10  11
ENDBRANCH   4   5
ENDBRANCH   3   4
ENDBRANCH   2   3
TORSDOF 5
ENDMDL
MODEL      109
REMARK 921   NORMALIZED FREE ENERGY PREDICTED BY IDOCK:   -4.36 KCAL/MOL
REMARK 922        TOTAL FREE ENERGY PREDICTED BY IDOCK:   -6.07 KCAL/MOL
REMARK 923 INTER-LIGAND FREE ENERGY PREDICTED BY IDOCK:   -5.95 KCAL/MOL
REMARK 924 INTRA-LIGAND FREE ENERGY PREDICTED BY IDOCK:   -0.12 KCAL/MOL
REMARK 927      BINDING AFFINITY PREDICTED BY RF-SCORE:    0.00 PKD
ROOT
HETATM    1  C   UNL     1     -12.367  14.759  64.332  1.00  0.00    -0.389 C  
HETATM    2  C   UNL     1     -12.155  13.388  63.705  1.00  0.00    -0.513 C  
ENDROOT
BRANCH   2   3
HETATM    3  C   UNL     1     -11.623  12.377  64.725  1.00  0.00    -0.395 C  
BRANCH   3   4
HETATM    4  C   UNL     1     -10.254  12.762  65.309  1.00  0.00    -0.279 C  
BRANCH   4   5
HETATM    5  N   UNL     1      -9.762  11.882  66.380  1.00  0.00    -0.216 NA 
HETATM    6  C   UNL     1      -9.147  12.597  67.516  1.00  0.00    -0.192 C  
HETATM    7  C   UNL     1     -10.114  13.223  68.527  1.00  0.00    -0.208 C  
HETATM    8  C   UNL     1     -11.233  12.278  68.950  1.00  0.00    -0.323 C  
HETATM    9  C   UNL     1     -11.882  11.634  67.731  1.00  0.00    -0.247 C  
HETATM   10  C   UNL     1     -10.831  10.951  66.846  1.00  0.00    -0.249 C  
BRANCH  10  11
HETATM   11  C   UNL     1     -10.207   9.729  67.567  1.00  0.00    -0.220 C  
HETATM   12  N   UNL     1     -11.152   8.956  68.227  1.00  0.00    -0.446 N  
HETATM   13  O   UNL     1      -8.993   9.534  67.606  1.00  0.00    -0.119 OA 
HETATM   14  H   UNL     1     -12.146   9.133  68.083  1.00  0.00     0.000 HD 
BRANCH  12  15
HETATM   15  C   UNL     1     -10.741   7.931  69.092  1.00  0.00    -0.117 A  
HETATM   16  C   UNL     1     -10.529   6.635  68.587  1.00  0.00    -0.241 A  
HETATM   17  C   UNL     1     -10.843   6.239  67.176  1.00  0.00    -0.460 C  
HETATM   18  C   UNL     1     -10.129   5.632  69.488  1.00  0.00    -0.292 A  
HETATM   19  C   UNL     1      -9.912   5.923  70.837  1.00  0.00    -0.238 A  
HETATM   20  C   UNL     1     -10.098   7.214  71.313  1.00  0.00    -0.196 A  
HETATM   21  C   UNL     1     -10.518   8.233  70.453  1.00  0.00    -0.223 A  
HETATM   22  C   UNL     1     -10.694   9.628  70.990  1.00  0.00    -0.393 C  
ENDBRANCH  12  15
ENDBRANCH  10  11
ENDBRANCH   4   5
ENDBRANCH   3   4
ENDBRANCH   2   3
TORSDOF 5
ENDMDL
MODEL      110
REMARK 921   NORMALIZED FREE ENERGY PREDICTED BY IDOCK:   -4.34 KCAL/MOL
REMARK 922        TOTAL FREE ENERGY PREDICTED BY IDOCK:   -6.05 KCAL/MOL
REMARK 923 INTER-LIGAND FREE ENERGY PREDICTED BY IDOCK:   -5.62 KCAL/MOL
REMARK 924 INTRA-LIGAND FREE ENERGY PREDICTED BY IDOCK:   -0.43 KCAL/MOL
REMARK 927      BINDING AFFINITY PREDICTED BY RF-SCORE:    0.00 PKD
ROOT
HETATM    1  C   UNL     1     -10.710  19.446  65.948  1.00  0.00    -0.501 C  
HETATM    2  C   UNL     1      -9.639  20.151  66.770  1.00  0.00    -0.559 C  
ENDROOT
BRANCH   2   3
HETATM    3  C   UNL     1      -9.565  19.597  68.196  1.00  0.00    -0.474 C  
BRANCH   3   4
HETATM    4  C   UNL     1      -8.319  18.733  68.452  1.00  0.00    -0.342 C  
BRANCH   4   5
HETATM    5  N   UNL     1      -8.284  17.457  67.722  1.00  0.00    -0.213 NA 
HETATM    6  C   UNL     1      -7.108  17.295  66.843  1.00  0.00    -0.199 C  
HETATM    7  C   UNL     1      -5.798  16.895  67.530  1.00  0.00    -0.166 C  
HETATM    8  C   UNL     1      -5.967  15.748  68.521  1.00  0.00    -0.103 C  
HETATM    9  C   UNL     1      -7.144  16.012  69.452  1.00  0.00    -0.217 C  
HETATM   10  C   UNL     1      -8.422  16.299  68.653  1.00  0.00    -0.221 C  
BRANCH  10  11
HETATM   11  C   UNL     1      -8.891  15.039  67.882  1.00  0.00    -0.171 C  
HETATM   12  N   UNL     1      -9.270  14.004  68.726  1.00  0.00    -0.372 N  
HETATM   13  O   UNL     1      -8.845  14.960  66.656  1.00  0.00    -0.260 OA 
HETATM   14  H   UNL     1      -9.359  14.171  69.728  1.00  0.00     0.000 HD 
BRANCH  12  15
HETATM   15  C   UNL     1      -9.530  12.730  68.202  1.00  0.00    -0.219 A  
HETATM   16  C   UNL     1     -10.800  12.439  67.673  1.00  0.00    -0.258 A  
HETATM   17  C   UNL     1     -11.961  13.384  67.749  1.00  0.00    -0.363 C  
HETATM   18  C   UNL     1     -11.025  11.146  67.168  1.00  0.00    -0.350 A  
HETATM   19  C   UNL     1     -10.006  10.191  67.158  1.00  0.00    -0.243 A  
HETATM   20  C   UNL     1      -8.749  10.504  67.658  1.00  0.00    -0.121 A  
HETATM   21  C   UNL     1      -8.493  11.771  68.191  1.00  0.00    -0.158 A  
HETATM   22  C   UNL     1      -7.117  12.091  68.710  1.00  0.00    -0.111 C  
ENDBRANCH  12  15
ENDBRANCH  10  11
ENDBRANCH   4   5
ENDBRANCH   3   4
ENDBRANCH   2   3
TORSDOF 5
ENDMDL
MODEL      111
REMARK 921   NORMALIZED FREE ENERGY PREDICTED BY IDOCK:   -4.27 KCAL/MOL
REMARK 922        TOTAL FREE ENERGY PREDICTED BY IDOCK:   -5.95 KCAL/MOL
REMARK 923 INTER-LIGAND FREE ENERGY PREDICTED BY IDOCK:   -5.54 KCAL/MOL
REMARK 924 INTRA-LIGAND FREE ENERGY PREDICTED BY IDOCK:   -0.41 KCAL/MOL
REMARK 927      BINDING AFFINITY PREDICTED BY RF-SCORE:    0.00 PKD
ROOT
HETATM    1  C   UNL     1      -8.685   9.515  62.577  1.00  0.00    -0.233 C  
HETATM    2  C   UNL     1      -9.176  10.951  62.456  1.00  0.00    -0.339 C  
ENDROOT
BRANCH   2   3
HETATM    3  C   UNL     1     -10.484  11.167  63.224  1.00  0.00    -0.323 C  
BRANCH   3   4
HETATM    4  C   UNL     1     -10.297  11.193  64.751  1.00  0.00    -0.325 C  
BRANCH   4   5
HETATM    5  N   UNL     1     -10.021  12.519  65.324  1.00  0.00    -0.246 NA 
HETATM    6  C   UNL     1     -10.560  13.643  64.533  1.00  0.00    -0.411 C  
HETATM    7  C   UNL     1     -12.057  13.929  64.692  1.00  0.00    -0.458 C  
HETATM    8  C   UNL     1     -12.512  13.949  66.147  1.00  0.00    -0.478 C  
HETATM    9  C   UNL     1     -11.993  12.723  66.889  1.00  0.00    -0.380 C  
HETATM   10  C   UNL     1     -10.471  12.597  66.744  1.00  0.00    -0.240 C  
BRANCH  10  11
HETATM   11  C   UNL     1      -9.745  13.753  67.478  1.00  0.00    -0.230 C  
HETATM   12  N   UNL     1      -8.452  13.953  67.017  1.00  0.00    -0.361 N  
HETATM   13  O   UNL     1     -10.253  14.359  68.421  1.00  0.00    -0.229 OA 
HETATM   14  H   UNL     1      -8.129  13.469  66.180  1.00  0.00     0.000 HD 
BRANCH  12  15
HETATM   15  C   UNL     1      -7.588  14.821  67.701  1.00  0.00    -0.174 A  
HETATM   16  C   UNL     1      -6.722  14.311  68.686  1.00  0.00    -0.092 A  
HETATM   17  C   UNL     1      -6.752  12.886  69.151  1.00  0.00    -0.086 C  
HETATM   18  C   UNL     1      -5.880  15.214  69.357  1.00  0.00    -0.104 A  
HETATM   19  C   UNL     1      -5.877  16.573  69.030  1.00  0.00    -0.145 A  
HETATM   20  C   UNL     1      -6.718  17.055  68.036  1.00  0.00    -0.155 A  
HETATM   21  C   UNL     1      -7.587  16.191  67.362  1.00  0.00    -0.191 A  
HETATM   22  C   UNL     1      -8.475  16.736  66.275  1.00  0.00    -0.342 C  
ENDBRANCH  12  15
ENDBRANCH  10  11
ENDBRANCH   4   5
ENDBRANCH   3   4
ENDBRANCH   2   3
TORSDOF 5
ENDMDL
MODEL      112
REMARK 921   NORMALIZED FREE ENERGY PREDICTED BY IDOCK:   -4.26 KCAL/MOL
REMARK 922        TOTAL FREE ENERGY PREDICTED BY IDOCK:   -5.94 KCAL/MOL
REMARK 923 INTER-LIGAND FREE ENERGY PREDICTED BY IDOCK:   -5.57 KCAL/MOL
REMARK 924 INTRA-LIGAND FREE ENERGY PREDICTED BY IDOCK:   -0.37 KCAL/MOL
REMARK 927      BINDING AFFINITY PREDICTED BY RF-SCORE:    0.00 PKD
ROOT
HETATM    1  C   UNL     1      -9.401   1.647  70.130  1.00  0.00    -0.165 C  
HETATM    2  C   UNL     1      -9.325   2.650  68.987  1.00  0.00    -0.212 C  
ENDROOT
BRANCH   2   3
HETATM    3  C   UNL     1      -9.659   4.069  69.457  1.00  0.00    -0.265 C  
BRANCH   3   4
HETATM    4  C   UNL     1      -9.549   4.249  70.981  1.00  0.00    -0.183 C  
BRANCH   4   5
HETATM    5  N   UNL     1     -10.150   5.483  71.508  1.00  0.00    -0.198 NA 
HETATM    6  C   UNL     1     -11.092   5.266  72.625  1.00  0.00    -0.260 C  
HETATM    7  C   UNL     1     -10.466   5.027  74.004  1.00  0.00    -0.325 C  
HETATM    8  C   UNL     1      -9.358   6.019  74.339  1.00  0.00    -0.162 C  
HETATM    9  C   UNL     1      -8.375   6.137  73.181  1.00  0.00    -0.118 C  
HETATM   10  C   UNL     1      -9.102   6.479  71.875  1.00  0.00    -0.148 C  
BRANCH  10  11
HETATM   11  C   UNL     1      -9.709   7.905  71.934  1.00  0.00    -0.177 C  
HETATM   12  N   UNL     1     -10.691   8.109  70.975  1.00  0.00    -0.214 N  
HETATM   13  O   UNL     1      -9.290   8.770  72.701  1.00  0.00    -0.300 OA 
HETATM   14  H   UNL     1     -11.042   7.323  70.429  1.00  0.00     0.000 HD 
BRANCH  12  15
HETATM   15  C   UNL     1     -11.203   9.397  70.757  1.00  0.00    -0.302 A  
HETATM   16  C   UNL     1     -12.289   9.856  71.524  1.00  0.00    -0.504 A  
HETATM   17  C   UNL     1     -13.035   8.992  72.496  1.00  0.00    -0.429 C  
HETATM   18  C   UNL     1     -12.780  11.148  71.267  1.00  0.00    -0.531 A  
HETATM   19  C   UNL     1     -12.183  11.965  70.304  1.00  0.00    -0.353 A  
HETATM   20  C   UNL     1     -11.094  11.507  69.576  1.00  0.00    -0.256 A  
HETATM   21  C   UNL     1     -10.591  10.219  69.786  1.00  0.00    -0.312 A  
HETATM   22  C   UNL     1      -9.397   9.753  68.996  1.00  0.00    -0.161 C  
ENDBRANCH  12  15
ENDBRANCH  10  11
ENDBRANCH   4   5
ENDBRANCH   3   4
ENDBRANCH   2   3
TORSDOF 5
ENDMDL
MODEL      113
REMARK 921   NORMALIZED FREE ENERGY PREDICTED BY IDOCK:   -4.26 KCAL/MOL
REMARK 922        TOTAL FREE ENERGY PREDICTED BY IDOCK:   -5.94 KCAL/MOL
REMARK 923 INTER-LIGAND FREE ENERGY PREDICTED BY IDOCK:   -5.62 KCAL/MOL
REMARK 924 INTRA-LIGAND FREE ENERGY PREDICTED BY IDOCK:   -0.32 KCAL/MOL
REMARK 927      BINDING AFFINITY PREDICTED BY RF-SCORE:    0.00 PKD
ROOT
HETATM    1  C   UNL     1     -12.032  16.068  72.363  1.00  0.00    -0.644 C  
HETATM    2  C   UNL     1     -11.337  15.515  71.126  1.00  0.00    -0.442 C  
ENDROOT
BRANCH   2   3
HETATM    3  C   UNL     1     -12.266  15.518  69.908  1.00  0.00    -0.351 C  
BRANCH   3   4
HETATM    4  C   UNL     1     -11.513  15.493  68.567  1.00  0.00    -0.361 C  
BRANCH   4   5
HETATM    5  N   UNL     1     -11.179  14.152  68.064  1.00  0.00    -0.269 NA 
HETATM    6  C   UNL     1     -12.151  13.609  67.094  1.00  0.00    -0.362 C  
HETATM    7  C   UNL     1     -12.040  14.134  65.658  1.00  0.00    -0.425 C  
HETATM    8  C   UNL     1     -10.610  14.140  65.130  1.00  0.00    -0.414 C  
HETATM    9  C   UNL     1      -9.669  14.785  66.141  1.00  0.00    -0.338 C  
HETATM   10  C   UNL     1      -9.792  14.113  67.514  1.00  0.00    -0.235 C  
BRANCH  10  11
HETATM   11  C   UNL     1      -9.270  12.654  67.467  1.00  0.00    -0.190 C  
HETATM   12  N   UNL     1      -9.289  12.037  68.710  1.00  0.00    -0.398 N  
HETATM   13  O   UNL     1      -8.816  12.147  66.442  1.00  0.00    -0.184 OA 
HETATM   14  H   UNL     1      -9.754  12.490  69.496  1.00  0.00     0.000 HD 
BRANCH  12  15
HETATM   15  C   UNL     1      -8.668  10.791  68.886  1.00  0.00    -0.152 A  
HETATM   16  C   UNL     1      -9.413   9.611  68.710  1.00  0.00    -0.148 A  
HETATM   17  C   UNL     1     -10.891   9.597  68.464  1.00  0.00    -0.202 C  
HETATM   18  C   UNL     1      -8.758   8.382  68.907  1.00  0.00    -0.136 A  
HETATM   19  C   UNL     1      -7.400   8.336  69.231  1.00  0.00    -0.076 A  
HETATM   20  C   UNL     1      -6.673   9.511  69.373  1.00  0.00    -0.048 A  
HETATM   21  C   UNL     1      -7.294  10.752  69.208  1.00  0.00    -0.129 A  
HETATM   22  C   UNL     1      -6.481  12.011  69.349  1.00  0.00    -0.115 C  
ENDBRANCH  12  15
ENDBRANCH  10  11
ENDBRANCH   4   5
ENDBRANCH   3   4
ENDBRANCH   2   3
TORSDOF 5
ENDMDL
MODEL      114
REMARK 921   NORMALIZED FREE ENERGY PREDICTED BY IDOCK:   -4.23 KCAL/MOL
REMARK 922        TOTAL FREE ENERGY PREDICTED BY IDOCK:   -5.91 KCAL/MOL
REMARK 923 INTER-LIGAND FREE ENERGY PREDICTED BY IDOCK:   -5.48 KCAL/MOL
REMARK 924 INTRA-LIGAND FREE ENERGY PREDICTED BY IDOCK:   -0.43 KCAL/MOL
REMARK 927      BINDING AFFINITY PREDICTED BY RF-SCORE:    0.00 PKD
ROOT
HETATM    1  C   UNL     1     -10.658  11.277  63.233  1.00  0.00    -0.326 C  
HETATM    2  C   UNL     1     -11.832  11.903  63.975  1.00  0.00    -0.458 C  
ENDROOT
BRANCH   2   3
HETATM    3  C   UNL     1     -12.172  13.291  63.424  1.00  0.00    -0.476 C  
BRANCH   3   4
HETATM    4  C   UNL     1     -11.835  14.433  64.397  1.00  0.00    -0.415 C  
BRANCH   4   5
HETATM    5  N   UNL     1     -10.708  14.168  65.304  1.00  0.00    -0.341 NA 
HETATM    6  C   UNL     1      -9.800  15.317  65.494  1.00  0.00    -0.326 C  
HETATM    7  C   UNL     1     -10.276  16.404  66.464  1.00  0.00    -0.310 C  
HETATM    8  C   UNL     1     -10.812  15.843  67.777  1.00  0.00    -0.324 C  
HETATM    9  C   UNL     1     -11.804  14.716  67.513  1.00  0.00    -0.375 C  
HETATM   10  C   UNL     1     -11.184  13.638  66.616  1.00  0.00    -0.313 C  
BRANCH  10  11
HETATM   11  C   UNL     1     -10.037  12.897  67.348  1.00  0.00    -0.223 C  
HETATM   12  N   UNL     1      -9.036  12.472  66.486  1.00  0.00    -0.337 N  
HETATM   13  O   UNL     1     -10.072  12.652  68.553  1.00  0.00    -0.222 OA 
HETATM   14  H   UNL     1      -9.035  12.782  65.514  1.00  0.00     0.000 HD 
BRANCH  12  15
HETATM   15  C   UNL     1      -8.026  11.616  66.949  1.00  0.00    -0.161 A  
HETATM   16  C   UNL     1      -8.174  10.224  66.812  1.00  0.00    -0.124 A  
HETATM   17  C   UNL     1      -9.426   9.574  66.306  1.00  0.00    -0.267 C  
HETATM   18  C   UNL     1      -7.145   9.399  67.299  1.00  0.00    -0.086 A  
HETATM   19  C   UNL     1      -5.993   9.948  67.868  1.00  0.00    -0.043 A  
HETATM   20  C   UNL     1      -5.851  11.325  67.969  1.00  0.00    -0.042 A  
HETATM   21  C   UNL     1      -6.862  12.178  67.518  1.00  0.00    -0.127 A  
HETATM   22  C   UNL     1      -6.675  13.668  67.622  1.00  0.00    -0.185 C  
ENDBRANCH  12  15
ENDBRANCH  10  11
ENDBRANCH   4   5
ENDBRANCH   3   4
ENDBRANCH   2   3
TORSDOF 5
ENDMDL
MODEL      115
REMARK 921   NORMALIZED FREE ENERGY PREDICTED BY IDOCK:   -4.23 KCAL/MOL
REMARK 922        TOTAL FREE ENERGY PREDICTED BY IDOCK:   -5.91 KCAL/MOL
REMARK 923 INTER-LIGAND FREE ENERGY PREDICTED BY IDOCK:   -5.46 KCAL/MOL
REMARK 924 INTRA-LIGAND FREE ENERGY PREDICTED BY IDOCK:   -0.45 KCAL/MOL
REMARK 927      BINDING AFFINITY PREDICTED BY RF-SCORE:    0.00 PKD
ROOT
HETATM    1  C   UNL     1      -9.826   4.532  67.152  1.00  0.00    -0.225 C  
HETATM    2  C   UNL     1      -8.837   4.475  68.308  1.00  0.00    -0.126 C  
ENDROOT
BRANCH   2   3
HETATM    3  C   UNL     1      -9.550   4.317  69.654  1.00  0.00    -0.275 C  
BRANCH   3   4
HETATM    4  C   UNL     1      -9.536   5.597  70.507  1.00  0.00    -0.174 C  
BRANCH   4   5
HETATM    5  N   UNL     1     -10.329   6.713  69.969  1.00  0.00    -0.193 NA 
HETATM    6  C   UNL     1     -11.728   6.743  70.441  1.00  0.00    -0.363 C  
HETATM    7  C   UNL     1     -11.957   7.308  71.847  1.00  0.00    -0.342 C  
HETATM    8  C   UNL     1     -11.213   8.615  72.097  1.00  0.00    -0.438 C  
HETATM    9  C   UNL     1      -9.756   8.494  71.666  1.00  0.00    -0.322 C  
HETATM   10  C   UNL     1      -9.652   8.021  70.211  1.00  0.00    -0.171 C  
BRANCH  10  11
HETATM   11  C   UNL     1     -10.192   9.097  69.236  1.00  0.00    -0.210 C  
HETATM   12  N   UNL     1      -9.786  10.380  69.574  1.00  0.00    -0.351 N  
HETATM   13  O   UNL     1     -10.965   8.828  68.317  1.00  0.00    -0.027 OA 
HETATM   14  H   UNL     1      -9.081  10.516  70.298  1.00  0.00     0.000 HD 
BRANCH  12  15
HETATM   15  C   UNL     1     -10.342  11.489  68.920  1.00  0.00    -0.169 A  
HETATM   16  C   UNL     1     -11.472  12.126  69.465  1.00  0.00    -0.334 A  
HETATM   17  C   UNL     1     -12.214  11.607  70.660  1.00  0.00    -0.461 C  
HETATM   18  C   UNL     1     -12.007  13.227  68.775  1.00  0.00    -0.335 A  
HETATM   19  C   UNL     1     -11.413  13.697  67.601  1.00  0.00    -0.357 A  
HETATM   20  C   UNL     1     -10.281  13.074  67.092  1.00  0.00    -0.243 A  
HETATM   21  C   UNL     1      -9.733  11.962  67.738  1.00  0.00    -0.189 A  
HETATM   22  C   UNL     1      -8.494  11.316  67.176  1.00  0.00    -0.149 C  
ENDBRANCH  12  15
ENDBRANCH  10  11
ENDBRANCH   4   5
ENDBRANCH   3   4
ENDBRANCH   2   3
TORSDOF 5
ENDMDL
MODEL      116
REMARK 921   NORMALIZED FREE ENERGY PREDICTED BY IDOCK:   -4.21 KCAL/MOL
REMARK 922        TOTAL FREE ENERGY PREDICTED BY IDOCK:   -5.88 KCAL/MOL
REMARK 923 INTER-LIGAND FREE ENERGY PREDICTED BY IDOCK:   -5.85 KCAL/MOL
REMARK 924 INTRA-LIGAND FREE ENERGY PREDICTED BY IDOCK:   -0.02 KCAL/MOL
REMARK 927      BINDING AFFINITY PREDICTED BY RF-SCORE:    0.00 PKD
ROOT
HETATM    1  C   UNL     1     -10.663  16.959  68.085  1.00  0.00    -0.375 C  
HETATM    2  C   UNL     1      -9.934  17.126  66.758  1.00  0.00    -0.291 C  
ENDROOT
BRANCH   2   3
HETATM    3  C   UNL     1     -10.903  17.093  65.573  1.00  0.00    -0.058 C  
BRANCH   3   4
HETATM    4  C   UNL     1     -10.827  15.790  64.759  1.00  0.00    -0.344 C  
BRANCH   4   5
HETATM    5  N   UNL     1     -10.761  14.558  65.559  1.00  0.00    -0.320 NA 
HETATM    6  C   UNL     1     -12.014  14.230  66.269  1.00  0.00    -0.412 C  
HETATM    7  C   UNL     1     -13.119  13.581  65.429  1.00  0.00    -0.121 C  
HETATM    8  C   UNL     1     -12.614  12.441  64.551  1.00  0.00    -0.477 C  
HETATM    9  C   UNL     1     -11.369  12.868  63.783  1.00  0.00    -0.490 C  
HETATM   10  C   UNL     1     -10.293  13.405  64.735  1.00  0.00    -0.379 C  
BRANCH  10  11
HETATM   11  C   UNL     1      -9.744  12.277  65.646  1.00  0.00    -0.192 C  
HETATM   12  N   UNL     1     -10.375  11.060  65.432  1.00  0.00    -0.270 N  
HETATM   13  O   UNL     1      -8.899  12.483  66.515  1.00  0.00    -0.185 OA 
HETATM   14  H   UNL     1     -11.008  10.946  64.640  1.00  0.00     0.000 HD 
BRANCH  12  15
HETATM   15  C   UNL     1     -10.143   9.985  66.303  1.00  0.00    -0.243 A  
HETATM   16  C   UNL     1     -10.765   9.964  67.565  1.00  0.00    -0.333 A  
HETATM   17  C   UNL     1     -11.578  11.101  68.103  1.00  0.00    -0.350 C  
HETATM   18  C   UNL     1     -10.498   8.875  68.414  1.00  0.00    -0.230 A  
HETATM   19  C   UNL     1      -9.669   7.829  68.001  1.00  0.00    -0.176 A  
HETATM   20  C   UNL     1      -9.087   7.852  66.742  1.00  0.00    -0.189 A  
HETATM   21  C   UNL     1      -9.309   8.929  65.878  1.00  0.00    -0.301 A  
HETATM   22  C   UNL     1      -8.681   8.921  64.510  1.00  0.00    -0.120 C  
ENDBRANCH  12  15
ENDBRANCH  10  11
ENDBRANCH   4   5
ENDBRANCH   3   4
ENDBRANCH   2   3
TORSDOF 5
ENDMDL
MODEL      117
REMARK 921   NORMALIZED FREE ENERGY PREDICTED BY IDOCK:   -4.19 KCAL/MOL
REMARK 922        TOTAL FREE ENERGY PREDICTED BY IDOCK:   -5.86 KCAL/MOL
REMARK 923 INTER-LIGAND FREE ENERGY PREDICTED BY IDOCK:   -5.45 KCAL/MOL
REMARK 924 INTRA-LIGAND FREE ENERGY PREDICTED BY IDOCK:   -0.40 KCAL/MOL
REMARK 927      BINDING AFFINITY PREDICTED BY RF-SCORE:    0.00 PKD
ROOT
HETATM    1  C   UNL     1      -5.613   6.624  70.490  1.00  0.00    -0.023 C  
HETATM    2  C   UNL     1      -6.114   5.383  69.762  1.00  0.00    -0.021 C  
ENDROOT
BRANCH   2   3
HETATM    3  C   UNL     1      -7.463   5.633  69.081  1.00  0.00    -0.083 C  
BRANCH   3   4
HETATM    4  C   UNL     1      -7.422   6.772  68.048  1.00  0.00    -0.099 C  
BRANCH   4   5
HETATM    5  N   UNL     1      -8.072   8.022  68.472  1.00  0.00    -0.124 NA 
HETATM    6  C   UNL     1      -8.026   9.100  67.463  1.00  0.00    -0.100 C  
HETATM    7  C   UNL     1      -9.042   9.003  66.320  1.00  0.00    -0.224 C  
HETATM    8  C   UNL     1     -10.456   8.694  66.800  1.00  0.00    -0.298 C  
HETATM    9  C   UNL     1     -10.447   7.522  67.774  1.00  0.00    -0.288 C  
HETATM   10  C   UNL     1      -9.471   7.774  68.929  1.00  0.00    -0.150 C  
BRANCH  10  11
HETATM   11  C   UNL     1      -9.960   8.940  69.826  1.00  0.00    -0.191 C  
HETATM   12  N   UNL     1     -11.256   9.338  69.529  1.00  0.00    -0.434 N  
HETATM   13  O   UNL     1      -9.231   9.491  70.649  1.00  0.00    -0.245 OA 
HETATM   14  H   UNL     1     -11.826   8.782  68.891  1.00  0.00     0.000 HD 
BRANCH  12  15
HETATM   15  C   UNL     1     -11.783  10.504  70.104  1.00  0.00    -0.326 A  
HETATM   16  C   UNL     1     -11.560  11.748  69.487  1.00  0.00    -0.398 A  
HETATM   17  C   UNL     1     -10.670  11.930  68.295  1.00  0.00    -0.253 C  
HETATM   18  C   UNL     1     -12.095  12.895  70.100  1.00  0.00    -0.373 A  
HETATM   19  C   UNL     1     -12.855  12.796  71.268  1.00  0.00    -0.355 A  
HETATM   20  C   UNL     1     -13.089  11.557  71.848  1.00  0.00    -0.492 A  
HETATM   21  C   UNL     1     -12.555  10.396  71.281  1.00  0.00    -0.525 A  
HETATM   22  C   UNL     1     -12.839   9.062  71.919  1.00  0.00    -0.451 C  
ENDBRANCH  12  15
ENDBRANCH  10  11
ENDBRANCH   4   5
ENDBRANCH   3   4
ENDBRANCH   2   3
TORSDOF 5
ENDMDL
MODEL      118
REMARK 921   NORMALIZED FREE ENERGY PREDICTED BY IDOCK:   -4.15 KCAL/MOL
REMARK 922        TOTAL FREE ENERGY PREDICTED BY IDOCK:   -5.80 KCAL/MOL
REMARK 923 INTER-LIGAND FREE ENERGY PREDICTED BY IDOCK:   -5.40 KCAL/MOL
REMARK 924 INTRA-LIGAND FREE ENERGY PREDICTED BY IDOCK:   -0.40 KCAL/MOL
REMARK 927      BINDING AFFINITY PREDICTED BY RF-SCORE:    0.00 PKD
ROOT
HETATM    1  C   UNL     1      -5.999   6.206  70.248  1.00  0.00    -0.029 C  
HETATM    2  C   UNL     1      -7.076   5.134  70.159  1.00  0.00    -0.054 C  
ENDROOT
BRANCH   2   3
HETATM    3  C   UNL     1      -8.436   5.730  69.780  1.00  0.00    -0.123 C  
BRANCH   3   4
HETATM    4  C   UNL     1      -8.437   6.424  68.408  1.00  0.00    -0.116 C  
BRANCH   4   5
HETATM    5  N   UNL     1      -8.550   7.890  68.450  1.00  0.00    -0.128 NA 
HETATM    6  C   UNL     1      -7.695   8.591  67.471  1.00  0.00    -0.098 C  
HETATM    7  C   UNL     1      -8.209   8.631  66.028  1.00  0.00    -0.127 C  
HETATM    8  C   UNL     1      -9.679   9.021  65.925  1.00  0.00    -0.306 C  
HETATM    9  C   UNL     1     -10.520   8.207  66.901  1.00  0.00    -0.379 C  
HETATM   10  C   UNL     1      -9.973   8.324  68.329  1.00  0.00    -0.191 C  
BRANCH  10  11
HETATM   11  C   UNL     1     -10.146   9.765  68.873  1.00  0.00    -0.183 C  
HETATM   12  N   UNL     1     -11.414  10.278  68.639  1.00  0.00    -0.498 N  
HETATM   13  O   UNL     1      -9.219  10.396  69.380  1.00  0.00    -0.201 OA 
HETATM   14  H   UNL     1     -12.153   9.669  68.288  1.00  0.00     0.000 HD 
BRANCH  12  15
HETATM   15  C   UNL     1     -11.681  11.633  68.886  1.00  0.00    -0.334 A  
HETATM   16  C   UNL     1     -12.134  12.035  70.156  1.00  0.00    -0.377 A  
HETATM   17  C   UNL     1     -12.480  11.071  71.250  1.00  0.00    -0.475 C  
HETATM   18  C   UNL     1     -12.401  13.400  70.360  1.00  0.00    -0.382 A  
HETATM   19  C   UNL     1     -12.187  14.334  69.343  1.00  0.00    -0.319 A  
HETATM   20  C   UNL     1     -11.712  13.924  68.105  1.00  0.00    -0.388 A  
HETATM   21  C   UNL     1     -11.457  12.572  67.856  1.00  0.00    -0.369 A  
HETATM   22  C   UNL     1     -10.924  12.155  66.511  1.00  0.00    -0.325 C  
ENDBRANCH  12  15
ENDBRANCH  10  11
ENDBRANCH   4   5
ENDBRANCH   3   4
ENDBRANCH   2   3
TORSDOF 5
ENDMDL
MODEL      119
REMARK 921   NORMALIZED FREE ENERGY PREDICTED BY IDOCK:   -4.12 KCAL/MOL
REMARK 922        TOTAL FREE ENERGY PREDICTED BY IDOCK:   -5.76 KCAL/MOL
REMARK 923 INTER-LIGAND FREE ENERGY PREDICTED BY IDOCK:   -5.49 KCAL/MOL
REMARK 924 INTRA-LIGAND FREE ENERGY PREDICTED BY IDOCK:   -0.27 KCAL/MOL
REMARK 927      BINDING AFFINITY PREDICTED BY RF-SCORE:    0.00 PKD
ROOT
HETATM    1  C   UNL     1      -6.992  10.886  68.627  1.00  0.00    -0.073 C  
HETATM    2  C   UNL     1      -6.606   9.648  69.425  1.00  0.00    -0.048 C  
ENDROOT
BRANCH   2   3
HETATM    3  C   UNL     1      -7.366   9.573  70.753  1.00  0.00    -0.103 C  
BRANCH   3   4
HETATM    4  C   UNL     1      -8.501   8.535  70.748  1.00  0.00    -0.149 C  
BRANCH   4   5
HETATM    5  N   UNL     1      -9.611   8.828  69.829  1.00  0.00    -0.169 NA 
HETATM    6  C   UNL     1     -10.476   7.667  69.535  1.00  0.00    -0.227 C  
HETATM    7  C   UNL     1     -11.509   7.303  70.606  1.00  0.00    -0.322 C  
HETATM    8  C   UNL     1     -12.284   8.509  71.127  1.00  0.00    -0.260 C  
HETATM    9  C   UNL     1     -11.332   9.643  71.489  1.00  0.00    -0.420 C  
HETATM   10  C   UNL     1     -10.416   9.989  70.308  1.00  0.00    -0.272 C  
BRANCH  10  11
HETATM   11  C   UNL     1     -11.226  10.605  69.139  1.00  0.00    -0.265 C  
HETATM   12  N   UNL     1     -10.450  11.401  68.309  1.00  0.00    -0.190 N  
HETATM   13  O   UNL     1     -12.442  10.457  69.028  1.00  0.00    -0.093 OA 
HETATM   14  H   UNL     1      -9.436  11.411  68.416  1.00  0.00     0.000 HD 
BRANCH  12  15
HETATM   15  C   UNL     1     -11.058  12.192  67.323  1.00  0.00    -0.287 A  
HETATM   16  C   UNL     1     -11.623  13.431  67.673  1.00  0.00    -0.377 A  
HETATM   17  C   UNL     1     -11.733  13.917  69.086  1.00  0.00    -0.382 C  
HETATM   18  C   UNL     1     -12.234  14.189  66.658  1.00  0.00    -0.450 A  
HETATM   19  C   UNL     1     -12.245  13.740  65.335  1.00  0.00    -0.465 A  
HETATM   20  C   UNL     1     -11.657  12.527  65.002  1.00  0.00    -0.392 A  
HETATM   21  C   UNL     1     -11.061  11.735  65.987  1.00  0.00    -0.363 A  
HETATM   22  C   UNL     1     -10.414  10.432  65.597  1.00  0.00    -0.185 C  
ENDBRANCH  12  15
ENDBRANCH  10  11
ENDBRANCH   4   5
ENDBRANCH   3   4
ENDBRANCH   2   3
TORSDOF 5
ENDMDL
MODEL      120
REMARK 921   NORMALIZED FREE ENERGY PREDICTED BY IDOCK:   -4.11 KCAL/MOL
REMARK 922        TOTAL FREE ENERGY PREDICTED BY IDOCK:   -5.75 KCAL/MOL
REMARK 923 INTER-LIGAND FREE ENERGY PREDICTED BY IDOCK:   -5.12 KCAL/MOL
REMARK 924 INTRA-LIGAND FREE ENERGY PREDICTED BY IDOCK:   -0.64 KCAL/MOL
REMARK 927      BINDING AFFINITY PREDICTED BY RF-SCORE:    0.00 PKD
ROOT
HETATM    1  C   UNL     1      -7.228   7.903  71.986  1.00  0.00    -0.080 C  
HETATM    2  C   UNL     1      -8.052   7.002  72.896  1.00  0.00    -0.117 C  
ENDROOT
BRANCH   2   3
HETATM    3  C   UNL     1      -9.211   7.764  73.547  1.00  0.00    -0.350 C  
BRANCH   3   4
HETATM    4  C   UNL     1     -10.594   7.313  73.048  1.00  0.00    -0.326 C  
BRANCH   4   5
HETATM    5  N   UNL     1     -10.882   7.627  71.641  1.00  0.00    -0.225 NA 
HETATM    6  C   UNL     1     -12.050   6.910  71.088  1.00  0.00    -0.381 C  
HETATM    7  C   UNL     1     -13.427   7.472  71.457  1.00  0.00    -0.426 C  
HETATM    8  C   UNL     1     -13.521   8.985  71.291  1.00  0.00    -0.250 C  
HETATM    9  C   UNL     1     -12.332   9.672  71.952  1.00  0.00    -0.437 C  
HETATM   10  C   UNL     1     -11.008   9.099  71.431  1.00  0.00    -0.344 C  
BRANCH  10  11
HETATM   11  C   UNL     1     -10.799   9.452  69.937  1.00  0.00    -0.236 C  
HETATM   12  N   UNL     1      -9.687   8.829  69.388  1.00  0.00    -0.170 N  
HETATM   13  O   UNL     1     -11.507  10.265  69.345  1.00  0.00    -0.234 OA 
HETATM   14  H   UNL     1      -9.196   8.107  69.916  1.00  0.00     0.000 HD 
BRANCH  12  15
HETATM   15  C   UNL     1      -9.237   9.190  68.110  1.00  0.00    -0.131 A  
HETATM   16  C   UNL     1      -8.334  10.259  67.964  1.00  0.00    -0.114 A  
HETATM   17  C   UNL     1      -7.907  11.138  69.101  1.00  0.00    -0.065 C  
HETATM   18  C   UNL     1      -7.916  10.597  66.666  1.00  0.00    -0.134 A  
HETATM   19  C   UNL     1      -8.357   9.871  65.556  1.00  0.00    -0.143 A  
HETATM   20  C   UNL     1      -9.226   8.801  65.721  1.00  0.00    -0.269 A  
HETATM   21  C   UNL     1      -9.683   8.448  66.994  1.00  0.00    -0.268 A  
HETATM   22  C   UNL     1     -10.611   7.273  67.148  1.00  0.00    -0.416 C  
ENDBRANCH  12  15
ENDBRANCH  10  11
ENDBRANCH   4   5
ENDBRANCH   3   4
ENDBRANCH   2   3
TORSDOF 5
ENDMDL
MODEL      121
REMARK 921   NORMALIZED FREE ENERGY PREDICTED BY IDOCK:   -4.11 KCAL/MOL
REMARK 922        TOTAL FREE ENERGY PREDICTED BY IDOCK:   -5.74 KCAL/MOL
REMARK 923 INTER-LIGAND FREE ENERGY PREDICTED BY IDOCK:   -5.64 KCAL/MOL
REMARK 924 INTRA-LIGAND FREE ENERGY PREDICTED BY IDOCK:   -0.10 KCAL/MOL
REMARK 927      BINDING AFFINITY PREDICTED BY RF-SCORE:    0.00 PKD
ROOT
HETATM    1  C   UNL     1      -7.350   9.527  64.486  1.00  0.00    -0.114 C  
HETATM    2  C   UNL     1      -7.146  10.309  65.776  1.00  0.00    -0.132 C  
ENDROOT
BRANCH   2   3
HETATM    3  C   UNL     1      -8.464  10.889  66.299  1.00  0.00    -0.166 C  
BRANCH   3   4
HETATM    4  C   UNL     1      -8.275  12.141  67.172  1.00  0.00    -0.182 C  
BRANCH   4   5
HETATM    5  N   UNL     1      -9.151  13.274  66.836  1.00  0.00    -0.237 NA 
HETATM    6  C   UNL     1     -10.137  12.982  65.776  1.00  0.00    -0.287 C  
HETATM    7  C   UNL     1     -11.381  12.196  66.204  1.00  0.00    -0.414 C  
HETATM    8  C   UNL     1     -12.018  12.732  67.482  1.00  0.00    -0.342 C  
HETATM    9  C   UNL     1     -10.963  12.935  68.563  1.00  0.00    -0.288 C  
HETATM   10  C   UNL     1      -9.818  13.820  68.054  1.00  0.00    -0.239 C  
BRANCH  10  11
HETATM   11  C   UNL     1     -10.307  15.269  67.799  1.00  0.00    -0.244 C  
HETATM   12  N   UNL     1      -9.356  16.050  67.158  1.00  0.00    -0.209 N  
HETATM   13  O   UNL     1     -11.392  15.681  68.205  1.00  0.00    -0.336 OA 
HETATM   14  H   UNL     1      -8.513  15.619  66.780  1.00  0.00     0.000 HD 
BRANCH  12  15
HETATM   15  C   UNL     1      -9.554  17.433  67.029  1.00  0.00    -0.273 A  
HETATM   16  C   UNL     1     -10.404  17.925  66.022  1.00  0.00    -0.318 A  
HETATM   17  C   UNL     1     -11.029  17.056  64.973  1.00  0.00     0.010 C  
HETATM   18  C   UNL     1     -10.567  19.317  65.918  1.00  0.00    -0.521 A  
HETATM   19  C   UNL     1      -9.932  20.184  66.811  1.00  0.00    -0.604 A  
HETATM   20  C   UNL     1      -9.119  19.680  67.817  1.00  0.00    -0.397 A  
HETATM   21  C   UNL     1      -8.913  18.302  67.938  1.00  0.00    -0.285 A  
HETATM   22  C   UNL     1      -8.041  17.780  69.049  1.00  0.00    -0.060 C  
ENDBRANCH  12  15
ENDBRANCH  10  11
ENDBRANCH   4   5
ENDBRANCH   3   4
ENDBRANCH   2   3
TORSDOF 5
ENDMDL
MODEL      122
REMARK 921   NORMALIZED FREE ENERGY PREDICTED BY IDOCK:   -4.09 KCAL/MOL
REMARK 922        TOTAL FREE ENERGY PREDICTED BY IDOCK:   -5.72 KCAL/MOL
REMARK 923 INTER-LIGAND FREE ENERGY PREDICTED BY IDOCK:   -5.31 KCAL/MOL
REMARK 924 INTRA-LIGAND FREE ENERGY PREDICTED BY IDOCK:   -0.41 KCAL/MOL
REMARK 927      BINDING AFFINITY PREDICTED BY RF-SCORE:    0.00 PKD
ROOT
HETATM    1  C   UNL     1     -10.751   6.956  68.314  1.00  0.00    -0.265 C  
HETATM    2  C   UNL     1     -10.066   7.642  67.141  1.00  0.00    -0.323 C  
ENDROOT
BRANCH   2   3
HETATM    3  C   UNL     1     -10.730   8.981  66.804  1.00  0.00    -0.103 C  
BRANCH   3   4
HETATM    4  C   UNL     1     -10.001   9.762  65.698  1.00  0.00    -0.282 C  
BRANCH   4   5
HETATM    5  N   UNL     1     -10.060  11.226  65.825  1.00  0.00    -0.237 NA 
HETATM    6  C   UNL     1      -9.365  11.956  64.746  1.00  0.00     0.161 C  
HETATM    7  C   UNL     1     -10.117  12.079  63.417  1.00  0.00    -0.437 C  
HETATM    8  C   UNL     1     -11.571  12.508  63.588  1.00  0.00    -0.580 C  
HETATM    9  C   UNL     1     -12.256  11.664  64.657  1.00  0.00     0.134 C  
HETATM   10  C   UNL     1     -11.468  11.698  65.972  1.00  0.00    -0.125 C  
BRANCH  10  11
HETATM   11  C   UNL     1     -11.500  13.114  66.603  1.00  0.00    -0.348 C  
HETATM   12  N   UNL     1     -10.625  13.245  67.672  1.00  0.00    -0.234 N  
HETATM   13  O   UNL     1     -12.286  13.984  66.233  1.00  0.00    -0.456 OA 
HETATM   14  H   UNL     1      -9.948  12.508  67.869  1.00  0.00     0.000 HD 
BRANCH  12  15
HETATM   15  C   UNL     1     -10.669  14.390  68.481  1.00  0.00    -0.253 A  
HETATM   16  C   UNL     1     -11.408  14.371  69.677  1.00  0.00    -0.309 A  
HETATM   17  C   UNL     1     -12.275  13.220  70.092  1.00  0.00    -0.376 C  
HETATM   18  C   UNL     1     -11.437  15.542  70.454  1.00  0.00    -0.364 A  
HETATM   19  C   UNL     1     -10.723  16.679  70.068  1.00  0.00    -0.157 A  
HETATM   20  C   UNL     1      -9.976  16.671  68.898  1.00  0.00    -0.271 A  
HETATM   21  C   UNL     1      -9.940  15.533  68.086  1.00  0.00    -0.217 A  
HETATM   22  C   UNL     1      -9.107  15.545  66.833  1.00  0.00    -0.264 C  
ENDBRANCH  12  15
ENDBRANCH  10  11
ENDBRANCH   4   5
ENDBRANCH   3   4
ENDBRANCH   2   3
TORSDOF 5
ENDMDL
MODEL      123
REMARK 921   NORMALIZED FREE ENERGY PREDICTED BY IDOCK:   -4.07 KCAL/MOL
REMARK 922        TOTAL FREE ENERGY PREDICTED BY IDOCK:   -5.70 KCAL/MOL
REMARK 923 INTER-LIGAND FREE ENERGY PREDICTED BY IDOCK:   -5.26 KCAL/MOL
REMARK 924 INTRA-LIGAND FREE ENERGY PREDICTED BY IDOCK:   -0.44 KCAL/MOL
REMARK 927      BINDING AFFINITY PREDICTED BY RF-SCORE:    0.00 PKD
ROOT
HETATM    1  C   UNL     1      -7.778   7.435  71.563  1.00  0.00    -0.086 C  
HETATM    2  C   UNL     1      -6.992   8.730  71.412  1.00  0.00    -0.093 C  
ENDROOT
BRANCH   2   3
HETATM    3  C   UNL     1      -7.590   9.631  70.328  1.00  0.00    -0.175 C  
BRANCH   3   4
HETATM    4  C   UNL     1      -7.379   9.093  68.903  1.00  0.00    -0.074 C  
BRANCH   4   5
HETATM    5  N   UNL     1      -8.328   9.596  67.898  1.00  0.00    -0.117 NA 
HETATM    6  C   UNL     1      -8.319   8.844  66.627  1.00  0.00    -0.111 C  
HETATM    7  C   UNL     1      -9.078   7.513  66.622  1.00  0.00    -0.189 C  
HETATM    8  C   UNL     1     -10.464   7.610  67.249  1.00  0.00    -0.396 C  
HETATM    9  C   UNL     1     -10.395   8.322  68.594  1.00  0.00    -0.225 C  
HETATM   10  C   UNL     1      -9.708   9.687  68.459  1.00  0.00    -0.150 C  
BRANCH  10  11
HETATM   11  C   UNL     1     -10.570  10.662  67.617  1.00  0.00    -0.246 C  
HETATM   12  N   UNL     1      -9.806  11.506  66.823  1.00  0.00    -0.200 N  
HETATM   13  O   UNL     1     -11.795  10.719  67.721  1.00  0.00    -0.538 OA 
HETATM   14  H   UNL     1      -8.803  11.345  66.728  1.00  0.00     0.000 HD 
BRANCH  12  15
HETATM   15  C   UNL     1     -10.410  12.578  66.152  1.00  0.00    -0.253 A  
HETATM   16  C   UNL     1     -10.598  13.802  66.819  1.00  0.00    -0.273 A  
HETATM   17  C   UNL     1     -10.302  14.001  68.275  1.00  0.00    -0.247 C  
HETATM   18  C   UNL     1     -11.218  14.850  66.116  1.00  0.00    -0.325 A  
HETATM   19  C   UNL     1     -11.603  14.691  64.782  1.00  0.00    -0.418 A  
HETATM   20  C   UNL     1     -11.384  13.485  64.130  1.00  0.00    -0.370 A  
HETATM   21  C   UNL     1     -10.791  12.412  64.803  1.00  0.00    -0.340 A  
HETATM   22  C   UNL     1     -10.548  11.121  64.067  1.00  0.00    -0.436 C  
ENDBRANCH  12  15
ENDBRANCH  10  11
ENDBRANCH   4   5
ENDBRANCH   3   4
ENDBRANCH   2   3
TORSDOF 5
ENDMDL
MODEL      124
REMARK 921   NORMALIZED FREE ENERGY PREDICTED BY IDOCK:   -4.04 KCAL/MOL
REMARK 922        TOTAL FREE ENERGY PREDICTED BY IDOCK:   -5.65 KCAL/MOL
REMARK 923 INTER-LIGAND FREE ENERGY PREDICTED BY IDOCK:   -5.98 KCAL/MOL
REMARK 924 INTRA-LIGAND FREE ENERGY PREDICTED BY IDOCK:    0.33 KCAL/MOL
REMARK 927      BINDING AFFINITY PREDICTED BY RF-SCORE:    0.00 PKD
ROOT
HETATM    1  C   UNL     1     -10.530  20.126  65.605  1.00  0.00    -0.323 C  
HETATM    2  C   UNL     1      -9.967  20.034  67.017  1.00  0.00    -0.582 C  
ENDROOT
BRANCH   2   3
HETATM    3  C   UNL     1     -10.855  19.177  67.924  1.00  0.00    -0.302 C  
BRANCH   3   4
HETATM    4  C   UNL     1     -10.108  18.000  68.573  1.00  0.00    -0.393 C  
BRANCH   4   5
HETATM    5  N   UNL     1     -10.184  16.730  67.836  1.00  0.00    -0.288 NA 
HETATM    6  C   UNL     1      -9.657  16.799  66.457  1.00  0.00    -0.266 C  
HETATM    7  C   UNL     1      -8.133  16.749  66.310  1.00  0.00    -0.365 C  
HETATM    8  C   UNL     1      -7.485  15.649  67.143  1.00  0.00    -0.253 C  
HETATM    9  C   UNL     1      -8.008  15.681  68.575  1.00  0.00    -0.138 C  
HETATM   10  C   UNL     1      -9.540  15.622  68.601  1.00  0.00    -0.202 C  
BRANCH  10  11
HETATM   11  C   UNL     1     -10.053  14.249  68.098  1.00  0.00    -0.232 C  
HETATM   12  N   UNL     1      -9.084  13.535  67.406  1.00  0.00    -0.209 N  
HETATM   13  O   UNL     1     -11.220  13.888  68.238  1.00  0.00    -0.249 OA 
HETATM   14  H   UNL     1      -8.118  13.861  67.402  1.00  0.00     0.000 HD 
BRANCH  12  15
HETATM   15  C   UNL     1      -9.433  12.367  66.714  1.00  0.00    -0.228 A  
HETATM   16  C   UNL     1      -9.186  11.110  67.296  1.00  0.00    -0.166 A  
HETATM   17  C   UNL     1      -8.443  10.931  68.585  1.00  0.00    -0.152 C  
HETATM   18  C   UNL     1      -9.540   9.963  66.565  1.00  0.00    -0.243 A  
HETATM   19  C   UNL     1     -10.151  10.068  65.314  1.00  0.00    -0.299 A  
HETATM   20  C   UNL     1     -10.413  11.316  64.766  1.00  0.00    -0.384 A  
HETATM   21  C   UNL     1     -10.055  12.481  65.451  1.00  0.00    -0.284 A  
HETATM   22  C   UNL     1     -10.367  13.822  64.844  1.00  0.00    -0.420 C  
ENDBRANCH  12  15
ENDBRANCH  10  11
ENDBRANCH   4   5
ENDBRANCH   3   4
ENDBRANCH   2   3
TORSDOF 5
ENDMDL
MODEL      125
REMARK 921   NORMALIZED FREE ENERGY PREDICTED BY IDOCK:   -4.04 KCAL/MOL
REMARK 922        TOTAL FREE ENERGY PREDICTED BY IDOCK:   -5.65 KCAL/MOL
REMARK 923 INTER-LIGAND FREE ENERGY PREDICTED BY IDOCK:   -5.48 KCAL/MOL
REMARK 924 INTRA-LIGAND FREE ENERGY PREDICTED BY IDOCK:   -0.17 KCAL/MOL
REMARK 927      BINDING AFFINITY PREDICTED BY RF-SCORE:    0.00 PKD
ROOT
HETATM    1  C   UNL     1      -5.720  13.419  70.504  1.00  0.00    -0.175 C  
HETATM    2  C   UNL     1      -6.296  13.082  69.136  1.00  0.00    -0.105 C  
ENDROOT
BRANCH   2   3
HETATM    3  C   UNL     1      -7.273  14.158  68.653  1.00  0.00    -0.116 C  
BRANCH   3   4
HETATM    4  C   UNL     1      -8.300  13.637  67.635  1.00  0.00    -0.182 C  
BRANCH   4   5
HETATM    5  N   UNL     1      -9.423  12.882  68.211  1.00  0.00    -0.219 NA 
HETATM    6  C   UNL     1     -10.472  13.727  68.816  1.00  0.00    -0.214 C  
HETATM    7  C   UNL     1     -11.461  14.381  67.844  1.00  0.00    -0.346 C  
HETATM    8  C   UNL     1     -12.002  13.413  66.798  1.00  0.00    -0.447 C  
HETATM    9  C   UNL     1     -10.865  12.630  66.153  1.00  0.00    -0.301 C  
HETATM   10  C   UNL     1     -10.004  11.935  67.215  1.00  0.00    -0.186 C  
BRANCH  10  11
HETATM   11  C   UNL     1     -10.803  10.818  67.934  1.00  0.00    -0.264 C  
HETATM   12  N   UNL     1      -9.983   9.849  68.497  1.00  0.00    -0.155 N  
HETATM   13  O   UNL     1     -12.032  10.772  67.922  1.00  0.00    -0.518 OA 
HETATM   14  H   UNL     1      -8.975   9.997  68.537  1.00  0.00     0.000 HD 
BRANCH  12  15
HETATM   15  C   UNL     1     -10.540   8.669  69.010  1.00  0.00    -0.160 A  
HETATM   16  C   UNL     1     -10.997   8.634  70.340  1.00  0.00    -0.256 A  
HETATM   17  C   UNL     1     -10.809   9.764  71.306  1.00  0.00    -0.276 C  
HETATM   18  C   UNL     1     -11.538   7.428  70.820  1.00  0.00    -0.317 A  
HETATM   19  C   UNL     1     -11.652   6.310  69.990  1.00  0.00    -0.378 A  
HETATM   20  C   UNL     1     -11.222   6.371  68.671  1.00  0.00    -0.338 A  
HETATM   21  C   UNL     1     -10.657   7.545  68.164  1.00  0.00    -0.201 A  
HETATM   22  C   UNL     1     -10.215   7.591  66.725  1.00  0.00    -0.324 C  
ENDBRANCH  12  15
ENDBRANCH  10  11
ENDBRANCH   4   5
ENDBRANCH   3   4
ENDBRANCH   2   3
TORSDOF 5
ENDMDL
MODEL      126
REMARK 921   NORMALIZED FREE ENERGY PREDICTED BY IDOCK:   -4.03 KCAL/MOL
REMARK 922        TOTAL FREE ENERGY PREDICTED BY IDOCK:   -5.65 KCAL/MOL
REMARK 923 INTER-LIGAND FREE ENERGY PREDICTED BY IDOCK:   -5.04 KCAL/MOL
REMARK 924 INTRA-LIGAND FREE ENERGY PREDICTED BY IDOCK:   -0.61 KCAL/MOL
REMARK 927      BINDING AFFINITY PREDICTED BY RF-SCORE:    0.00 PKD
ROOT
HETATM    1  C   UNL     1      -7.723   9.979  67.110  1.00  0.00    -0.092 C  
HETATM    2  C   UNL     1      -8.430   9.578  65.822  1.00  0.00    -0.143 C  
ENDROOT
BRANCH   2   3
HETATM    3  C   UNL     1      -9.887  10.048  65.808  1.00  0.00    -0.345 C  
BRANCH   3   4
HETATM    4  C   UNL     1     -10.150  11.188  64.809  1.00  0.00    -0.295 C  
BRANCH   4   5
HETATM    5  N   UNL     1      -9.940  12.544  65.340  1.00  0.00    -0.251 NA 
HETATM    6  C   UNL     1     -10.508  13.617  64.500  1.00  0.00    -0.390 C  
HETATM    7  C   UNL     1     -12.019  13.846  64.623  1.00  0.00    -0.443 C  
HETATM    8  C   UNL     1     -12.502  13.897  66.068  1.00  0.00    -0.501 C  
HETATM    9  C   UNL     1     -11.948  12.720  66.861  1.00  0.00    -0.380 C  
HETATM   10  C   UNL     1     -10.420  12.652  66.749  1.00  0.00    -0.240 C  
BRANCH  10  11
HETATM   11  C   UNL     1      -9.757  13.862  67.454  1.00  0.00    -0.234 C  
HETATM   12  N   UNL     1      -8.414  14.001  67.132  1.00  0.00    -0.287 N  
HETATM   13  O   UNL     1     -10.355  14.559  68.272  1.00  0.00    -0.227 OA 
HETATM   14  H   UNL     1      -8.009  13.437  66.386  1.00  0.00     0.000 HD 
BRANCH  12  15
HETATM   15  C   UNL     1      -7.614  14.917  67.831  1.00  0.00    -0.136 A  
HETATM   16  C   UNL     1      -7.605  16.270  67.446  1.00  0.00    -0.183 A  
HETATM   17  C   UNL     1      -8.313  16.787  66.230  1.00  0.00    -0.353 C  
HETATM   18  C   UNL     1      -6.781  17.155  68.164  1.00  0.00    -0.164 A  
HETATM   19  C   UNL     1      -6.024  16.710  69.250  1.00  0.00    -0.173 A  
HETATM   20  C   UNL     1      -6.067  15.377  69.634  1.00  0.00    -0.140 A  
HETATM   21  C   UNL     1      -6.856  14.462  68.931  1.00  0.00    -0.102 A  
HETATM   22  C   UNL     1      -6.900  13.025  69.379  1.00  0.00     0.038 C  
ENDBRANCH  12  15
ENDBRANCH  10  11
ENDBRANCH   4   5
ENDBRANCH   3   4
ENDBRANCH   2   3
TORSDOF 5
ENDMDL
MODEL      127
REMARK 921   NORMALIZED FREE ENERGY PREDICTED BY IDOCK:   -4.03 KCAL/MOL
REMARK 922        TOTAL FREE ENERGY PREDICTED BY IDOCK:   -5.64 KCAL/MOL
REMARK 923 INTER-LIGAND FREE ENERGY PREDICTED BY IDOCK:   -5.26 KCAL/MOL
REMARK 924 INTRA-LIGAND FREE ENERGY PREDICTED BY IDOCK:   -0.38 KCAL/MOL
REMARK 927      BINDING AFFINITY PREDICTED BY RF-SCORE:    0.00 PKD
ROOT
HETATM    1  C   UNL     1     -10.421  11.808  63.241  1.00  0.00    -0.439 C  
HETATM    2  C   UNL     1     -11.885  12.225  63.288  1.00  0.00    -0.476 C  
ENDROOT
BRANCH   2   3
HETATM    3  C   UNL     1     -12.403  12.304  64.727  1.00  0.00    -0.416 C  
BRANCH   3   4
HETATM    4  C   UNL     1     -11.438  11.694  65.758  1.00  0.00    -0.108 C  
BRANCH   4   5
HETATM    5  N   UNL     1     -11.093  12.572  66.886  1.00  0.00    -0.265 NA 
HETATM    6  C   UNL     1     -11.533  12.067  68.202  1.00  0.00    -0.322 C  
HETATM    7  C   UNL     1     -10.664  10.976  68.835  1.00  0.00    -0.249 C  
HETATM    8  C   UNL     1      -9.173  11.292  68.784  1.00  0.00    -0.133 C  
HETATM    9  C   UNL     1      -8.765  11.728  67.382  1.00  0.00    -0.162 C  
HETATM   10  C   UNL     1      -9.635  12.892  66.894  1.00  0.00    -0.240 C  
BRANCH  10  11
HETATM   11  C   UNL     1      -9.368  14.173  67.724  1.00  0.00    -0.200 C  
HETATM   12  N   UNL     1     -10.032  15.285  67.225  1.00  0.00    -0.225 N  
HETATM   13  O   UNL     1      -8.582  14.195  68.670  1.00  0.00    -0.171 OA 
HETATM   14  H   UNL     1     -10.729  15.173  66.489  1.00  0.00     0.000 HD 
BRANCH  12  15
HETATM   15  C   UNL     1      -9.747  16.561  67.733  1.00  0.00    -0.235 A  
HETATM   16  C   UNL     1      -8.712  17.324  67.161  1.00  0.00    -0.231 A  
HETATM   17  C   UNL     1      -7.790  16.799  66.102  1.00  0.00    -0.245 C  
HETATM   18  C   UNL     1      -8.450  18.593  67.705  1.00  0.00    -0.293 A  
HETATM   19  C   UNL     1      -9.218  19.096  68.759  1.00  0.00    -0.407 A  
HETATM   20  C   UNL     1     -10.254  18.341  69.292  1.00  0.00     0.012 A  
HETATM   21  C   UNL     1     -10.531  17.065  68.793  1.00  0.00    -0.347 A  
HETATM   22  C   UNL     1     -11.671  16.274  69.377  1.00  0.00    -0.109 C  
ENDBRANCH  12  15
ENDBRANCH  10  11
ENDBRANCH   4   5
ENDBRANCH   3   4
ENDBRANCH   2   3
TORSDOF 5
ENDMDL
MODEL      128
REMARK 921   NORMALIZED FREE ENERGY PREDICTED BY IDOCK:   -4.03 KCAL/MOL
REMARK 922        TOTAL FREE ENERGY PREDICTED BY IDOCK:   -5.64 KCAL/MOL
REMARK 923 INTER-LIGAND FREE ENERGY PREDICTED BY IDOCK:   -5.08 KCAL/MOL
REMARK 924 INTRA-LIGAND FREE ENERGY PREDICTED BY IDOCK:   -0.56 KCAL/MOL
REMARK 927      BINDING AFFINITY PREDICTED BY RF-SCORE:    0.00 PKD
ROOT
HETATM    1  C   UNL     1     -11.996  14.408  64.342  1.00  0.00    -0.471 C  
HETATM    2  C   UNL     1     -11.394  15.796  64.509  1.00  0.00    -0.324 C  
ENDROOT
BRANCH   2   3
HETATM    3  C   UNL     1     -10.211  15.786  65.482  1.00  0.00    -0.407 C  
BRANCH   3   4
HETATM    4  C   UNL     1     -10.634  15.863  66.958  1.00  0.00    -0.306 C  
BRANCH   4   5
HETATM    5  N   UNL     1      -9.971  14.899  67.849  1.00  0.00    -0.218 NA 
HETATM    6  C   UNL     1     -10.101  15.214  69.286  1.00  0.00    -0.246 C  
HETATM    7  C   UNL     1     -11.436  14.845  69.942  1.00  0.00    -0.321 C  
HETATM    8  C   UNL     1     -11.906  13.437  69.593  1.00  0.00    -0.394 C  
HETATM    9  C   UNL     1     -11.825  13.201  68.090  1.00  0.00    -0.386 C  
HETATM   10  C   UNL     1     -10.417  13.504  67.562  1.00  0.00    -0.237 C  
BRANCH  10  11
HETATM   11  C   UNL     1      -9.386  12.484  68.109  1.00  0.00    -0.210 C  
HETATM   12  N   UNL     1      -9.819  11.171  67.994  1.00  0.00    -0.170 N  
HETATM   13  O   UNL     1      -8.341  12.830  68.657  1.00  0.00    -0.091 OA 
HETATM   14  H   UNL     1     -10.658  10.956  67.456  1.00  0.00     0.000 HD 
BRANCH  12  15
HETATM   15  C   UNL     1      -9.103  10.138  68.616  1.00  0.00    -0.143 A  
HETATM   16  C   UNL     1      -7.929   9.643  68.018  1.00  0.00    -0.097 A  
HETATM   17  C   UNL     1      -7.451  10.072  66.663  1.00  0.00    -0.104 C  
HETATM   18  C   UNL     1      -7.246   8.600  68.667  1.00  0.00    -0.076 A  
HETATM   19  C   UNL     1      -7.700   8.094  69.888  1.00  0.00    -0.098 A  
HETATM   20  C   UNL     1      -8.844   8.613  70.478  1.00  0.00    -0.182 A  
HETATM   21  C   UNL     1      -9.564   9.635  69.853  1.00  0.00    -0.260 A  
HETATM   22  C   UNL     1     -10.791  10.194  70.523  1.00  0.00    -0.340 C  
ENDBRANCH  12  15
ENDBRANCH  10  11
ENDBRANCH   4   5
ENDBRANCH   3   4
ENDBRANCH   2   3
TORSDOF 5
ENDMDL
MODEL      129
REMARK 921   NORMALIZED FREE ENERGY PREDICTED BY IDOCK:   -4.02 KCAL/MOL
REMARK 922        TOTAL FREE ENERGY PREDICTED BY IDOCK:   -5.64 KCAL/MOL
REMARK 923 INTER-LIGAND FREE ENERGY PREDICTED BY IDOCK:   -5.15 KCAL/MOL
REMARK 924 INTRA-LIGAND FREE ENERGY PREDICTED BY IDOCK:   -0.48 KCAL/MOL
REMARK 927      BINDING AFFINITY PREDICTED BY RF-SCORE:    0.00 PKD
ROOT
HETATM    1  C   UNL     1      -8.121  16.033  68.937  1.00  0.00    -0.218 C  
HETATM    2  C   UNL     1      -6.921  15.281  69.495  1.00  0.00    -0.191 C  
ENDROOT
BRANCH   2   3
HETATM    3  C   UNL     1      -5.986  14.803  68.381  1.00  0.00    -0.102 C  
BRANCH   3   4
HETATM    4  C   UNL     1      -5.850  13.273  68.313  1.00  0.00    -0.090 C  
BRANCH   4   5
HETATM    5  N   UNL     1      -6.832  12.596  67.453  1.00  0.00    -0.153 NA 
HETATM    6  C   UNL     1      -6.276  11.478  66.665  1.00  0.00    -0.113 C  
HETATM    7  C   UNL     1      -6.077  10.155  67.412  1.00  0.00    -0.057 C  
HETATM    8  C   UNL     1      -7.285   9.753  68.252  1.00  0.00    -0.078 C  
HETATM    9  C   UNL     1      -7.760  10.925  69.103  1.00  0.00    -0.127 C  
HETATM   10  C   UNL     1      -8.026  12.161  68.236  1.00  0.00    -0.163 C  
BRANCH  10  11
HETATM   11  C   UNL     1      -9.235  11.931  67.293  1.00  0.00    -0.179 C  
HETATM   12  N   UNL     1      -9.133  12.642  66.107  1.00  0.00    -0.434 N  
HETATM   13  O   UNL     1     -10.207  11.251  67.620  1.00  0.00    -0.176 OA 
HETATM   14  H   UNL     1      -8.263  13.119  65.871  1.00  0.00     0.000 HD 
BRANCH  12  15
HETATM   15  C   UNL     1     -10.227  12.707  65.230  1.00  0.00    -0.284 A  
HETATM   16  C   UNL     1     -11.110  13.800  65.296  1.00  0.00    -0.315 A  
HETATM   17  C   UNL     1     -11.029  14.862  66.350  1.00  0.00    -0.336 C  
HETATM   18  C   UNL     1     -12.200  13.822  64.408  1.00  0.00    -0.440 A  
HETATM   19  C   UNL     1     -12.379  12.807  63.465  1.00  0.00    -0.559 A  
HETATM   20  C   UNL     1     -11.481  11.750  63.395  1.00  0.00    -0.424 A  
HETATM   21  C   UNL     1     -10.398  11.681  64.276  1.00  0.00    -0.371 A  
HETATM   22  C   UNL     1      -9.429  10.534  64.167  1.00  0.00    -0.342 C  
ENDBRANCH  12  15
ENDBRANCH  10  11
ENDBRANCH   4   5
ENDBRANCH   3   4
ENDBRANCH   2   3
TORSDOF 5
ENDMDL
MODEL      130
REMARK 921   NORMALIZED FREE ENERGY PREDICTED BY IDOCK:   -4.01 KCAL/MOL
REMARK 922        TOTAL FREE ENERGY PREDICTED BY IDOCK:   -5.61 KCAL/MOL
REMARK 923 INTER-LIGAND FREE ENERGY PREDICTED BY IDOCK:   -5.02 KCAL/MOL
REMARK 924 INTRA-LIGAND FREE ENERGY PREDICTED BY IDOCK:   -0.60 KCAL/MOL
REMARK 927      BINDING AFFINITY PREDICTED BY RF-SCORE:    0.00 PKD
ROOT
HETATM    1  C   UNL     1     -10.415  13.629  66.577  1.00  0.00    -0.281 C  
HETATM    2  C   UNL     1     -11.068  13.632  67.952  1.00  0.00    -0.283 C  
ENDROOT
BRANCH   2   3
HETATM    3  C   UNL     1     -11.787  12.310  68.238  1.00  0.00    -0.367 C  
BRANCH   3   4
HETATM    4  C   UNL     1     -11.525  11.230  67.174  1.00  0.00    -0.137 C  
BRANCH   4   5
HETATM    5  N   UNL     1     -10.930   9.985  67.682  1.00  0.00    -0.282 NA 
HETATM    6  C   UNL     1     -10.362   9.115  66.633  1.00  0.00    -0.218 C  
HETATM    7  C   UNL     1      -8.982   9.511  66.097  1.00  0.00    -0.191 C  
HETATM    8  C   UNL     1      -7.984   9.847  67.201  1.00  0.00    -0.109 C  
HETATM    9  C   UNL     1      -8.602  10.812  68.206  1.00  0.00    -0.135 C  
HETATM   10  C   UNL     1      -9.927  10.264  68.751  1.00  0.00    -0.179 C  
BRANCH  10  11
HETATM   11  C   UNL     1      -9.692   8.998  69.615  1.00  0.00    -0.172 C  
HETATM   12  N   UNL     1     -10.800   8.164  69.657  1.00  0.00    -0.372 N  
HETATM   13  O   UNL     1      -8.655   8.817  70.252  1.00  0.00    -0.131 OA 
HETATM   14  H   UNL     1     -11.592   8.339  69.039  1.00  0.00     0.000 HD 
BRANCH  12  15
HETATM   15  C   UNL     1     -10.831   7.081  70.547  1.00  0.00    -0.251 A  
HETATM   16  C   UNL     1     -10.191   5.876  70.203  1.00  0.00    -0.281 A  
HETATM   17  C   UNL     1      -9.571   5.626  68.862  1.00  0.00    -0.168 C  
HETATM   18  C   UNL     1     -10.255   4.811  71.118  1.00  0.00    -0.229 A  
HETATM   19  C   UNL     1     -10.903   4.956  72.347  1.00  0.00    -0.204 A  
HETATM   20  C   UNL     1     -11.505   6.161  72.682  1.00  0.00    -0.277 A  
HETATM   21  C   UNL     1     -11.483   7.237  71.790  1.00  0.00    -0.300 A  
HETATM   22  C   UNL     1     -12.127   8.539  72.185  1.00  0.00    -0.449 C  
ENDBRANCH  12  15
ENDBRANCH  10  11
ENDBRANCH   4   5
ENDBRANCH   3   4
ENDBRANCH   2   3
TORSDOF 5
ENDMDL
MODEL      131
REMARK 921   NORMALIZED FREE ENERGY PREDICTED BY IDOCK:   -3.97 KCAL/MOL
REMARK 922        TOTAL FREE ENERGY PREDICTED BY IDOCK:   -5.57 KCAL/MOL
REMARK 923 INTER-LIGAND FREE ENERGY PREDICTED BY IDOCK:   -5.26 KCAL/MOL
REMARK 924 INTRA-LIGAND FREE ENERGY PREDICTED BY IDOCK:   -0.31 KCAL/MOL
REMARK 927      BINDING AFFINITY PREDICTED BY RF-SCORE:    0.00 PKD
ROOT
HETATM    1  C   UNL     1      -6.607   6.428  73.826  1.00  0.00    -0.070 C  
HETATM    2  C   UNL     1      -7.549   7.620  73.932  1.00  0.00    -0.162 C  
ENDROOT
BRANCH   2   3
HETATM    3  C   UNL     1      -9.008   7.208  73.714  1.00  0.00    -0.227 C  
BRANCH   3   4
HETATM    4  C   UNL     1      -9.192   6.200  72.567  1.00  0.00    -0.137 C  
BRANCH   4   5
HETATM    5  N   UNL     1      -8.964   6.741  71.218  1.00  0.00    -0.140 NA 
HETATM    6  C   UNL     1      -8.625   5.719  70.207  1.00  0.00    -0.133 C  
HETATM    7  C   UNL     1      -9.797   4.909  69.642  1.00  0.00    -0.288 C  
HETATM    8  C   UNL     1     -10.987   5.774  69.243  1.00  0.00    -0.330 C  
HETATM    9  C   UNL     1     -11.339   6.750  70.359  1.00  0.00    -0.399 C  
HETATM   10  C   UNL     1     -10.116   7.578  70.771  1.00  0.00    -0.192 C  
BRANCH  10  11
HETATM   11  C   UNL     1      -9.680   8.531  69.630  1.00  0.00    -0.179 C  
HETATM   12  N   UNL     1     -10.689   8.758  68.705  1.00  0.00    -0.411 N  
HETATM   13  O   UNL     1      -8.531   8.961  69.531  1.00  0.00    -0.121 OA 
HETATM   14  H   UNL     1     -11.637   8.434  68.896  1.00  0.00     0.000 HD 
BRANCH  12  15
HETATM   15  C   UNL     1     -10.407   9.432  67.508  1.00  0.00    -0.255 A  
HETATM   16  C   UNL     1      -9.730   8.762  66.472  1.00  0.00    -0.328 A  
HETATM   17  C   UNL     1      -9.165   7.382  66.615  1.00  0.00    -0.196 C  
HETATM   18  C   UNL     1      -9.456   9.476  65.293  1.00  0.00    -0.326 A  
HETATM   19  C   UNL     1      -9.876  10.800  65.140  1.00  0.00    -0.333 A  
HETATM   20  C   UNL     1     -10.569  11.437  66.161  1.00  0.00    -0.316 A  
HETATM   21  C   UNL     1     -10.840  10.768  67.358  1.00  0.00    -0.345 A  
HETATM   22  C   UNL     1     -11.608  11.475  68.443  1.00  0.00    -0.375 C  
ENDBRANCH  12  15
ENDBRANCH  10  11
ENDBRANCH   4   5
ENDBRANCH   3   4
ENDBRANCH   2   3
TORSDOF 5
ENDMDL
MODEL      132
REMARK 921   NORMALIZED FREE ENERGY PREDICTED BY IDOCK:   -3.96 KCAL/MOL
REMARK 922        TOTAL FREE ENERGY PREDICTED BY IDOCK:   -5.55 KCAL/MOL
REMARK 923 INTER-LIGAND FREE ENERGY PREDICTED BY IDOCK:   -5.53 KCAL/MOL
REMARK 924 INTRA-LIGAND FREE ENERGY PREDICTED BY IDOCK:   -0.03 KCAL/MOL
REMARK 927      BINDING AFFINITY PREDICTED BY RF-SCORE:    0.00 PKD
ROOT
HETATM    1  C   UNL     1     -10.642   7.770  67.036  1.00  0.00    -0.396 C  
HETATM    2  C   UNL     1      -9.485   8.408  66.279  1.00  0.00    -0.292 C  
ENDROOT
BRANCH   2   3
HETATM    3  C   UNL     1      -9.846   9.806  65.769  1.00  0.00    -0.360 C  
BRANCH   3   4
HETATM    4  C   UNL     1      -8.739  10.847  66.009  1.00  0.00    -0.186 C  
BRANCH   4   5
HETATM    5  N   UNL     1      -9.209  12.231  66.177  1.00  0.00    -0.181 NA 
HETATM    6  C   UNL     1     -10.553  12.485  65.619  1.00  0.00    -0.269 C  
HETATM    7  C   UNL     1     -11.740  12.018  66.469  1.00  0.00    -0.330 C  
HETATM    8  C   UNL     1     -11.618  12.412  67.937  1.00  0.00    -0.415 C  
HETATM    9  C   UNL     1     -10.239  12.051  68.476  1.00  0.00    -0.218 C  
HETATM   10  C   UNL     1      -9.132  12.657  67.605  1.00  0.00    -0.192 C  
BRANCH  10  11
HETATM   11  C   UNL     1      -9.127  14.203  67.708  1.00  0.00    -0.190 C  
HETATM   12  N   UNL     1      -8.527  14.812  66.615  1.00  0.00    -0.422 N  
HETATM   13  O   UNL     1      -9.541  14.800  68.700  1.00  0.00    -0.207 OA 
HETATM   14  H   UNL     1      -8.281  14.257  65.795  1.00  0.00     0.000 HD 
BRANCH  12  15
HETATM   15  C   UNL     1      -8.259  16.188  66.636  1.00  0.00    -0.286 A  
HETATM   16  C   UNL     1      -9.263  17.100  66.262  1.00  0.00    -0.260 A  
HETATM   17  C   UNL     1     -10.592  16.682  65.710  1.00  0.00    -0.278 C  
HETATM   18  C   UNL     1      -8.952  18.471  66.286  1.00  0.00    -0.219 A  
HETATM   19  C   UNL     1      -7.695  18.915  66.702  1.00  0.00    -0.260 A  
HETATM   20  C   UNL     1      -6.725  18.003  67.095  1.00  0.00    -0.203 A  
HETATM   21  C   UNL     1      -6.988  16.630  67.063  1.00  0.00    -0.241 A  
HETATM   22  C   UNL     1      -5.926  15.663  67.512  1.00  0.00    -0.123 C  
ENDBRANCH  12  15
ENDBRANCH  10  11
ENDBRANCH   4   5
ENDBRANCH   3   4
ENDBRANCH   2   3
TORSDOF 5
ENDMDL
MODEL      133
REMARK 921   NORMALIZED FREE ENERGY PREDICTED BY IDOCK:   -3.96 KCAL/MOL
REMARK 922        TOTAL FREE ENERGY PREDICTED BY IDOCK:   -5.55 KCAL/MOL
REMARK 923 INTER-LIGAND FREE ENERGY PREDICTED BY IDOCK:   -5.08 KCAL/MOL
REMARK 924 INTRA-LIGAND FREE ENERGY PREDICTED BY IDOCK:   -0.48 KCAL/MOL
REMARK 927      BINDING AFFINITY PREDICTED BY RF-SCORE:    0.00 PKD
ROOT
HETATM    1  C   UNL     1      -8.823   8.796  62.372  1.00  0.00    -0.084 C  
HETATM    2  C   UNL     1      -8.437  10.210  62.786  1.00  0.00    -0.183 C  
ENDROOT
BRANCH   2   3
HETATM    3  C   UNL     1      -9.493  10.839  63.700  1.00  0.00    -0.325 C  
BRANCH   3   4
HETATM    4  C   UNL     1     -10.063   9.859  64.739  1.00  0.00     0.088 C  
BRANCH   4   5
HETATM    5  N   UNL     1     -10.215  10.408  66.095  1.00  0.00    -0.235 NA 
HETATM    6  C   UNL     1     -10.409   9.385  67.143  1.00  0.00    -0.258 C  
HETATM    7  C   UNL     1      -9.148   8.656  67.620  1.00  0.00    -0.145 C  
HETATM    8  C   UNL     1      -7.985   9.599  67.912  1.00  0.00    -0.098 C  
HETATM    9  C   UNL     1      -7.784  10.576  66.760  1.00  0.00    -0.118 C  
HETATM   10  C   UNL     1      -9.086  11.321  66.438  1.00  0.00    -0.192 C  
BRANCH  10  11
HETATM   11  C   UNL     1      -9.488  12.265  67.600  1.00  0.00    -0.188 C  
HETATM   12  N   UNL     1     -10.828  12.623  67.561  1.00  0.00    -0.234 N  
HETATM   13  O   UNL     1      -8.671  12.702  68.409  1.00  0.00    -0.175 OA 
HETATM   14  H   UNL     1     -11.461  12.158  66.911  1.00  0.00     0.000 HD 
BRANCH  12  15
HETATM   15  C   UNL     1     -11.313  13.624  68.415  1.00  0.00    -0.295 A  
HETATM   16  C   UNL     1     -11.254  14.972  68.015  1.00  0.00    -0.324 A  
HETATM   17  C   UNL     1     -10.575  15.429  66.759  1.00  0.00    -0.309 C  
HETATM   18  C   UNL     1     -11.740  15.946  68.904  1.00  0.00    -0.376 A  
HETATM   19  C   UNL     1     -12.298  15.584  70.132  1.00  0.00    -0.384 A  
HETATM   20  C   UNL     1     -12.375  14.247  70.499  1.00  0.00    -0.430 A  
HETATM   21  C   UNL     1     -11.881  13.250  69.652  1.00  0.00    -0.391 A  
HETATM   22  C   UNL     1     -11.993  11.807  70.065  1.00  0.00    -0.421 C  
ENDBRANCH  12  15
ENDBRANCH  10  11
ENDBRANCH   4   5
ENDBRANCH   3   4
ENDBRANCH   2   3
TORSDOF 5
ENDMDL
MODEL      134
REMARK 921   NORMALIZED FREE ENERGY PREDICTED BY IDOCK:   -3.94 KCAL/MOL
REMARK 922        TOTAL FREE ENERGY PREDICTED BY IDOCK:   -5.53 KCAL/MOL
REMARK 923 INTER-LIGAND FREE ENERGY PREDICTED BY IDOCK:   -5.23 KCAL/MOL
REMARK 924 INTRA-LIGAND FREE ENERGY PREDICTED BY IDOCK:   -0.30 KCAL/MOL
REMARK 927      BINDING AFFINITY PREDICTED BY RF-SCORE:    0.00 PKD
ROOT
HETATM    1  C   UNL     1      -5.893  19.926  66.876  1.00  0.00    -0.180 C  
HETATM    2  C   UNL     1      -6.108  19.661  68.360  1.00  0.00    -0.266 C  
ENDROOT
BRANCH   2   3
HETATM    3  C   UNL     1      -6.613  18.237  68.612  1.00  0.00    -0.234 C  
BRANCH   3   4
HETATM    4  C   UNL     1      -8.043  18.188  69.175  1.00  0.00     0.071 C  
BRANCH   4   5
HETATM    5  N   UNL     1      -8.964  17.290  68.461  1.00  0.00    -0.268 NA 
HETATM    6  C   UNL     1     -10.388  17.666  68.580  1.00  0.00    -0.359 C  
HETATM    7  C   UNL     1     -10.865  18.810  67.680  1.00  0.00    -0.382 C  
HETATM    8  C   UNL     1     -10.403  18.667  66.233  1.00  0.00    -0.483 C  
HETATM    9  C   UNL     1      -8.911  18.362  66.175  1.00  0.00    -0.116 C  
HETATM   10  C   UNL     1      -8.567  17.137  67.031  1.00  0.00    -0.218 C  
BRANCH  10  11
HETATM   11  C   UNL     1      -9.188  15.849  66.433  1.00  0.00    -0.309 C  
HETATM   12  N   UNL     1      -9.437  14.878  67.393  1.00  0.00    -0.203 N  
HETATM   13  O   UNL     1      -9.354  15.695  65.224  1.00  0.00    -0.194 OA 
HETATM   14  H   UNL     1      -9.350  15.107  68.383  1.00  0.00     0.000 HD 
BRANCH  12  15
HETATM   15  C   UNL     1      -9.810  13.583  67.003  1.00  0.00    -0.251 A  
HETATM   16  C   UNL     1      -8.848  12.557  66.983  1.00  0.00    -0.212 A  
HETATM   17  C   UNL     1      -7.389  12.789  67.236  1.00  0.00    -0.095 C  
HETATM   18  C   UNL     1      -9.258  11.275  66.576  1.00  0.00    -0.200 A  
HETATM   19  C   UNL     1     -10.589  11.021  66.236  1.00  0.00    -0.295 A  
HETATM   20  C   UNL     1     -11.532  12.040  66.289  1.00  0.00    -0.408 A  
HETATM   21  C   UNL     1     -11.158  13.332  66.667  1.00  0.00    -0.311 A  
HETATM   22  C   UNL     1     -12.202  14.415  66.734  1.00  0.00    -0.319 C  
ENDBRANCH  12  15
ENDBRANCH  10  11
ENDBRANCH   4   5
ENDBRANCH   3   4
ENDBRANCH   2   3
TORSDOF 5
ENDMDL
MODEL      135
REMARK 921   NORMALIZED FREE ENERGY PREDICTED BY IDOCK:   -3.94 KCAL/MOL
REMARK 922        TOTAL FREE ENERGY PREDICTED BY IDOCK:   -5.53 KCAL/MOL
REMARK 923 INTER-LIGAND FREE ENERGY PREDICTED BY IDOCK:   -4.97 KCAL/MOL
REMARK 924 INTRA-LIGAND FREE ENERGY PREDICTED BY IDOCK:   -0.56 KCAL/MOL
REMARK 927      BINDING AFFINITY PREDICTED BY RF-SCORE:    0.00 PKD
ROOT
HETATM    1  C   UNL     1     -10.246   6.762  74.018  1.00  0.00    -0.399 C  
HETATM    2  C   UNL     1      -8.973   5.947  74.196  1.00  0.00    -0.123 C  
ENDROOT
BRANCH   2   3
HETATM    3  C   UNL     1      -8.866   4.830  73.153  1.00  0.00    -0.111 C  
BRANCH   3   4
HETATM    4  C   UNL     1      -7.873   5.145  72.021  1.00  0.00    -0.111 C  
BRANCH   4   5
HETATM    5  N   UNL     1      -8.421   5.947  70.916  1.00  0.00    -0.125 NA 
HETATM    6  C   UNL     1      -7.545   6.018  69.729  1.00  0.00    -0.081 C  
HETATM    7  C   UNL     1      -7.559   4.798  68.801  1.00  0.00    -0.069 C  
HETATM    8  C   UNL     1      -8.966   4.308  68.478  1.00  0.00    -0.154 C  
HETATM    9  C   UNL     1      -9.795   4.177  69.750  1.00  0.00    -0.220 C  
HETATM   10  C   UNL     1      -9.791   5.489  70.545  1.00  0.00    -0.193 C  
BRANCH  10  11
HETATM   11  C   UNL     1     -10.545   6.605  69.778  1.00  0.00    -0.228 C  
HETATM   12  N   UNL     1      -9.948   7.850  69.919  1.00  0.00    -0.189 N  
HETATM   13  O   UNL     1     -11.603   6.401  69.186  1.00  0.00    -0.318 OA 
HETATM   14  H   UNL     1      -9.030   7.927  70.357  1.00  0.00     0.000 HD 
BRANCH  12  15
HETATM   15  C   UNL     1     -10.604   9.001  69.459  1.00  0.00    -0.225 A  
HETATM   16  C   UNL     1     -11.429   9.730  70.335  1.00  0.00    -0.347 A  
HETATM   17  C   UNL     1     -11.760   9.277  71.725  1.00  0.00    -0.456 C  
HETATM   18  C   UNL     1     -12.079  10.871  69.833  1.00  0.00    -0.428 A  
HETATM   19  C   UNL     1     -11.882  11.289  68.515  1.00  0.00    -0.355 A  
HETATM   20  C   UNL     1     -11.042  10.573  67.672  1.00  0.00    -0.375 A  
HETATM   21  C   UNL     1     -10.396   9.420  68.127  1.00  0.00    -0.255 A  
HETATM   22  C   UNL     1      -9.476   8.672  67.199  1.00  0.00    -0.207 C  
ENDBRANCH  12  15
ENDBRANCH  10  11
ENDBRANCH   4   5
ENDBRANCH   3   4
ENDBRANCH   2   3
TORSDOF 5
ENDMDL
MODEL      136
REMARK 921   NORMALIZED FREE ENERGY PREDICTED BY IDOCK:   -3.92 KCAL/MOL
REMARK 922        TOTAL FREE ENERGY PREDICTED BY IDOCK:   -5.51 KCAL/MOL
REMARK 923 INTER-LIGAND FREE ENERGY PREDICTED BY IDOCK:   -5.15 KCAL/MOL
REMARK 924 INTRA-LIGAND FREE ENERGY PREDICTED BY IDOCK:   -0.36 KCAL/MOL
REMARK 927      BINDING AFFINITY PREDICTED BY RF-SCORE:    0.00 PKD
ROOT
HETATM    1  C   UNL     1     -11.488  12.259  63.486  1.00  0.00    -0.558 C  
HETATM    2  C   UNL     1     -10.386  11.212  63.393  1.00  0.00    -0.419 C  
ENDROOT
BRANCH   2   3
HETATM    3  C   UNL     1      -9.935  10.742  64.779  1.00  0.00    -0.382 C  
BRANCH   3   4
HETATM    4  C   UNL     1      -9.662  11.898  65.756  1.00  0.00    -0.237 C  
BRANCH   4   5
HETATM    5  N   UNL     1      -9.498  11.500  67.162  1.00  0.00    -0.176 NA 
HETATM    6  C   UNL     1      -9.077  12.598  68.056  1.00  0.00    -0.207 C  
HETATM    7  C   UNL     1     -10.176  13.571  68.499  1.00  0.00    -0.229 C  
HETATM    8  C   UNL     1     -11.444  12.868  68.970  1.00  0.00    -0.358 C  
HETATM    9  C   UNL     1     -11.872  11.804  67.967  1.00  0.00    -0.304 C  
HETATM   10  C   UNL     1     -10.725  10.827  67.679  1.00  0.00    -0.258 C  
BRANCH  10  11
HETATM   11  C   UNL     1     -10.390   9.979  68.932  1.00  0.00    -0.202 C  
HETATM   12  N   UNL     1      -9.495   8.953  68.661  1.00  0.00    -0.150 N  
HETATM   13  O   UNL     1     -10.934  10.162  70.020  1.00  0.00    -0.263 OA 
HETATM   14  H   UNL     1      -9.025   8.913  67.757  1.00  0.00     0.000 HD 
BRANCH  12  15
HETATM   15  C   UNL     1      -9.238   7.971  69.629  1.00  0.00    -0.152 A  
HETATM   16  C   UNL     1      -9.987   6.780  69.632  1.00  0.00    -0.184 A  
HETATM   17  C   UNL     1     -11.155   6.540  68.726  1.00  0.00    -0.357 C  
HETATM   18  C   UNL     1      -9.706   5.826  70.626  1.00  0.00    -0.224 A  
HETATM   19  C   UNL     1      -8.688   6.039  71.559  1.00  0.00    -0.132 A  
HETATM   20  C   UNL     1      -7.939   7.207  71.524  1.00  0.00    -0.102 A  
HETATM   21  C   UNL     1      -8.204   8.190  70.566  1.00  0.00    -0.117 A  
HETATM   22  C   UNL     1      -7.365   9.440  70.537  1.00  0.00    -0.138 C  
ENDBRANCH  12  15
ENDBRANCH  10  11
ENDBRANCH   4   5
ENDBRANCH   3   4
ENDBRANCH   2   3
TORSDOF 5
ENDMDL
MODEL      137
REMARK 921   NORMALIZED FREE ENERGY PREDICTED BY IDOCK:   -3.91 KCAL/MOL
REMARK 922        TOTAL FREE ENERGY PREDICTED BY IDOCK:   -5.49 KCAL/MOL
REMARK 923 INTER-LIGAND FREE ENERGY PREDICTED BY IDOCK:   -5.90 KCAL/MOL
REMARK 924 INTRA-LIGAND FREE ENERGY PREDICTED BY IDOCK:    0.41 KCAL/MOL
REMARK 927      BINDING AFFINITY PREDICTED BY RF-SCORE:    0.00 PKD
ROOT
HETATM    1  C   UNL     1      -7.935  20.373  66.951  1.00  0.00    -0.326 C  
HETATM    2  C   UNL     1      -9.376  20.118  67.373  1.00  0.00    -0.513 C  
ENDROOT
BRANCH   2   3
HETATM    3  C   UNL     1      -9.497  18.860  68.238  1.00  0.00    -0.395 C  
BRANCH   3   4
HETATM    4  C   UNL     1     -10.806  18.086  68.010  1.00  0.00    -0.176 C  
BRANCH   4   5
HETATM    5  N   UNL     1     -10.639  16.677  67.623  1.00  0.00    -0.324 NA 
HETATM    6  C   UNL     1      -9.335  16.371  67.002  1.00  0.00    -0.228 C  
HETATM    7  C   UNL     1      -8.148  16.210  67.958  1.00  0.00    -0.149 C  
HETATM    8  C   UNL     1      -8.462  15.322  69.157  1.00  0.00    -0.234 C  
HETATM    9  C   UNL     1      -9.777  15.738  69.804  1.00  0.00    -0.187 C  
HETATM   10  C   UNL     1     -10.912  15.766  68.773  1.00  0.00    -0.291 C  
BRANCH  10  11
HETATM   11  C   UNL     1     -11.236  14.338  68.266  1.00  0.00    -0.276 C  
HETATM   12  N   UNL     1     -10.510  13.356  68.924  1.00  0.00    -0.398 N  
HETATM   13  O   UNL     1     -11.998  14.129  67.322  1.00  0.00    -0.397 OA 
HETATM   14  H   UNL     1      -9.960  13.597  69.749  1.00  0.00     0.000 HD 
BRANCH  12  15
HETATM   15  C   UNL     1     -10.531  12.033  68.458  1.00  0.00    -0.229 A  
HETATM   16  C   UNL     1     -11.271  11.060  69.153  1.00  0.00    -0.318 A  
HETATM   17  C   UNL     1     -11.952  11.322  70.462  1.00  0.00    -0.467 C  
HETATM   18  C   UNL     1     -11.257   9.744  68.660  1.00  0.00    -0.068 A  
HETATM   19  C   UNL     1     -10.560   9.420  67.494  1.00  0.00    -0.333 A  
HETATM   20  C   UNL     1      -9.858  10.399  66.804  1.00  0.00    -0.242 A  
HETATM   21  C   UNL     1      -9.828  11.715  67.275  1.00  0.00    -0.203 A  
HETATM   22  C   UNL     1      -9.075  12.762  66.499  1.00  0.00    -0.150 C  
ENDBRANCH  12  15
ENDBRANCH  10  11
ENDBRANCH   4   5
ENDBRANCH   3   4
ENDBRANCH   2   3
TORSDOF 5
ENDMDL
MODEL      138
REMARK 921   NORMALIZED FREE ENERGY PREDICTED BY IDOCK:   -3.91 KCAL/MOL
REMARK 922        TOTAL FREE ENERGY PREDICTED BY IDOCK:   -5.49 KCAL/MOL
REMARK 923 INTER-LIGAND FREE ENERGY PREDICTED BY IDOCK:   -5.03 KCAL/MOL
REMARK 924 INTRA-LIGAND FREE ENERGY PREDICTED BY IDOCK:   -0.47 KCAL/MOL
REMARK 927      BINDING AFFINITY PREDICTED BY RF-SCORE:    0.00 PKD
ROOT
HETATM    1  C   UNL     1      -9.164   5.302  65.637  1.00  0.00    -0.145 C  
HETATM    2  C   UNL     1     -10.270   5.051  66.653  1.00  0.00    -0.299 C  
ENDROOT
BRANCH   2   3
HETATM    3  C   UNL     1     -10.034   5.833  67.949  1.00  0.00    -0.164 C  
BRANCH   3   4
HETATM    4  C   UNL     1      -8.618   6.423  68.056  1.00  0.00    -0.117 C  
BRANCH   4   5
HETATM    5  N   UNL     1      -8.551   7.790  68.594  1.00  0.00    -0.129 NA 
HETATM    6  C   UNL     1      -7.217   8.416  68.490  1.00  0.00    -0.081 C  
HETATM    7  C   UNL     1      -6.838   8.979  67.115  1.00  0.00    -0.074 C  
HETATM    8  C   UNL     1      -7.944   9.819  66.486  1.00  0.00    -0.112 C  
HETATM    9  C   UNL     1      -9.278   9.085  66.551  1.00  0.00    -0.226 C  
HETATM   10  C   UNL     1      -9.601   8.660  67.989  1.00  0.00    -0.149 C  
BRANCH  10  11
HETATM   11  C   UNL     1      -9.864   9.895  68.888  1.00  0.00    -0.176 C  
HETATM   12  N   UNL     1     -11.144  10.409  68.733  1.00  0.00    -0.249 N  
HETATM   13  O   UNL     1      -8.989  10.397  69.592  1.00  0.00    -0.153 OA 
HETATM   14  H   UNL     1     -11.838   9.892  68.194  1.00  0.00     0.000 HD 
BRANCH  12  15
HETATM   15  C   UNL     1     -11.483  11.638  69.317  1.00  0.00    -0.300 A  
HETATM   16  C   UNL     1     -11.167  12.837  68.653  1.00  0.00    -0.322 A  
HETATM   17  C   UNL     1     -10.359  12.893  67.392  1.00  0.00    -0.233 C  
HETATM   18  C   UNL     1     -11.513  14.048  69.277  1.00  0.00    -0.344 A  
HETATM   19  C   UNL     1     -12.184  14.059  70.503  1.00  0.00    -0.435 A  
HETATM   20  C   UNL     1     -12.514  12.866  71.131  1.00  0.00    -0.344 A  
HETATM   21  C   UNL     1     -12.166  11.641  70.553  1.00  0.00    -0.451 A  
HETATM   22  C   UNL     1     -12.552  10.361  71.245  1.00  0.00    -0.525 C  
ENDBRANCH  12  15
ENDBRANCH  10  11
ENDBRANCH   4   5
ENDBRANCH   3   4
ENDBRANCH   2   3
TORSDOF 5
ENDMDL
MODEL      139
REMARK 921   NORMALIZED FREE ENERGY PREDICTED BY IDOCK:   -3.90 KCAL/MOL
REMARK 922        TOTAL FREE ENERGY PREDICTED BY IDOCK:   -5.48 KCAL/MOL
REMARK 923 INTER-LIGAND FREE ENERGY PREDICTED BY IDOCK:   -5.17 KCAL/MOL
REMARK 924 INTRA-LIGAND FREE ENERGY PREDICTED BY IDOCK:   -0.31 KCAL/MOL
REMARK 927      BINDING AFFINITY PREDICTED BY RF-SCORE:    0.00 PKD
ROOT
HETATM    1  C   UNL     1      -9.841  14.608  65.725  1.00  0.00    -0.359 C  
HETATM    2  C   UNL     1     -10.487  14.038  66.981  1.00  0.00    -0.275 C  
ENDROOT
BRANCH   2   3
HETATM    3  C   UNL     1      -9.437  13.564  67.991  1.00  0.00    -0.220 C  
BRANCH   3   4
HETATM    4  C   UNL     1      -9.018  12.098  67.792  1.00  0.00    -0.179 C  
BRANCH   4   5
HETATM    5  N   UNL     1      -9.805  11.115  68.551  1.00  0.00    -0.192 NA 
HETATM    6  C   UNL     1     -10.858  10.444  67.762  1.00  0.00    -0.297 C  
HETATM    7  C   UNL     1     -10.397   9.308  66.843  1.00  0.00    -0.316 C  
HETATM    8  C   UNL     1      -9.449   8.330  67.528  1.00  0.00    -0.182 C  
HETATM    9  C   UNL     1      -8.340   9.079  68.256  1.00  0.00    -0.121 C  
HETATM   10  C   UNL     1      -8.921  10.118  69.223  1.00  0.00    -0.183 C  
BRANCH  10  11
HETATM   11  C   UNL     1      -9.671   9.431  70.392  1.00  0.00    -0.261 C  
HETATM   12  N   UNL     1      -9.132   8.196  70.724  1.00  0.00    -0.143 N  
HETATM   13  O   UNL     1     -10.684   9.910  70.899  1.00  0.00    -0.311 OA 
HETATM   14  H   UNL     1      -8.245   7.902  70.316  1.00  0.00     0.000 HD 
BRANCH  12  15
HETATM   15  C   UNL     1      -9.805   7.353  71.620  1.00  0.00    -0.165 A  
HETATM   16  C   UNL     1      -9.529   7.436  72.997  1.00  0.00    -0.233 A  
HETATM   17  C   UNL     1      -8.446   8.298  73.570  1.00  0.00    -0.264 C  
HETATM   18  C   UNL     1     -10.217   6.566  73.861  1.00  0.00    -0.353 A  
HETATM   19  C   UNL     1     -11.171   5.671  73.371  1.00  0.00    -0.158 A  
HETATM   20  C   UNL     1     -11.452   5.623  72.012  1.00  0.00    -0.199 A  
HETATM   21  C   UNL     1     -10.773   6.456  71.118  1.00  0.00    -0.293 A  
HETATM   22  C   UNL     1     -11.109   6.397  69.652  1.00  0.00    -0.465 C  
ENDBRANCH  12  15
ENDBRANCH  10  11
ENDBRANCH   4   5
ENDBRANCH   3   4
ENDBRANCH   2   3
TORSDOF 5
ENDMDL
MODEL      140
REMARK 921   NORMALIZED FREE ENERGY PREDICTED BY IDOCK:   -3.90 KCAL/MOL
REMARK 922        TOTAL FREE ENERGY PREDICTED BY IDOCK:   -5.47 KCAL/MOL
REMARK 923 INTER-LIGAND FREE ENERGY PREDICTED BY IDOCK:   -4.90 KCAL/MOL
REMARK 924 INTRA-LIGAND FREE ENERGY PREDICTED BY IDOCK:   -0.57 KCAL/MOL
REMARK 927      BINDING AFFINITY PREDICTED BY RF-SCORE:    0.00 PKD
ROOT
HETATM    1  C   UNL     1      -5.939   9.844  64.394  1.00  0.00    -0.111 C  
HETATM    2  C   UNL     1      -5.287  10.702  65.470  1.00  0.00    -0.134 C  
ENDROOT
BRANCH   2   3
HETATM    3  C   UNL     1      -6.130  10.743  66.748  1.00  0.00    -0.082 C  
BRANCH   3   4
HETATM    4  C   UNL     1      -7.055  11.969  66.830  1.00  0.00    -0.033 C  
BRANCH   4   5
HETATM    5  N   UNL     1      -8.375  11.716  67.427  1.00  0.00    -0.145 NA 
HETATM    6  C   UNL     1      -9.330  12.833  67.278  1.00  0.00    -0.200 C  
HETATM    7  C   UNL     1     -10.014  12.963  65.913  1.00  0.00    -0.273 C  
HETATM    8  C   UNL     1     -10.556  11.639  65.385  1.00  0.00    -0.331 C  
HETATM    9  C   UNL     1      -9.498  10.547  65.490  1.00  0.00    -0.265 C  
HETATM   10  C   UNL     1      -8.960  10.439  66.922  1.00  0.00    -0.139 C  
BRANCH  10  11
HETATM   11  C   UNL     1     -10.055   9.926  67.891  1.00  0.00    -0.173 C  
HETATM   12  N   UNL     1      -9.864  10.360  69.195  1.00  0.00    -0.214 N  
HETATM   13  O   UNL     1     -10.941   9.151  67.535  1.00  0.00    -0.176 OA 
HETATM   14  H   UNL     1      -9.156  11.065  69.398  1.00  0.00     0.000 HD 
BRANCH  12  15
HETATM   15  C   UNL     1     -10.644   9.830  70.233  1.00  0.00    -0.292 A  
HETATM   16  C   UNL     1     -10.184   8.711  70.950  1.00  0.00    -0.261 A  
HETATM   17  C   UNL     1      -8.943   7.952  70.586  1.00  0.00    -0.148 C  
HETATM   18  C   UNL     1     -10.999   8.203  71.976  1.00  0.00    -0.350 A  
HETATM   19  C   UNL     1     -12.214   8.814  72.298  1.00  0.00    -0.429 A  
HETATM   20  C   UNL     1     -12.640   9.935  71.598  1.00  0.00    -0.519 A  
HETATM   21  C   UNL     1     -11.867  10.456  70.556  1.00  0.00    -0.430 A  
HETATM   22  C   UNL     1     -12.342  11.684  69.826  1.00  0.00    -0.197 C  
ENDBRANCH  12  15
ENDBRANCH  10  11
ENDBRANCH   4   5
ENDBRANCH   3   4
ENDBRANCH   2   3
TORSDOF 5
ENDMDL
MODEL      141
REMARK 921   NORMALIZED FREE ENERGY PREDICTED BY IDOCK:   -3.89 KCAL/MOL
REMARK 922        TOTAL FREE ENERGY PREDICTED BY IDOCK:   -5.47 KCAL/MOL
REMARK 923 INTER-LIGAND FREE ENERGY PREDICTED BY IDOCK:   -4.84 KCAL/MOL
REMARK 924 INTRA-LIGAND FREE ENERGY PREDICTED BY IDOCK:   -0.63 KCAL/MOL
REMARK 927      BINDING AFFINITY PREDICTED BY RF-SCORE:    0.00 PKD
ROOT
HETATM    1  C   UNL     1     -10.880  16.289  64.907  1.00  0.00    -0.315 C  
HETATM    2  C   UNL     1     -10.492  16.177  66.375  1.00  0.00    -0.304 C  
ENDROOT
BRANCH   2   3
HETATM    3  C   UNL     1     -11.236  15.034  67.071  1.00  0.00    -0.328 C  
BRANCH   3   4
HETATM    4  C   UNL     1     -12.255  14.326  66.161  1.00  0.00    -0.410 C  
BRANCH   4   5
HETATM    5  N   UNL     1     -12.103  12.866  66.071  1.00  0.00    -0.463 NA 
HETATM    6  C   UNL     1     -12.737  12.265  64.881  1.00  0.00    -0.022 C  
HETATM    7  C   UNL     1     -11.962  12.389  63.564  1.00  0.00    -0.627 C  
HETATM    8  C   UNL     1     -10.486  12.031  63.701  1.00  0.00    -0.494 C  
HETATM    9  C   UNL     1      -9.870  12.746  64.897  1.00  0.00    -0.065 C  
HETATM   10  C   UNL     1     -10.669  12.466  66.176  1.00  0.00    -0.260 C  
BRANCH  10  11
HETATM   11  C   UNL     1     -10.553  10.977  66.590  1.00  0.00    -0.262 C  
HETATM   12  N   UNL     1      -9.237  10.553  66.704  1.00  0.00    -0.155 N  
HETATM   13  O   UNL     1     -11.536  10.248  66.717  1.00  0.00     0.054 OA 
HETATM   14  H   UNL     1      -8.477  11.233  66.664  1.00  0.00     0.000 HD 
BRANCH  12  15
HETATM   15  C   UNL     1      -8.949   9.191  66.874  1.00  0.00    -0.123 A  
HETATM   16  C   UNL     1      -9.089   8.602  68.144  1.00  0.00    -0.142 A  
HETATM   17  C   UNL     1      -9.412   9.381  69.383  1.00  0.00    -0.177 C  
HETATM   18  C   UNL     1      -8.780   7.237  68.276  1.00  0.00    -0.125 A  
HETATM   19  C   UNL     1      -8.382   6.480  67.172  1.00  0.00    -0.113 A  
HETATM   20  C   UNL     1      -8.276   7.071  65.920  1.00  0.00    -0.133 A  
HETATM   21  C   UNL     1      -8.552   8.431  65.752  1.00  0.00    -0.181 A  
HETATM   22  C   UNL     1      -8.448   9.043  64.381  1.00  0.00    -0.190 C  
ENDBRANCH  12  15
ENDBRANCH  10  11
ENDBRANCH   4   5
ENDBRANCH   3   4
ENDBRANCH   2   3
TORSDOF 5
ENDMDL
MODEL      142
REMARK 921   NORMALIZED FREE ENERGY PREDICTED BY IDOCK:   -3.87 KCAL/MOL
REMARK 922        TOTAL FREE ENERGY PREDICTED BY IDOCK:   -5.43 KCAL/MOL
REMARK 923 INTER-LIGAND FREE ENERGY PREDICTED BY IDOCK:   -4.96 KCAL/MOL
REMARK 924 INTRA-LIGAND FREE ENERGY PREDICTED BY IDOCK:   -0.48 KCAL/MOL
REMARK 927      BINDING AFFINITY PREDICTED BY RF-SCORE:    0.00 PKD
ROOT
HETATM    1  C   UNL     1     -10.408  19.591  68.189  1.00  0.00    -0.550 C  
HETATM    2  C   UNL     1      -9.184  20.207  67.524  1.00  0.00    -0.487 C  
ENDROOT
BRANCH   2   3
HETATM    3  C   UNL     1      -7.966  20.186  68.453  1.00  0.00    -0.088 C  
BRANCH   3   4
HETATM    4  C   UNL     1      -6.994  19.032  68.159  1.00  0.00    -0.244 C  
BRANCH   4   5
HETATM    5  N   UNL     1      -7.622  17.796  67.669  1.00  0.00    -0.207 NA 
HETATM    6  C   UNL     1      -6.877  17.127  66.584  1.00  0.00    -0.243 C  
HETATM    7  C   UNL     1      -5.661  16.296  67.008  1.00  0.00     0.025 C  
HETATM    8  C   UNL     1      -5.946  15.378  68.191  1.00  0.00    -0.141 C  
HETATM    9  C   UNL     1      -6.642  16.144  69.309  1.00  0.00    -0.189 C  
HETATM   10  C   UNL     1      -7.900  16.851  68.790  1.00  0.00    -0.250 C  
BRANCH  10  11
HETATM   11  C   UNL     1      -8.984  15.824  68.375  1.00  0.00    -0.187 C  
HETATM   12  N   UNL     1      -9.032  14.724  69.219  1.00  0.00    -0.392 N  
HETATM   13  O   UNL     1      -9.660  15.953  67.355  1.00  0.00    -0.219 OA 
HETATM   14  H   UNL     1      -8.499  14.725  70.088  1.00  0.00     0.000 HD 
BRANCH  12  15
HETATM   15  C   UNL     1      -9.813  13.609  68.878  1.00  0.00     0.030 A  
HETATM   16  C   UNL     1      -9.279  12.613  68.041  1.00  0.00    -0.208 A  
HETATM   17  C   UNL     1      -7.943  12.728  67.371  1.00  0.00    -0.179 C  
HETATM   18  C   UNL     1     -10.097  11.518  67.713  1.00  0.00    -0.198 A  
HETATM   19  C   UNL     1     -11.389  11.405  68.234  1.00  0.00    -0.354 A  
HETATM   20  C   UNL     1     -11.890  12.384  69.081  1.00  0.00    -0.352 A  
HETATM   21  C   UNL     1     -11.115  13.499  69.412  1.00  0.00    -0.173 A  
HETATM   22  C   UNL     1     -11.675  14.537  70.348  1.00  0.00    -0.354 C  
ENDBRANCH  12  15
ENDBRANCH  10  11
ENDBRANCH   4   5
ENDBRANCH   3   4
ENDBRANCH   2   3
TORSDOF 5
ENDMDL
MODEL      143
REMARK 921   NORMALIZED FREE ENERGY PREDICTED BY IDOCK:   -3.85 KCAL/MOL
REMARK 922        TOTAL FREE ENERGY PREDICTED BY IDOCK:   -5.41 KCAL/MOL
REMARK 923 INTER-LIGAND FREE ENERGY PREDICTED BY IDOCK:   -5.14 KCAL/MOL
REMARK 924 INTRA-LIGAND FREE ENERGY PREDICTED BY IDOCK:   -0.28 KCAL/MOL
REMARK 927      BINDING AFFINITY PREDICTED BY RF-SCORE:    0.00 PKD
ROOT
HETATM    1  C   UNL     1     -11.398   4.482  73.506  1.00  0.00    -0.355 C  
HETATM    2  C   UNL     1     -10.473   3.275  73.434  1.00  0.00    -0.262 C  
ENDROOT
BRANCH   2   3
HETATM    3  C   UNL     1      -9.892   3.092  72.028  1.00  0.00    -0.241 C  
BRANCH   3   4
HETATM    4  C   UNL     1      -8.671   3.986  71.752  1.00  0.00    -0.107 C  
BRANCH   4   5
HETATM    5  N   UNL     1      -8.943   5.178  70.934  1.00  0.00    -0.133 NA 
HETATM    6  C   UNL     1      -7.758   5.716  70.236  1.00  0.00    -0.090 C  
HETATM    7  C   UNL     1      -7.331   4.983  68.960  1.00  0.00    -0.057 C  
HETATM    8  C   UNL     1      -8.496   4.689  68.020  1.00  0.00    -0.103 C  
HETATM    9  C   UNL     1      -9.655   4.061  68.783  1.00  0.00    -0.201 C  
HETATM   10  C   UNL     1     -10.063   4.932  69.978  1.00  0.00    -0.266 C  
BRANCH  10  11
HETATM   11  C   UNL     1     -10.674   6.275  69.504  1.00  0.00    -0.303 C  
HETATM   12  N   UNL     1     -10.232   7.358  70.250  1.00  0.00    -0.198 N  
HETATM   13  O   UNL     1     -11.521   6.338  68.615  1.00  0.00    -0.263 OA 
HETATM   14  H   UNL     1      -9.469   7.240  70.917  1.00  0.00     0.000 HD 
BRANCH  12  15
HETATM   15  C   UNL     1     -10.833   8.616  70.089  1.00  0.00    -0.233 A  
HETATM   16  C   UNL     1     -10.499   9.410  68.977  1.00  0.00    -0.233 A  
HETATM   17  C   UNL     1      -9.424   9.048  67.997  1.00  0.00    -0.157 C  
HETATM   18  C   UNL     1     -11.114  10.669  68.857  1.00  0.00    -0.314 A  
HETATM   19  C   UNL     1     -12.056  11.101  69.794  1.00  0.00    -0.414 A  
HETATM   20  C   UNL     1     -12.394  10.292  70.869  1.00  0.00    -0.471 A  
HETATM   21  C   UNL     1     -11.788   9.043  71.036  1.00  0.00    -0.339 A  
HETATM   22  C   UNL     1     -12.186   8.177  72.201  1.00  0.00    -0.398 C  
ENDBRANCH  12  15
ENDBRANCH  10  11
ENDBRANCH   4   5
ENDBRANCH   3   4
ENDBRANCH   2   3
TORSDOF 5
ENDMDL
MODEL      144
REMARK 921   NORMALIZED FREE ENERGY PREDICTED BY IDOCK:   -3.84 KCAL/MOL
REMARK 922        TOTAL FREE ENERGY PREDICTED BY IDOCK:   -5.41 KCAL/MOL
REMARK 923 INTER-LIGAND FREE ENERGY PREDICTED BY IDOCK:   -4.93 KCAL/MOL
REMARK 924 INTRA-LIGAND FREE ENERGY PREDICTED BY IDOCK:   -0.47 KCAL/MOL
REMARK 927      BINDING AFFINITY PREDICTED BY RF-SCORE:    0.00 PKD
ROOT
HETATM    1  C   UNL     1      -6.653  12.614  67.612  1.00  0.00    -0.143 C  
HETATM    2  C   UNL     1      -7.563  13.642  68.271  1.00  0.00    -0.130 C  
ENDROOT
BRANCH   2   3
HETATM    3  C   UNL     1      -8.184  14.589  67.241  1.00  0.00    -0.230 C  
BRANCH   3   4
HETATM    4  C   UNL     1      -9.720  14.518  67.195  1.00  0.00    -0.240 C  
BRANCH   4   5
HETATM    5  N   UNL     1     -10.274  13.197  66.860  1.00  0.00    -0.243 NA 
HETATM    6  C   UNL     1     -11.721  13.063  67.124  1.00  0.00    -0.382 C  
HETATM    7  C   UNL     1     -12.661  13.680  66.083  1.00  0.00    -0.391 C  
HETATM    8  C   UNL     1     -12.280  13.328  64.649  1.00  0.00    -0.460 C  
HETATM    9  C   UNL     1     -10.793  13.565  64.415  1.00  0.00    -0.403 C  
HETATM   10  C   UNL     1      -9.948  12.817  65.454  1.00  0.00    -0.199 C  
BRANCH  10  11
HETATM   11  C   UNL     1     -10.067  11.283  65.268  1.00  0.00    -0.267 C  
HETATM   12  N   UNL     1      -9.330  10.570  66.203  1.00  0.00    -0.170 N  
HETATM   13  O   UNL     1     -10.687  10.778  64.333  1.00  0.00    -0.301 OA 
HETATM   14  H   UNL     1      -8.909  11.054  66.995  1.00  0.00     0.000 HD 
BRANCH  12  15
HETATM   15  C   UNL     1      -9.165   9.185  66.059  1.00  0.00    -0.215 A  
HETATM   16  C   UNL     1      -9.958   8.305  66.820  1.00  0.00    -0.355 A  
HETATM   17  C   UNL     1     -10.901   8.763  67.890  1.00  0.00    -0.078 C  
HETATM   18  C   UNL     1      -9.754   6.924  66.656  1.00  0.00    -0.221 A  
HETATM   19  C   UNL     1      -8.818   6.439  65.739  1.00  0.00    -0.111 A  
HETATM   20  C   UNL     1      -8.065   7.321  64.976  1.00  0.00    -0.120 A  
HETATM   21  C   UNL     1      -8.222   8.702  65.126  1.00  0.00    -0.152 A  
HETATM   22  C   UNL     1      -7.406   9.637  64.274  1.00  0.00    -0.122 C  
ENDBRANCH  12  15
ENDBRANCH  10  11
ENDBRANCH   4   5
ENDBRANCH   3   4
ENDBRANCH   2   3
TORSDOF 5
ENDMDL
MODEL      145
REMARK 921   NORMALIZED FREE ENERGY PREDICTED BY IDOCK:   -3.84 KCAL/MOL
REMARK 922        TOTAL FREE ENERGY PREDICTED BY IDOCK:   -5.40 KCAL/MOL
REMARK 923 INTER-LIGAND FREE ENERGY PREDICTED BY IDOCK:   -5.16 KCAL/MOL
REMARK 924 INTRA-LIGAND FREE ENERGY PREDICTED BY IDOCK:   -0.24 KCAL/MOL
REMARK 927      BINDING AFFINITY PREDICTED BY RF-SCORE:    0.00 PKD
ROOT
HETATM    1  C   UNL     1     -12.040  14.236  64.236  1.00  0.00    -0.467 C  
HETATM    2  C   UNL     1     -12.056  12.773  63.814  1.00  0.00    -0.596 C  
ENDROOT
BRANCH   2   3
HETATM    3  C   UNL     1     -11.521  11.860  64.921  1.00  0.00    -0.315 C  
BRANCH   3   4
HETATM    4  C   UNL     1     -11.874  12.345  66.336  1.00  0.00    -0.354 C  
BRANCH   4   5
HETATM    5  N   UNL     1     -10.824  12.143  67.346  1.00  0.00    -0.236 NA 
HETATM    6  C   UNL     1     -10.662  13.272  68.284  1.00  0.00    -0.252 C  
HETATM    7  C   UNL     1     -11.685  13.360  69.422  1.00  0.00    -0.382 C  
HETATM    8  C   UNL     1     -11.917  12.026  70.124  1.00  0.00    -0.401 C  
HETATM    9  C   UNL     1     -12.158  10.918  69.106  1.00  0.00    -0.292 C  
HETATM   10  C   UNL     1     -11.021  10.858  68.079  1.00  0.00    -0.265 C  
BRANCH  10  11
HETATM   11  C   UNL     1      -9.695  10.407  68.744  1.00  0.00    -0.183 C  
HETATM   12  N   UNL     1      -9.715   9.074  69.130  1.00  0.00    -0.164 N  
HETATM   13  O   UNL     1      -8.771  11.187  68.970  1.00  0.00    -0.124 OA 
HETATM   14  H   UNL     1     -10.483   8.471  68.837  1.00  0.00     0.000 HD 
BRANCH  12  15
HETATM   15  C   UNL     1      -8.679   8.556  69.921  1.00  0.00    -0.132 A  
HETATM   16  C   UNL     1      -7.452   8.211  69.326  1.00  0.00    -0.089 A  
HETATM   17  C   UNL     1      -7.216   8.242  67.847  1.00  0.00    -0.095 C  
HETATM   18  C   UNL     1      -6.444   7.684  70.152  1.00  0.00    -0.034 A  
HETATM   19  C   UNL     1      -6.642   7.542  71.527  1.00  0.00    -0.045 A  
HETATM   20  C   UNL     1      -7.849   7.915  72.102  1.00  0.00    -0.129 A  
HETATM   21  C   UNL     1      -8.885   8.421  71.312  1.00  0.00    -0.210 A  
HETATM   22  C   UNL     1     -10.178   8.835  71.962  1.00  0.00    -0.401 C  
ENDBRANCH  12  15
ENDBRANCH  10  11
ENDBRANCH   4   5
ENDBRANCH   3   4
ENDBRANCH   2   3
TORSDOF 5
ENDMDL
MODEL      146
REMARK 921   NORMALIZED FREE ENERGY PREDICTED BY IDOCK:   -3.84 KCAL/MOL
REMARK 922        TOTAL FREE ENERGY PREDICTED BY IDOCK:   -5.40 KCAL/MOL
REMARK 923 INTER-LIGAND FREE ENERGY PREDICTED BY IDOCK:   -5.10 KCAL/MOL
REMARK 924 INTRA-LIGAND FREE ENERGY PREDICTED BY IDOCK:   -0.30 KCAL/MOL
REMARK 927      BINDING AFFINITY PREDICTED BY RF-SCORE:    0.00 PKD
ROOT
HETATM    1  C   UNL     1      -5.555  16.043  69.025  1.00  0.00    -0.113 C  
HETATM    2  C   UNL     1      -6.584  15.211  69.778  1.00  0.00    -0.177 C  
ENDROOT
BRANCH   2   3
HETATM    3  C   UNL     1      -5.932  14.032  70.506  1.00  0.00    -0.177 C  
BRANCH   3   4
HETATM    4  C   UNL     1      -6.091  12.694  69.765  1.00  0.00    -0.134 C  
BRANCH   4   5
HETATM    5  N   UNL     1      -6.750  12.782  68.453  1.00  0.00    -0.079 NA 
HETATM    6  C   UNL     1      -5.912  12.330  67.324  1.00  0.00    -0.150 C  
HETATM    7  C   UNL     1      -5.803  10.814  67.125  1.00  0.00    -0.050 C  
HETATM    8  C   UNL     1      -7.150  10.102  67.193  1.00  0.00    -0.089 C  
HETATM    9  C   UNL     1      -7.932  10.550  68.422  1.00  0.00    -0.116 C  
HETATM   10  C   UNL     1      -8.065  12.078  68.461  1.00  0.00    -0.123 C  
BRANCH  10  11
HETATM   11  C   UNL     1      -8.959  12.588  67.302  1.00  0.00    -0.192 C  
HETATM   12  N   UNL     1      -9.971  11.697  66.972  1.00  0.00    -0.202 N  
HETATM   13  O   UNL     1      -8.725  13.634  66.699  1.00  0.00    -0.137 OA 
HETATM   14  H   UNL     1     -10.152  10.890  67.568  1.00  0.00     0.000 HD 
BRANCH  12  15
HETATM   15  C   UNL     1     -10.745  11.907  65.821  1.00  0.00    -0.284 A  
HETATM   16  C   UNL     1     -10.488  11.153  64.662  1.00  0.00    -0.400 A  
HETATM   17  C   UNL     1      -9.333  10.207  64.532  1.00  0.00    -0.345 C  
HETATM   18  C   UNL     1     -11.278  11.401  63.526  1.00  0.00    -0.322 A  
HETATM   19  C   UNL     1     -12.310  12.342  63.559  1.00  0.00    -0.670 A  
HETATM   20  C   UNL     1     -12.568  13.057  64.721  1.00  0.00    -0.460 A  
HETATM   21  C   UNL     1     -11.789  12.856  65.864  1.00  0.00    -0.476 A  
HETATM   22  C   UNL     1     -12.101  13.630  67.117  1.00  0.00    -0.404 C  
ENDBRANCH  12  15
ENDBRANCH  10  11
ENDBRANCH   4   5
ENDBRANCH   3   4
ENDBRANCH   2   3
TORSDOF 5
ENDMDL
MODEL      147
REMARK 921   NORMALIZED FREE ENERGY PREDICTED BY IDOCK:   -3.83 KCAL/MOL
REMARK 922        TOTAL FREE ENERGY PREDICTED BY IDOCK:   -5.39 KCAL/MOL
REMARK 923 INTER-LIGAND FREE ENERGY PREDICTED BY IDOCK:   -4.85 KCAL/MOL
REMARK 924 INTRA-LIGAND FREE ENERGY PREDICTED BY IDOCK:   -0.54 KCAL/MOL
REMARK 927      BINDING AFFINITY PREDICTED BY RF-SCORE:    0.00 PKD
ROOT
HETATM    1  C   UNL     1      -6.980  12.254  67.338  1.00  0.00    -0.151 C  
HETATM    2  C   UNL     1      -6.002  11.398  66.544  1.00  0.00    -0.130 C  
ENDROOT
BRANCH   2   3
HETATM    3  C   UNL     1      -6.663  10.115  66.031  1.00  0.00    -0.106 C  
BRANCH   3   4
HETATM    4  C   UNL     1      -6.485   8.916  66.978  1.00  0.00    -0.061 C  
BRANCH   4   5
HETATM    5  N   UNL     1      -7.714   8.458  67.643  1.00  0.00    -0.098 NA 
HETATM    6  C   UNL     1      -7.753   7.005  67.908  1.00  0.00    -0.113 C  
HETATM    7  C   UNL     1      -6.958   6.517  69.124  1.00  0.00    -0.075 C  
HETATM    8  C   UNL     1      -7.196   7.359  70.373  1.00  0.00    -0.068 C  
HETATM    9  C   UNL     1      -7.062   8.843  70.052  1.00  0.00    -0.049 C  
HETATM   10  C   UNL     1      -7.978   9.238  68.887  1.00  0.00    -0.098 C  
BRANCH  10  11
HETATM   11  C   UNL     1      -9.470   9.125  69.290  1.00  0.00    -0.158 C  
HETATM   12  N   UNL     1      -9.754   9.769  70.485  1.00  0.00    -0.353 N  
HETATM   13  O   UNL     1     -10.279   8.458  68.646  1.00  0.00    -0.194 OA 
HETATM   14  H   UNL     1      -9.052  10.368  70.920  1.00  0.00     0.000 HD 
BRANCH  12  15
HETATM   15  C   UNL     1     -11.005   9.599  71.096  1.00  0.00    -0.360 A  
HETATM   16  C   UNL     1     -11.199   8.544  72.006  1.00  0.00    -0.418 A  
HETATM   17  C   UNL     1     -10.170   7.490  72.277  1.00  0.00    -0.252 C  
HETATM   18  C   UNL     1     -12.471   8.401  72.589  1.00  0.00    -0.255 A  
HETATM   19  C   UNL     1     -13.499   9.301  72.300  1.00  0.00    -0.548 A  
HETATM   20  C   UNL     1     -13.282  10.353  71.421  1.00  0.00    -0.459 A  
HETATM   21  C   UNL     1     -12.038  10.516  70.803  1.00  0.00    -0.470 A  
HETATM   22  C   UNL     1     -11.823  11.676  69.869  1.00  0.00    -0.434 C  
ENDBRANCH  12  15
ENDBRANCH  10  11
ENDBRANCH   4   5
ENDBRANCH   3   4
ENDBRANCH   2   3
TORSDOF 5
ENDMDL
MODEL      148
REMARK 921   NORMALIZED FREE ENERGY PREDICTED BY IDOCK:   -3.83 KCAL/MOL
REMARK 922        TOTAL FREE ENERGY PREDICTED BY IDOCK:   -5.38 KCAL/MOL
REMARK 923 INTER-LIGAND FREE ENERGY PREDICTED BY IDOCK:   -4.75 KCAL/MOL
REMARK 924 INTRA-LIGAND FREE ENERGY PREDICTED BY IDOCK:   -0.63 KCAL/MOL
REMARK 927      BINDING AFFINITY PREDICTED BY RF-SCORE:    0.00 PKD
ROOT
HETATM    1  C   UNL     1     -10.878  16.284  64.914  1.00  0.00    -0.315 C  
HETATM    2  C   UNL     1     -10.477  16.208  66.381  1.00  0.00    -0.304 C  
ENDROOT
BRANCH   2   3
HETATM    3  C   UNL     1     -11.207  15.075  67.108  1.00  0.00    -0.336 C  
BRANCH   3   4
HETATM    4  C   UNL     1     -12.214  14.328  66.218  1.00  0.00    -0.410 C  
BRANCH   4   5
HETATM    5  N   UNL     1     -12.053  12.867  66.185  1.00  0.00    -0.471 NA 
HETATM    6  C   UNL     1     -12.671  12.217  65.011  1.00  0.00     0.085 C  
HETATM    7  C   UNL     1     -11.884  12.296  63.699  1.00  0.00    -0.610 C  
HETATM    8  C   UNL     1     -10.407  11.952  63.864  1.00  0.00    -0.426 C  
HETATM    9  C   UNL     1      -9.807  12.715  65.039  1.00  0.00    -0.090 C  
HETATM   10  C   UNL     1     -10.618  12.479  66.319  1.00  0.00    -0.248 C  
BRANCH  10  11
HETATM   11  C   UNL     1     -10.498  11.007  66.790  1.00  0.00    -0.251 C  
HETATM   12  N   UNL     1      -9.182  10.602  66.954  1.00  0.00    -0.154 N  
HETATM   13  O   UNL     1     -11.477  10.273  66.917  1.00  0.00    -0.038 OA 
HETATM   14  H   UNL     1      -8.428  11.288  66.910  1.00  0.00     0.000 HD 
BRANCH  12  15
HETATM   15  C   UNL     1      -8.885   9.250  67.182  1.00  0.00    -0.127 A  
HETATM   16  C   UNL     1      -8.472   8.437  66.111  1.00  0.00    -0.139 A  
HETATM   17  C   UNL     1      -8.448   8.900  64.686  1.00  0.00    -0.185 C  
HETATM   18  C   UNL     1      -8.195   7.085  66.378  1.00  0.00    -0.117 A  
HETATM   19  C   UNL     1      -8.292   6.573  67.674  1.00  0.00    -0.121 A  
HETATM   20  C   UNL     1      -8.674   7.397  68.724  1.00  0.00    -0.128 A  
HETATM   21  C   UNL     1      -8.980   8.742  68.495  1.00  0.00    -0.138 A  
HETATM   22  C   UNL     1      -9.373   9.618  69.654  1.00  0.00    -0.226 C  
ENDBRANCH  12  15
ENDBRANCH  10  11
ENDBRANCH   4   5
ENDBRANCH   3   4
ENDBRANCH   2   3
TORSDOF 5
ENDMDL
MODEL      149
REMARK 921   NORMALIZED FREE ENERGY PREDICTED BY IDOCK:   -3.82 KCAL/MOL
REMARK 922        TOTAL FREE ENERGY PREDICTED BY IDOCK:   -5.38 KCAL/MOL
REMARK 923 INTER-LIGAND FREE ENERGY PREDICTED BY IDOCK:   -4.92 KCAL/MOL
REMARK 924 INTRA-LIGAND FREE ENERGY PREDICTED BY IDOCK:   -0.46 KCAL/MOL
REMARK 927      BINDING AFFINITY PREDICTED BY RF-SCORE:    0.00 PKD
ROOT
HETATM    1  C   UNL     1     -10.707  11.475  63.334  1.00  0.00    -0.444 C  
HETATM    2  C   UNL     1     -11.545  12.018  64.483  1.00  0.00    -0.387 C  
ENDROOT
BRANCH   2   3
HETATM    3  C   UNL     1     -12.158  13.379  64.141  1.00  0.00    -0.491 C  
BRANCH   3   4
HETATM    4  C   UNL     1     -12.128  14.375  65.313  1.00  0.00    -0.380 C  
BRANCH   4   5
HETATM    5  N   UNL     1     -11.091  14.117  66.323  1.00  0.00    -0.314 NA 
HETATM    6  C   UNL     1      -9.985  15.096  66.317  1.00  0.00    -0.288 C  
HETATM    7  C   UNL     1     -10.263  16.439  67.000  1.00  0.00    -0.282 C  
HETATM    8  C   UNL     1     -10.922  16.291  68.366  1.00  0.00    -0.351 C  
HETATM    9  C   UNL     1     -12.106  15.334  68.291  1.00  0.00    -0.012 C  
HETATM   10  C   UNL     1     -11.685  13.988  67.686  1.00  0.00    -0.377 C  
BRANCH  10  11
HETATM   11  C   UNL     1     -10.715  13.234  68.630  1.00  0.00    -0.259 C  
HETATM   12  N   UNL     1     -10.150  12.115  68.035  1.00  0.00    -0.198 N  
HETATM   13  O   UNL     1     -10.545  13.562  69.803  1.00  0.00     0.282 OA 
HETATM   14  H   UNL     1     -10.275  11.951  67.036  1.00  0.00     0.000 HD 
BRANCH  12  15
HETATM   15  C   UNL     1      -9.407  11.208  68.805  1.00  0.00    -0.149 A  
HETATM   16  C   UNL     1      -8.005  11.316  68.852  1.00  0.00    -0.104 A  
HETATM   17  C   UNL     1      -7.225  12.282  68.012  1.00  0.00    -0.102 C  
HETATM   18  C   UNL     1      -7.296  10.382  69.626  1.00  0.00    -0.156 A  
HETATM   19  C   UNL     1      -7.966   9.398  70.357  1.00  0.00    -0.190 A  
HETATM   20  C   UNL     1      -9.352   9.323  70.322  1.00  0.00    -0.277 A  
HETATM   21  C   UNL     1     -10.092  10.220  69.546  1.00  0.00    -0.260 A  
HETATM   22  C   UNL     1     -11.594  10.129  69.540  1.00  0.00    -0.181 C  
ENDBRANCH  12  15
ENDBRANCH  10  11
ENDBRANCH   4   5
ENDBRANCH   3   4
ENDBRANCH   2   3
TORSDOF 5
ENDMDL
MODEL      150
REMARK 921   NORMALIZED FREE ENERGY PREDICTED BY IDOCK:   -3.82 KCAL/MOL
REMARK 922        TOTAL FREE ENERGY PREDICTED BY IDOCK:   -5.37 KCAL/MOL
REMARK 923 INTER-LIGAND FREE ENERGY PREDICTED BY IDOCK:   -4.95 KCAL/MOL
REMARK 924 INTRA-LIGAND FREE ENERGY PREDICTED BY IDOCK:   -0.41 KCAL/MOL
REMARK 927      BINDING AFFINITY PREDICTED BY RF-SCORE:    0.00 PKD
ROOT
HETATM    1  C   UNL     1      -5.231  17.939  71.112  1.00  0.00    -0.194 C  
HETATM    2  C   UNL     1      -5.650  17.156  69.875  1.00  0.00    -0.225 C  
ENDROOT
BRANCH   2   3
HETATM    3  C   UNL     1      -5.398  15.655  70.045  1.00  0.00    -0.130 C  
BRANCH   3   4
HETATM    4  C   UNL     1      -6.679  14.808  69.954  1.00  0.00    -0.172 C  
BRANCH   4   5
HETATM    5  N   UNL     1      -7.179  14.576  68.591  1.00  0.00    -0.116 NA 
HETATM    6  C   UNL     1      -6.118  14.341  67.590  1.00  0.00    -0.053 C  
HETATM    7  C   UNL     1      -5.510  12.935  67.564  1.00  0.00    -0.070 C  
HETATM    8  C   UNL     1      -6.557  11.828  67.597  1.00  0.00    -0.085 C  
HETATM    9  C   UNL     1      -7.575  12.084  68.702  1.00  0.00    -0.112 C  
HETATM   10  C   UNL     1      -8.192  13.482  68.566  1.00  0.00    -0.104 C  
BRANCH  10  11
HETATM   11  C   UNL     1      -9.065  13.582  67.289  1.00  0.00    -0.225 C  
HETATM   12  N   UNL     1      -9.935  12.510  67.148  1.00  0.00    -0.214 N  
HETATM   13  O   UNL     1      -8.925  14.482  66.462  1.00  0.00    -0.246 OA 
HETATM   14  H   UNL     1     -10.053  11.846  67.913  1.00  0.00     0.000 HD 
BRANCH  12  15
HETATM   15  C   UNL     1     -10.652  12.339  65.955  1.00  0.00    -0.256 A  
HETATM   16  C   UNL     1     -11.823  13.086  65.731  1.00  0.00    -0.453 A  
HETATM   17  C   UNL     1     -12.439  13.982  66.763  1.00  0.00    -0.238 C  
HETATM   18  C   UNL     1     -12.520  12.878  64.528  1.00  0.00    -0.468 A  
HETATM   19  C   UNL     1     -12.043  11.983  63.568  1.00  0.00    -0.628 A  
HETATM   20  C   UNL     1     -10.870  11.275  63.792  1.00  0.00    -0.424 A  
HETATM   21  C   UNL     1     -10.161  11.437  64.986  1.00  0.00    -0.333 A  
HETATM   22  C   UNL     1      -8.882  10.672  65.197  1.00  0.00    -0.207 C  
ENDBRANCH  12  15
ENDBRANCH  10  11
ENDBRANCH   4   5
ENDBRANCH   3   4
ENDBRANCH   2   3
TORSDOF 5
ENDMDL
MODEL      151
REMARK 921   NORMALIZED FREE ENERGY PREDICTED BY IDOCK:   -3.81 KCAL/MOL
REMARK 922        TOTAL FREE ENERGY PREDICTED BY IDOCK:   -5.35 KCAL/MOL
REMARK 923 INTER-LIGAND FREE ENERGY PREDICTED BY IDOCK:   -4.97 KCAL/MOL
REMARK 924 INTRA-LIGAND FREE ENERGY PREDICTED BY IDOCK:   -0.38 KCAL/MOL
REMARK 927      BINDING AFFINITY PREDICTED BY RF-SCORE:    0.00 PKD
ROOT
HETATM    1  C   UNL     1     -11.337  11.781  66.963  1.00  0.00    -0.387 C  
HETATM    2  C   UNL     1     -11.785  12.293  68.325  1.00  0.00    -0.392 C  
ENDROOT
BRANCH   2   3
HETATM    3  C   UNL     1     -12.112  11.142  69.281  1.00  0.00    -0.377 C  
BRANCH   3   4
HETATM    4  C   UNL     1     -10.864  10.444  69.847  1.00  0.00    -0.298 C  
BRANCH   4   5
HETATM    5  N   UNL     1     -10.844   8.981  69.694  1.00  0.00    -0.218 NA 
HETATM    6  C   UNL     1     -10.328   8.517  68.390  1.00  0.00    -0.202 C  
HETATM    7  C   UNL     1      -8.805   8.518  68.224  1.00  0.00    -0.142 C  
HETATM    8  C   UNL     1      -8.072   7.901  69.410  1.00  0.00    -0.125 C  
HETATM    9  C   UNL     1      -8.591   8.480  70.721  1.00  0.00    -0.175 C  
HETATM   10  C   UNL     1     -10.114   8.331  70.822  1.00  0.00    -0.190 C  
BRANCH  10  11
HETATM   11  C   UNL     1     -10.521   6.840  70.940  1.00  0.00    -0.213 C  
HETATM   12  N   UNL     1      -9.587   6.082  71.632  1.00  0.00    -0.152 N  
HETATM   13  O   UNL     1     -11.527   6.385  70.397  1.00  0.00    -0.361 OA 
HETATM   14  H   UNL     1      -8.820   6.543  72.122  1.00  0.00     0.000 HD 
BRANCH  12  15
HETATM   15  C   UNL     1      -9.697   4.684  71.660  1.00  0.00    -0.172 A  
HETATM   16  C   UNL     1     -10.322   4.055  72.752  1.00  0.00    -0.239 A  
HETATM   17  C   UNL     1     -10.777   4.790  73.977  1.00  0.00    -0.358 C  
HETATM   18  C   UNL     1     -10.402   2.652  72.748  1.00  0.00    -0.236 A  
HETATM   19  C   UNL     1      -9.908   1.907  71.674  1.00  0.00    -0.218 A  
HETATM   20  C   UNL     1      -9.320   2.546  70.591  1.00  0.00    -0.212 A  
HETATM   21  C   UNL     1      -9.201   3.939  70.568  1.00  0.00    -0.203 A  
HETATM   22  C   UNL     1      -8.576   4.609  69.374  1.00  0.00    -0.102 C  
ENDBRANCH  12  15
ENDBRANCH  10  11
ENDBRANCH   4   5
ENDBRANCH   3   4
ENDBRANCH   2   3
TORSDOF 5
ENDMDL
MODEL      152
REMARK 921   NORMALIZED FREE ENERGY PREDICTED BY IDOCK:   -3.78 KCAL/MOL
REMARK 922        TOTAL FREE ENERGY PREDICTED BY IDOCK:   -5.32 KCAL/MOL
REMARK 923 INTER-LIGAND FREE ENERGY PREDICTED BY IDOCK:   -4.91 KCAL/MOL
REMARK 924 INTRA-LIGAND FREE ENERGY PREDICTED BY IDOCK:   -0.41 KCAL/MOL
REMARK 927      BINDING AFFINITY PREDICTED BY RF-SCORE:    0.00 PKD
ROOT
HETATM    1  C   UNL     1      -7.195   4.769  64.479  1.00  0.00    -0.062 C  
HETATM    2  C   UNL     1      -8.697   5.019  64.456  1.00  0.00    -0.132 C  
ENDROOT
BRANCH   2   3
HETATM    3  C   UNL     1      -9.296   4.990  65.865  1.00  0.00    -0.165 C  
BRANCH   3   4
HETATM    4  C   UNL     1      -8.792   6.129  66.767  1.00  0.00    -0.122 C  
BRANCH   4   5
HETATM    5  N   UNL     1      -9.798   7.146  67.109  1.00  0.00    -0.167 NA 
HETATM    6  C   UNL     1     -11.085   6.590  67.575  1.00  0.00    -0.308 C  
HETATM    7  C   UNL     1     -11.130   6.111  69.029  1.00  0.00    -0.437 C  
HETATM    8  C   UNL     1     -10.520   7.107  70.009  1.00  0.00    -0.235 C  
HETATM    9  C   UNL     1      -9.159   7.581  69.514  1.00  0.00    -0.143 C  
HETATM   10  C   UNL     1      -9.255   8.134  68.087  1.00  0.00    -0.133 C  
BRANCH  10  11
HETATM   11  C   UNL     1     -10.087   9.441  68.052  1.00  0.00    -0.191 C  
HETATM   12  N   UNL     1      -9.760  10.313  69.080  1.00  0.00    -0.207 N  
HETATM   13  O   UNL     1     -10.992   9.626  67.240  1.00  0.00    -0.224 OA 
HETATM   14  H   UNL     1      -8.944  10.128  69.665  1.00  0.00     0.000 HD 
BRANCH  12  15
HETATM   15  C   UNL     1     -10.548  11.449  69.317  1.00  0.00    -0.108 A  
HETATM   16  C   UNL     1     -10.322  12.622  68.574  1.00  0.00    -0.232 A  
HETATM   17  C   UNL     1      -9.185  12.781  67.611  1.00  0.00    -0.192 C  
HETATM   18  C   UNL     1     -11.125  13.742  68.848  1.00  0.00    -0.300 A  
HETATM   19  C   UNL     1     -12.141  13.681  69.805  1.00  0.00    -0.396 A  
HETATM   20  C   UNL     1     -12.369  12.506  70.510  1.00  0.00    -0.345 A  
HETATM   21  C   UNL     1     -11.576  11.378  70.282  1.00  0.00    -0.334 A  
HETATM   22  C   UNL     1     -11.856  10.111  71.045  1.00  0.00    -0.475 C  
ENDBRANCH  12  15
ENDBRANCH  10  11
ENDBRANCH   4   5
ENDBRANCH   3   4
ENDBRANCH   2   3
TORSDOF 5
ENDMDL
MODEL      153
REMARK 921   NORMALIZED FREE ENERGY PREDICTED BY IDOCK:   -3.76 KCAL/MOL
REMARK 922        TOTAL FREE ENERGY PREDICTED BY IDOCK:   -5.30 KCAL/MOL
REMARK 923 INTER-LIGAND FREE ENERGY PREDICTED BY IDOCK:   -4.89 KCAL/MOL
REMARK 924 INTRA-LIGAND FREE ENERGY PREDICTED BY IDOCK:   -0.40 KCAL/MOL
REMARK 927      BINDING AFFINITY PREDICTED BY RF-SCORE:    0.00 PKD
ROOT
HETATM    1  C   UNL     1      -9.881   3.639  64.858  1.00  0.00    -0.164 C  
HETATM    2  C   UNL     1      -8.475   3.889  65.386  1.00  0.00    -0.109 C  
ENDROOT
BRANCH   2   3
HETATM    3  C   UNL     1      -8.295   3.328  66.800  1.00  0.00    -0.101 C  
BRANCH   3   4
HETATM    4  C   UNL     1      -7.977   4.407  67.849  1.00  0.00    -0.087 C  
BRANCH   4   5
HETATM    5  N   UNL     1      -9.147   4.970  68.539  1.00  0.00    -0.107 NA 
HETATM    6  C   UNL     1      -9.763   4.059  69.525  1.00  0.00    -0.157 C  
HETATM    7  C   UNL     1      -9.061   3.953  70.883  1.00  0.00    -0.179 C  
HETATM    8  C   UNL     1      -8.688   5.309  71.473  1.00  0.00    -0.140 C  
HETATM    9  C   UNL     1      -7.983   6.171  70.432  1.00  0.00    -0.108 C  
HETATM   10  C   UNL     1      -8.825   6.290  69.156  1.00  0.00    -0.128 C  
BRANCH  10  11
HETATM   11  C   UNL     1     -10.124   7.094  69.419  1.00  0.00    -0.176 C  
HETATM   12  N   UNL     1      -9.908   8.225  70.194  1.00  0.00    -0.183 N  
HETATM   13  O   UNL     1     -11.229   6.706  69.042  1.00  0.00    -0.269 OA 
HETATM   14  H   UNL     1      -8.955   8.525  70.401  1.00  0.00     0.000 HD 
BRANCH  12  15
HETATM   15  C   UNL     1     -10.997   8.954  70.693  1.00  0.00    -0.241 A  
HETATM   16  C   UNL     1     -11.621   8.547  71.886  1.00  0.00    -0.410 A  
HETATM   17  C   UNL     1     -11.271   7.282  72.610  1.00  0.00    -0.355 C  
HETATM   18  C   UNL     1     -12.717   9.298  72.347  1.00  0.00    -0.383 A  
HETATM   19  C   UNL     1     -13.149  10.435  71.660  1.00  0.00    -0.553 A  
HETATM   20  C   UNL     1     -12.503  10.839  70.499  1.00  0.00    -0.447 A  
HETATM   21  C   UNL     1     -11.424  10.105  69.996  1.00  0.00    -0.344 A  
HETATM   22  C   UNL     1     -10.729  10.575  68.746  1.00  0.00    -0.249 C  
ENDBRANCH  12  15
ENDBRANCH  10  11
ENDBRANCH   4   5
ENDBRANCH   3   4
ENDBRANCH   2   3
TORSDOF 5
ENDMDL
MODEL      154
REMARK 921   NORMALIZED FREE ENERGY PREDICTED BY IDOCK:   -3.76 KCAL/MOL
REMARK 922        TOTAL FREE ENERGY PREDICTED BY IDOCK:   -5.30 KCAL/MOL
REMARK 923 INTER-LIGAND FREE ENERGY PREDICTED BY IDOCK:   -4.87 KCAL/MOL
REMARK 924 INTRA-LIGAND FREE ENERGY PREDICTED BY IDOCK:   -0.42 KCAL/MOL
REMARK 927      BINDING AFFINITY PREDICTED BY RF-SCORE:    0.00 PKD
ROOT
HETATM    1  C   UNL     1      -9.105  10.866  62.475  1.00  0.00    -0.361 C  
HETATM    2  C   UNL     1      -7.956   9.884  62.655  1.00  0.00    -0.135 C  
ENDROOT
BRANCH   2   3
HETATM    3  C   UNL     1      -8.405   8.618  63.390  1.00  0.00    -0.131 C  
BRANCH   3   4
HETATM    4  C   UNL     1      -8.241   8.707  64.916  1.00  0.00    -0.157 C  
BRANCH   4   5
HETATM    5  N   UNL     1      -9.238   9.542  65.603  1.00  0.00    -0.205 NA 
HETATM    6  C   UNL     1     -10.105   8.800  66.540  1.00  0.00    -0.279 C  
HETATM    7  C   UNL     1      -9.498   8.467  67.907  1.00  0.00    -0.164 C  
HETATM    8  C   UNL     1      -8.795   9.654  68.556  1.00  0.00    -0.124 C  
HETATM    9  C   UNL     1      -7.853  10.327  67.565  1.00  0.00    -0.102 C  
HETATM   10  C   UNL     1      -8.593  10.708  66.277  1.00  0.00    -0.153 C  
BRANCH  10  11
HETATM   11  C   UNL     1      -9.637  11.822  66.544  1.00  0.00    -0.210 C  
HETATM   12  N   UNL     1      -9.314  12.608  67.641  1.00  0.00    -0.184 N  
HETATM   13  O   UNL     1     -10.674  11.926  65.891  1.00  0.00    -0.265 OA 
HETATM   14  H   UNL     1      -8.400  12.514  68.082  1.00  0.00     0.000 HD 
BRANCH  12  15
HETATM   15  C   UNL     1     -10.244  13.531  68.142  1.00  0.00    -0.249 A  
HETATM   16  C   UNL     1     -11.249  13.098  69.026  1.00  0.00    -0.309 A  
HETATM   17  C   UNL     1     -11.475  11.658  69.376  1.00  0.00    -0.372 C  
HETATM   18  C   UNL     1     -12.169  14.051  69.497  1.00  0.00    -0.355 A  
HETATM   19  C   UNL     1     -12.064  15.394  69.128  1.00  0.00    -0.270 A  
HETATM   20  C   UNL     1     -11.048  15.809  68.278  1.00  0.00    -0.342 A  
HETATM   21  C   UNL     1     -10.128  14.888  67.770  1.00  0.00    -0.234 A  
HETATM   22  C   UNL     1      -9.025  15.366  66.865  1.00  0.00    -0.273 C  
ENDBRANCH  12  15
ENDBRANCH  10  11
ENDBRANCH   4   5
ENDBRANCH   3   4
ENDBRANCH   2   3
TORSDOF 5
ENDMDL
MODEL      155
REMARK 921   NORMALIZED FREE ENERGY PREDICTED BY IDOCK:   -3.75 KCAL/MOL
REMARK 922        TOTAL FREE ENERGY PREDICTED BY IDOCK:   -5.29 KCAL/MOL
REMARK 923 INTER-LIGAND FREE ENERGY PREDICTED BY IDOCK:   -4.88 KCAL/MOL
REMARK 924 INTRA-LIGAND FREE ENERGY PREDICTED BY IDOCK:   -0.40 KCAL/MOL
REMARK 927      BINDING AFFINITY PREDICTED BY RF-SCORE:    0.00 PKD
ROOT
HETATM    1  C   UNL     1      -8.957   2.248  69.651  1.00  0.00    -0.158 C  
HETATM    2  C   UNL     1      -9.416   2.729  68.281  1.00  0.00    -0.216 C  
ENDROOT
BRANCH   2   3
HETATM    3  C   UNL     1      -9.552   4.254  68.235  1.00  0.00    -0.197 C  
BRANCH   3   4
HETATM    4  C   UNL     1      -8.466   4.988  69.039  1.00  0.00    -0.082 C  
BRANCH   4   5
HETATM    5  N   UNL     1      -8.968   5.880  70.095  1.00  0.00    -0.140 NA 
HETATM    6  C   UNL     1      -8.934   5.293  71.450  1.00  0.00    -0.141 C  
HETATM    7  C   UNL     1      -7.572   5.289  72.153  1.00  0.00    -0.099 C  
HETATM    8  C   UNL     1      -6.847   6.628  72.063  1.00  0.00    -0.064 C  
HETATM    9  C   UNL     1      -6.845   7.141  70.628  1.00  0.00    -0.053 C  
HETATM   10  C   UNL     1      -8.270   7.199  70.064  1.00  0.00    -0.136 C  
BRANCH  10  11
HETATM   11  C   UNL     1      -9.114   8.275  70.794  1.00  0.00    -0.150 C  
HETATM   12  N   UNL     1     -10.436   8.296  70.374  1.00  0.00    -0.210 N  
HETATM   13  O   UNL     1      -8.623   9.068  71.595  1.00  0.00    -0.333 OA 
HETATM   14  H   UNL     1     -10.790   7.556  69.767  1.00  0.00     0.000 HD 
BRANCH  12  15
HETATM   15  C   UNL     1     -11.288   9.333  70.783  1.00  0.00    -0.287 A  
HETATM   16  C   UNL     1     -11.335  10.529  70.043  1.00  0.00    -0.392 A  
HETATM   17  C   UNL     1     -10.422  10.823  68.892  1.00  0.00    -0.228 C  
HETATM   18  C   UNL     1     -12.193  11.548  70.492  1.00  0.00    -0.469 A  
HETATM   19  C   UNL     1     -13.000  11.365  71.618  1.00  0.00    -0.523 A  
HETATM   20  C   UNL     1     -12.961  10.168  72.319  1.00  0.00    -0.316 A  
HETATM   21  C   UNL     1     -12.105   9.138  71.918  1.00  0.00    -0.448 A  
HETATM   22  C   UNL     1     -12.095   7.843  72.684  1.00  0.00    -0.240 C  
ENDBRANCH  12  15
ENDBRANCH  10  11
ENDBRANCH   4   5
ENDBRANCH   3   4
ENDBRANCH   2   3
TORSDOF 5
ENDMDL
MODEL      156
REMARK 921   NORMALIZED FREE ENERGY PREDICTED BY IDOCK:   -3.75 KCAL/MOL
REMARK 922        TOTAL FREE ENERGY PREDICTED BY IDOCK:   -5.28 KCAL/MOL
REMARK 923 INTER-LIGAND FREE ENERGY PREDICTED BY IDOCK:   -4.78 KCAL/MOL
REMARK 924 INTRA-LIGAND FREE ENERGY PREDICTED BY IDOCK:   -0.50 KCAL/MOL
REMARK 927      BINDING AFFINITY PREDICTED BY RF-SCORE:    0.00 PKD
ROOT
HETATM    1  C   UNL     1      -6.345   7.949  64.351  1.00  0.00    -0.056 C  
HETATM    2  C   UNL     1      -7.836   7.654  64.258  1.00  0.00    -0.135 C  
ENDROOT
BRANCH   2   3
HETATM    3  C   UNL     1      -8.669   8.735  64.953  1.00  0.00    -0.161 C  
BRANCH   3   4
HETATM    4  C   UNL     1      -8.025   9.266  66.244  1.00  0.00    -0.107 C  
BRANCH   4   5
HETATM    5  N   UNL     1      -8.637   8.783  67.491  1.00  0.00    -0.126 NA 
HETATM    6  C   UNL     1      -8.542   7.322  67.684  1.00  0.00    -0.126 C  
HETATM    7  C   UNL     1      -7.194   6.790  68.184  1.00  0.00    -0.091 C  
HETATM    8  C   UNL     1      -6.633   7.586  69.358  1.00  0.00    -0.037 C  
HETATM    9  C   UNL     1      -6.683   9.080  69.064  1.00  0.00    -0.051 C  
HETATM   10  C   UNL     1      -8.101   9.517  68.675  1.00  0.00    -0.097 C  
BRANCH  10  11
HETATM   11  C   UNL     1      -9.072   9.387  69.876  1.00  0.00    -0.204 C  
HETATM   12  N   UNL     1     -10.387   9.183  69.483  1.00  0.00    -0.209 N  
HETATM   13  O   UNL     1      -8.706   9.537  71.041  1.00  0.00    -0.260 OA 
HETATM   14  H   UNL     1     -10.602   8.989  68.505  1.00  0.00     0.000 HD 
BRANCH  12  15
HETATM   15  C   UNL     1     -11.421   9.243  70.429  1.00  0.00    -0.213 A  
HETATM   16  C   UNL     1     -12.117  10.450  70.626  1.00  0.00    -0.443 A  
HETATM   17  C   UNL     1     -11.733  11.740  69.967  1.00  0.00    -0.386 C  
HETATM   18  C   UNL     1     -13.139  10.472  71.592  1.00  0.00    -0.551 A  
HETATM   19  C   UNL     1     -13.477   9.321  72.307  1.00  0.00    -0.548 A  
HETATM   20  C   UNL     1     -12.799   8.131  72.078  1.00  0.00    -0.346 A  
HETATM   21  C   UNL     1     -11.762   8.074  71.144  1.00  0.00    -0.307 A  
HETATM   22  C   UNL     1     -11.055   6.767  70.901  1.00  0.00    -0.322 C  
ENDBRANCH  12  15
ENDBRANCH  10  11
ENDBRANCH   4   5
ENDBRANCH   3   4
ENDBRANCH   2   3
TORSDOF 5
ENDMDL
MODEL      157
REMARK 921   NORMALIZED FREE ENERGY PREDICTED BY IDOCK:   -3.74 KCAL/MOL
REMARK 922        TOTAL FREE ENERGY PREDICTED BY IDOCK:   -5.27 KCAL/MOL
REMARK 923 INTER-LIGAND FREE ENERGY PREDICTED BY IDOCK:   -4.98 KCAL/MOL
REMARK 924 INTRA-LIGAND FREE ENERGY PREDICTED BY IDOCK:   -0.28 KCAL/MOL
REMARK 927      BINDING AFFINITY PREDICTED BY RF-SCORE:    0.00 PKD
ROOT
HETATM    1  C   UNL     1      -9.393  20.075  66.502  1.00  0.00    -0.494 C  
HETATM    2  C   UNL     1      -9.810  19.820  67.944  1.00  0.00    -0.522 C  
ENDROOT
BRANCH   2   3
HETATM    3  C   UNL     1     -10.675  18.563  68.068  1.00  0.00    -0.271 C  
BRANCH   3   4
HETATM    4  C   UNL     1      -9.965  17.402  68.785  1.00  0.00    -0.329 C  
BRANCH   4   5
HETATM    5  N   UNL     1     -10.329  16.059  68.309  1.00  0.00    -0.253 NA 
HETATM    6  C   UNL     1     -11.195  16.055  67.114  1.00  0.00    -0.002 C  
HETATM    7  C   UNL     1     -10.499  16.301  65.771  1.00  0.00    -0.379 C  
HETATM    8  C   UNL     1      -9.231  15.473  65.593  1.00  0.00    -0.085 C  
HETATM    9  C   UNL     1      -8.341  15.583  66.825  1.00  0.00    -0.301 C  
HETATM   10  C   UNL     1      -9.116  15.215  68.097  1.00  0.00    -0.176 C  
BRANCH  10  11
HETATM   11  C   UNL     1      -9.496  13.713  68.102  1.00  0.00    -0.217 C  
HETATM   12  N   UNL     1      -8.804  12.981  67.147  1.00  0.00    -0.211 N  
HETATM   13  O   UNL     1     -10.379  13.257  68.826  1.00  0.00    -0.221 OA 
HETATM   14  H   UNL     1      -8.031  13.410  66.639  1.00  0.00     0.000 HD 
BRANCH  12  15
HETATM   15  C   UNL     1      -9.167  11.653  66.879  1.00  0.00    -0.184 A  
HETATM   16  C   UNL     1     -10.292  11.385  66.077  1.00  0.00    -0.297 A  
HETATM   17  C   UNL     1     -11.223  12.449  65.582  1.00  0.00    -0.360 C  
HETATM   18  C   UNL     1     -10.629  10.041  65.842  1.00  0.00     0.001 A  
HETATM   19  C   UNL     1      -9.850   9.003  66.359  1.00  0.00    -0.356 A  
HETATM   20  C   UNL     1      -8.727   9.286  67.125  1.00  0.00    -0.134 A  
HETATM   21  C   UNL     1      -8.372  10.610  67.400  1.00  0.00    -0.119 A  
HETATM   22  C   UNL     1      -7.139  10.890  68.217  1.00  0.00    -0.075 C  
ENDBRANCH  12  15
ENDBRANCH  10  11
ENDBRANCH   4   5
ENDBRANCH   3   4
ENDBRANCH   2   3
TORSDOF 5
ENDMDL
MODEL      158
REMARK 921   NORMALIZED FREE ENERGY PREDICTED BY IDOCK:   -3.74 KCAL/MOL
REMARK 922        TOTAL FREE ENERGY PREDICTED BY IDOCK:   -5.26 KCAL/MOL
REMARK 923 INTER-LIGAND FREE ENERGY PREDICTED BY IDOCK:   -5.16 KCAL/MOL
REMARK 924 INTRA-LIGAND FREE ENERGY PREDICTED BY IDOCK:   -0.11 KCAL/MOL
REMARK 927      BINDING AFFINITY PREDICTED BY RF-SCORE:    0.00 PKD
ROOT
HETATM    1  C   UNL     1      -7.305  11.625  67.469  1.00  0.00    -0.119 C  
HETATM    2  C   UNL     1      -8.355  10.556  67.200  1.00  0.00    -0.127 C  
ENDROOT
BRANCH   2   3
HETATM    3  C   UNL     1      -9.740  10.988  67.688  1.00  0.00    -0.184 C  
BRANCH   3   4
HETATM    4  C   UNL     1     -10.586  11.669  66.598  1.00  0.00    -0.243 C  
BRANCH   4   5
HETATM    5  N   UNL     1     -10.432  13.129  66.511  1.00  0.00    -0.276 NA 
HETATM    6  C   UNL     1     -10.276  13.640  65.134  1.00  0.00    -0.328 C  
HETATM    7  C   UNL     1     -11.560  13.764  64.307  1.00  0.00    -0.395 C  
HETATM    8  C   UNL     1     -12.700  14.432  65.067  1.00  0.00    -0.231 C  
HETATM    9  C   UNL     1     -12.864  13.808  66.447  1.00  0.00     0.034 C  
HETATM   10  C   UNL     1     -11.541  13.832  67.222  1.00  0.00    -0.361 C  
BRANCH  10  11
HETATM   11  C   UNL     1     -11.126  15.284  67.568  1.00  0.00    -0.324 C  
HETATM   12  N   UNL     1      -9.909  15.643  67.007  1.00  0.00    -0.230 N  
HETATM   13  O   UNL     1     -11.781  15.994  68.330  1.00  0.00    -0.303 OA 
HETATM   14  H   UNL     1      -9.464  15.032  66.323  1.00  0.00     0.000 HD 
BRANCH  12  15
HETATM   15  C   UNL     1      -9.290  16.845  67.380  1.00  0.00    -0.235 A  
HETATM   16  C   UNL     1      -9.667  18.047  66.754  1.00  0.00    -0.323 A  
HETATM   17  C   UNL     1     -10.620  18.111  65.599  1.00  0.00    -0.104 C  
HETATM   18  C   UNL     1      -9.015  19.229  67.147  1.00  0.00    -0.338 A  
HETATM   19  C   UNL     1      -8.048  19.215  68.155  1.00  0.00    -0.351 A  
HETATM   20  C   UNL     1      -7.708  18.024  68.782  1.00  0.00    -0.273 A  
HETATM   21  C   UNL     1      -8.317  16.824  68.403  1.00  0.00    -0.222 A  
HETATM   22  C   UNL     1      -7.945  15.550  69.112  1.00  0.00    -0.222 C  
ENDBRANCH  12  15
ENDBRANCH  10  11
ENDBRANCH   4   5
ENDBRANCH   3   4
ENDBRANCH   2   3
TORSDOF 5
ENDMDL
MODEL      159
REMARK 921   NORMALIZED FREE ENERGY PREDICTED BY IDOCK:   -3.73 KCAL/MOL
REMARK 922        TOTAL FREE ENERGY PREDICTED BY IDOCK:   -5.26 KCAL/MOL
REMARK 923 INTER-LIGAND FREE ENERGY PREDICTED BY IDOCK:   -5.20 KCAL/MOL
REMARK 924 INTRA-LIGAND FREE ENERGY PREDICTED BY IDOCK:   -0.06 KCAL/MOL
REMARK 927      BINDING AFFINITY PREDICTED BY RF-SCORE:    0.00 PKD
ROOT
HETATM    1  C   UNL     1      -9.470  19.580  66.677  1.00  0.00    -0.439 C  
HETATM    2  C   UNL     1     -10.193  19.356  67.998  1.00  0.00    -0.531 C  
ENDROOT
BRANCH   2   3
HETATM    3  C   UNL     1     -10.697  17.916  68.129  1.00  0.00    -0.287 C  
BRANCH   3   4
HETATM    4  C   UNL     1      -9.643  16.949  68.695  1.00  0.00    -0.265 C  
BRANCH   4   5
HETATM    5  N   UNL     1      -9.874  15.528  68.396  1.00  0.00    -0.207 NA 
HETATM    6  C   UNL     1     -11.214  15.237  67.845  1.00  0.00    -0.331 C  
HETATM    7  C   UNL     1     -11.417  15.545  66.358  1.00  0.00     0.094 C  
HETATM    8  C   UNL     1     -10.284  15.028  65.478  1.00  0.00    -0.406 C  
HETATM    9  C   UNL     1      -8.932  15.431  66.054  1.00  0.00    -0.201 C  
HETATM   10  C   UNL     1      -8.801  14.981  67.515  1.00  0.00    -0.185 C  
BRANCH  10  11
HETATM   11  C   UNL     1      -8.753  13.435  67.618  1.00  0.00    -0.198 C  
HETATM   12  N   UNL     1      -8.563  12.821  66.389  1.00  0.00    -0.416 N  
HETATM   13  O   UNL     1      -8.948  12.838  68.676  1.00  0.00    -0.092 OA 
HETATM   14  H   UNL     1      -8.329  13.382  65.570  1.00  0.00     0.000 HD 
BRANCH  12  15
HETATM   15  C   UNL     1      -8.694  11.429  66.271  1.00  0.00    -0.173 A  
HETATM   16  C   UNL     1      -7.550  10.613  66.338  1.00  0.00    -0.138 A  
HETATM   17  C   UNL     1      -6.154  11.155  66.403  1.00  0.00    -0.137 C  
HETATM   18  C   UNL     1      -7.721   9.224  66.204  1.00  0.00    -0.096 A  
HETATM   19  C   UNL     1      -8.993   8.669  66.045  1.00  0.00    -0.227 A  
HETATM   20  C   UNL     1     -10.114   9.487  66.010  1.00  0.00    -0.319 A  
HETATM   21  C   UNL     1      -9.983  10.875  66.116  1.00  0.00    -0.282 A  
HETATM   22  C   UNL     1     -11.216  11.738  66.093  1.00  0.00    -0.363 C  
ENDBRANCH  12  15
ENDBRANCH  10  11
ENDBRANCH   4   5
ENDBRANCH   3   4
ENDBRANCH   2   3
TORSDOF 5
ENDMDL
MODEL      160
REMARK 921   NORMALIZED FREE ENERGY PREDICTED BY IDOCK:   -3.72 KCAL/MOL
REMARK 922        TOTAL FREE ENERGY PREDICTED BY IDOCK:   -5.25 KCAL/MOL
REMARK 923 INTER-LIGAND FREE ENERGY PREDICTED BY IDOCK:   -4.83 KCAL/MOL
REMARK 924 INTRA-LIGAND FREE ENERGY PREDICTED BY IDOCK:   -0.42 KCAL/MOL
REMARK 927      BINDING AFFINITY PREDICTED BY RF-SCORE:    0.00 PKD
ROOT
HETATM    1  C   UNL     1      -7.146   7.285  73.205  1.00  0.00    -0.075 C  
HETATM    2  C   UNL     1      -8.241   8.288  73.541  1.00  0.00    -0.250 C  
ENDROOT
BRANCH   2   3
HETATM    3  C   UNL     1      -9.310   8.346  72.445  1.00  0.00    -0.356 C  
BRANCH   3   4
HETATM    4  C   UNL     1      -8.724   8.445  71.027  1.00  0.00    -0.156 C  
BRANCH   4   5
HETATM    5  N   UNL     1      -9.254   9.546  70.208  1.00  0.00    -0.246 NA 
HETATM    6  C   UNL     1      -8.451   9.846  69.006  1.00  0.00    -0.136 C  
HETATM    7  C   UNL     1      -8.647   8.911  67.808  1.00  0.00    -0.125 C  
HETATM    8  C   UNL     1     -10.114   8.639  67.494  1.00  0.00    -0.277 C  
HETATM    9  C   UNL     1     -10.871   8.255  68.759  1.00  0.00     0.019 C  
HETATM   10  C   UNL     1     -10.685   9.314  69.853  1.00  0.00    -0.234 C  
BRANCH  10  11
HETATM   11  C   UNL     1     -11.367  10.648  69.458  1.00  0.00    -0.277 C  
HETATM   12  N   UNL     1     -10.977  11.709  70.263  1.00  0.00    -0.126 N  
HETATM   13  O   UNL     1     -12.221  10.717  68.575  1.00  0.00    -0.470 OA 
HETATM   14  H   UNL     1     -10.206  11.593  70.920  1.00  0.00     0.000 HD 
BRANCH  12  15
HETATM   15  C   UNL     1     -11.643  12.941  70.174  1.00  0.00    -0.054 A  
HETATM   16  C   UNL     1     -11.251  13.876  69.199  1.00  0.00    -0.311 A  
HETATM   17  C   UNL     1     -10.059  13.690  68.310  1.00  0.00    -0.240 C  
HETATM   18  C   UNL     1     -11.935  15.103  69.149  1.00  0.00    -0.304 A  
HETATM   19  C   UNL     1     -12.996  15.371  70.019  1.00  0.00     0.002 A  
HETATM   20  C   UNL     1     -13.387  14.424  70.956  1.00  0.00    -0.359 A  
HETATM   21  C   UNL     1     -12.717  13.202  71.052  1.00  0.00    -0.361 A  
HETATM   22  C   UNL     1     -13.173  12.185  72.065  1.00  0.00    -0.496 C  
ENDBRANCH  12  15
ENDBRANCH  10  11
ENDBRANCH   4   5
ENDBRANCH   3   4
ENDBRANCH   2   3
TORSDOF 5
ENDMDL
MODEL      161
REMARK 921   NORMALIZED FREE ENERGY PREDICTED BY IDOCK:   -3.72 KCAL/MOL
REMARK 922        TOTAL FREE ENERGY PREDICTED BY IDOCK:   -5.24 KCAL/MOL
REMARK 923 INTER-LIGAND FREE ENERGY PREDICTED BY IDOCK:   -4.64 KCAL/MOL
REMARK 924 INTRA-LIGAND FREE ENERGY PREDICTED BY IDOCK:   -0.60 KCAL/MOL
REMARK 927      BINDING AFFINITY PREDICTED BY RF-SCORE:    0.00 PKD
ROOT
HETATM    1  C   UNL     1     -12.186  15.447  64.124  1.00  0.00    -0.075 C  
HETATM    2  C   UNL     1     -11.068  16.211  64.821  1.00  0.00    -0.345 C  
ENDROOT
BRANCH   2   3
HETATM    3  C   UNL     1      -9.960  15.271  65.308  1.00  0.00    -0.322 C  
BRANCH   3   4
HETATM    4  C   UNL     1      -9.738  15.328  66.829  1.00  0.00    -0.236 C  
BRANCH   4   5
HETATM    5  N   UNL     1      -9.856  14.038  67.526  1.00  0.00    -0.232 NA 
HETATM    6  C   UNL     1      -9.801  14.139  68.998  1.00  0.00    -0.025 C  
HETATM    7  C   UNL     1     -11.089  14.591  69.696  1.00  0.00    -0.264 C  
HETATM    8  C   UNL     1     -12.331  13.863  69.192  1.00  0.00    -0.159 C  
HETATM    9  C   UNL     1     -12.372  13.864  67.669  1.00  0.00    -0.069 C  
HETATM   10  C   UNL     1     -11.073  13.296  67.083  1.00  0.00    -0.286 C  
BRANCH  10  11
HETATM   11  C   UNL     1     -10.932  11.786  67.405  1.00  0.00    -0.262 C  
HETATM   12  N   UNL     1      -9.639  11.318  67.222  1.00  0.00    -0.173 N  
HETATM   13  O   UNL     1     -11.894  11.082  67.707  1.00  0.00    -0.605 OA 
HETATM   14  H   UNL     1      -8.878  11.975  67.050  1.00  0.00     0.000 HD 
BRANCH  12  15
HETATM   15  C   UNL     1      -9.376   9.941  67.275  1.00  0.00    -0.145 A  
HETATM   16  C   UNL     1      -9.154   9.320  68.517  1.00  0.00    -0.132 A  
HETATM   17  C   UNL     1      -9.053  10.073  69.809  1.00  0.00    -0.219 C  
HETATM   18  C   UNL     1      -8.883   7.940  68.526  1.00  0.00    -0.134 A  
HETATM   19  C   UNL     1      -8.870   7.202  67.340  1.00  0.00    -0.119 A  
HETATM   20  C   UNL     1      -9.119   7.826  66.125  1.00  0.00    -0.199 A  
HETATM   21  C   UNL     1      -9.370   9.200  66.072  1.00  0.00    -0.300 A  
HETATM   22  C   UNL     1      -9.656   9.850  64.744  1.00  0.00    -0.339 C  
ENDBRANCH  12  15
ENDBRANCH  10  11
ENDBRANCH   4   5
ENDBRANCH   3   4
ENDBRANCH   2   3
TORSDOF 5
ENDMDL
MODEL      162
REMARK 921   NORMALIZED FREE ENERGY PREDICTED BY IDOCK:   -3.71 KCAL/MOL
REMARK 922        TOTAL FREE ENERGY PREDICTED BY IDOCK:   -5.23 KCAL/MOL
REMARK 923 INTER-LIGAND FREE ENERGY PREDICTED BY IDOCK:   -5.29 KCAL/MOL
REMARK 924 INTRA-LIGAND FREE ENERGY PREDICTED BY IDOCK:    0.06 KCAL/MOL
REMARK 927      BINDING AFFINITY PREDICTED BY RF-SCORE:    0.00 PKD
ROOT
HETATM    1  C   UNL     1      -7.805   7.879  63.153  1.00  0.00    -0.142 C  
HETATM    2  C   UNL     1      -6.612   7.928  64.097  1.00  0.00    -0.061 C  
ENDROOT
BRANCH   2   3
HETATM    3  C   UNL     1      -7.027   8.351  65.510  1.00  0.00    -0.070 C  
BRANCH   3   4
HETATM    4  C   UNL     1      -8.360   7.734  65.965  1.00  0.00    -0.133 C  
BRANCH   4   5
HETATM    5  N   UNL     1      -9.452   8.696  66.179  1.00  0.00    -0.239 NA 
HETATM    6  C   UNL     1     -10.549   8.185  67.026  1.00  0.00    -0.275 C  
HETATM    7  C   UNL     1     -10.299   8.191  68.538  1.00  0.00    -0.230 C  
HETATM    8  C   UNL     1      -9.715   9.505  69.044  1.00  0.00    -0.170 C  
HETATM    9  C   UNL     1      -8.536   9.937  68.180  1.00  0.00    -0.118 C  
HETATM   10  C   UNL     1      -8.933   9.994  66.699  1.00  0.00    -0.139 C  
BRANCH  10  11
HETATM   11  C   UNL     1      -9.958  11.128  66.442  1.00  0.00    -0.217 C  
HETATM   12  N   UNL     1      -9.519  12.044  65.497  1.00  0.00    -0.405 N  
HETATM   13  O   UNL     1     -11.005  11.229  67.079  1.00  0.00    -0.270 OA 
HETATM   14  H   UNL     1      -8.678  11.851  64.952  1.00  0.00     0.000 HD 
BRANCH  12  15
HETATM   15  C   UNL     1     -10.229  13.236  65.289  1.00  0.00    -0.290 A  
HETATM   16  C   UNL     1      -9.846  14.405  65.971  1.00  0.00    -0.342 A  
HETATM   17  C   UNL     1      -8.781  14.432  67.026  1.00  0.00    -0.244 C  
HETATM   18  C   UNL     1     -10.591  15.575  65.745  1.00  0.00    -0.370 A  
HETATM   19  C   UNL     1     -11.656  15.586  64.842  1.00  0.00    -0.201 A  
HETATM   20  C   UNL     1     -12.004  14.430  64.156  1.00  0.00    -0.373 A  
HETATM   21  C   UNL     1     -11.302  13.240  64.371  1.00  0.00    -0.415 A  
HETATM   22  C   UNL     1     -11.686  12.005  63.601  1.00  0.00    -0.587 C  
ENDBRANCH  12  15
ENDBRANCH  10  11
ENDBRANCH   4   5
ENDBRANCH   3   4
ENDBRANCH   2   3
TORSDOF 5
ENDMDL
MODEL      163
REMARK 921   NORMALIZED FREE ENERGY PREDICTED BY IDOCK:   -3.70 KCAL/MOL
REMARK 922        TOTAL FREE ENERGY PREDICTED BY IDOCK:   -5.22 KCAL/MOL
REMARK 923 INTER-LIGAND FREE ENERGY PREDICTED BY IDOCK:   -4.68 KCAL/MOL
REMARK 924 INTRA-LIGAND FREE ENERGY PREDICTED BY IDOCK:   -0.54 KCAL/MOL
REMARK 927      BINDING AFFINITY PREDICTED BY RF-SCORE:    0.00 PKD
ROOT
HETATM    1  C   UNL     1      -8.310  10.385  64.930  1.00  0.00    -0.165 C  
HETATM    2  C   UNL     1      -8.530   9.018  64.297  1.00  0.00    -0.185 C  
ENDROOT
BRANCH   2   3
HETATM    3  C   UNL     1      -7.289   8.130  64.425  1.00  0.00    -0.093 C  
BRANCH   3   4
HETATM    4  C   UNL     1      -7.382   7.114  65.576  1.00  0.00    -0.079 C  
BRANCH   4   5
HETATM    5  N   UNL     1      -8.605   7.202  66.388  1.00  0.00    -0.128 NA 
HETATM    6  C   UNL     1      -9.256   5.900  66.643  1.00  0.00    -0.140 C  
HETATM    7  C   UNL     1      -8.633   5.035  67.744  1.00  0.00    -0.103 C  
HETATM    8  C   UNL     1      -8.331   5.813  69.020  1.00  0.00    -0.101 C  
HETATM    9  C   UNL     1      -7.588   7.104  68.698  1.00  0.00    -0.111 C  
HETATM   10  C   UNL     1      -8.356   7.936  67.663  1.00  0.00    -0.124 C  
BRANCH  10  11
HETATM   11  C   UNL     1      -9.688   8.465  68.252  1.00  0.00    -0.155 C  
HETATM   12  N   UNL     1      -9.506   9.207  69.410  1.00  0.00    -0.157 N  
HETATM   13  O   UNL     1     -10.783   8.174  67.773  1.00  0.00    -0.194 OA 
HETATM   14  H   UNL     1      -8.565   9.474  69.701  1.00  0.00     0.000 HD 
BRANCH  12  15
HETATM   15  C   UNL     1     -10.613   9.591  70.181  1.00  0.00    -0.254 A  
HETATM   16  C   UNL     1     -11.084   8.741  71.197  1.00  0.00    -0.340 A  
HETATM   17  C   UNL     1     -10.546   7.362  71.433  1.00  0.00    -0.232 C  
HETATM   18  C   UNL     1     -12.203   9.156  71.940  1.00  0.00    -0.449 A  
HETATM   19  C   UNL     1     -12.806  10.393  71.699  1.00  0.00    -0.579 A  
HETATM   20  C   UNL     1     -12.311  11.233  70.711  1.00  0.00    -0.495 A  
HETATM   21  C   UNL     1     -11.214  10.845  69.936  1.00  0.00    -0.355 A  
HETATM   22  C   UNL     1     -10.684  11.782  68.883  1.00  0.00    -0.241 C  
ENDBRANCH  12  15
ENDBRANCH  10  11
ENDBRANCH   4   5
ENDBRANCH   3   4
ENDBRANCH   2   3
TORSDOF 5
ENDMDL
MODEL      164
REMARK 921   NORMALIZED FREE ENERGY PREDICTED BY IDOCK:   -3.70 KCAL/MOL
REMARK 922        TOTAL FREE ENERGY PREDICTED BY IDOCK:   -5.22 KCAL/MOL
REMARK 923 INTER-LIGAND FREE ENERGY PREDICTED BY IDOCK:   -4.83 KCAL/MOL
REMARK 924 INTRA-LIGAND FREE ENERGY PREDICTED BY IDOCK:   -0.38 KCAL/MOL
REMARK 927      BINDING AFFINITY PREDICTED BY RF-SCORE:    0.00 PKD
ROOT
HETATM    1  C   UNL     1     -10.087  10.863  63.500  1.00  0.00    -0.406 C  
HETATM    2  C   UNL     1     -10.712  12.248  63.598  1.00  0.00    -0.513 C  
ENDROOT
BRANCH   2   3
HETATM    3  C   UNL     1     -12.158  12.182  64.099  1.00  0.00    -0.501 C  
BRANCH   3   4
HETATM    4  C   UNL     1     -12.340  12.755  65.514  1.00  0.00    -0.434 C  
BRANCH   4   5
HETATM    5  N   UNL     1     -11.145  12.698  66.369  1.00  0.00    -0.276 NA 
HETATM    6  C   UNL     1     -11.005  13.846  67.288  1.00  0.00    -0.290 C  
HETATM    7  C   UNL     1     -11.866  13.810  68.555  1.00  0.00    -0.406 C  
HETATM    8  C   UNL     1     -11.826  12.463  69.269  1.00  0.00    -0.361 C  
HETATM    9  C   UNL     1     -12.059  11.326  68.283  1.00  0.00    -0.058 C  
HETATM   10  C   UNL     1     -11.073  11.405  67.110  1.00  0.00    -0.305 C  
BRANCH  10  11
HETATM   11  C   UNL     1      -9.623  11.134  67.584  1.00  0.00    -0.170 C  
HETATM   12  N   UNL     1      -9.327   9.780  67.659  1.00  0.00    -0.140 N  
HETATM   13  O   UNL     1      -8.862  12.036  67.931  1.00  0.00    -0.159 OA 
HETATM   14  H   UNL     1      -9.979   9.095  67.279  1.00  0.00     0.000 HD 
BRANCH  12  15
HETATM   15  C   UNL     1      -8.132   9.354  68.257  1.00  0.00    -0.109 A  
HETATM   16  C   UNL     1      -8.095   9.102  69.641  1.00  0.00    -0.106 A  
HETATM   17  C   UNL     1      -9.243   9.386  70.561  1.00  0.00    -0.314 C  
HETATM   18  C   UNL     1      -6.876   8.687  70.204  1.00  0.00    -0.039 A  
HETATM   19  C   UNL     1      -5.744   8.496  69.407  1.00  0.00    -0.031 A  
HETATM   20  C   UNL     1      -5.806   8.722  68.039  1.00  0.00    -0.046 A  
HETATM   21  C   UNL     1      -6.994   9.158  67.445  1.00  0.00    -0.078 A  
HETATM   22  C   UNL     1      -7.039   9.378  65.956  1.00  0.00    -0.091 C  
ENDBRANCH  12  15
ENDBRANCH  10  11
ENDBRANCH   4   5
ENDBRANCH   3   4
ENDBRANCH   2   3
TORSDOF 5
ENDMDL
MODEL      165
REMARK 921   NORMALIZED FREE ENERGY PREDICTED BY IDOCK:   -3.67 KCAL/MOL
REMARK 922        TOTAL FREE ENERGY PREDICTED BY IDOCK:   -5.19 KCAL/MOL
REMARK 923 INTER-LIGAND FREE ENERGY PREDICTED BY IDOCK:   -4.87 KCAL/MOL
REMARK 924 INTRA-LIGAND FREE ENERGY PREDICTED BY IDOCK:   -0.31 KCAL/MOL
REMARK 927      BINDING AFFINITY PREDICTED BY RF-SCORE:    0.00 PKD
ROOT
HETATM    1  C   UNL     1      -8.536   3.171  67.655  1.00  0.00    -0.118 C  
HETATM    2  C   UNL     1      -7.666   4.421  67.644  1.00  0.00    -0.084 C  
ENDROOT
BRANCH   2   3
HETATM    3  C   UNL     1      -7.994   5.348  68.818  1.00  0.00    -0.087 C  
BRANCH   3   4
HETATM    4  C   UNL     1      -7.659   6.824  68.543  1.00  0.00    -0.104 C  
BRANCH   4   5
HETATM    5  N   UNL     1      -8.805   7.664  68.166  1.00  0.00    -0.125 NA 
HETATM    6  C   UNL     1      -9.601   8.151  69.311  1.00  0.00    -0.164 C  
HETATM    7  C   UNL     1      -9.025   9.346  70.078  1.00  0.00    -0.234 C  
HETATM    8  C   UNL     1      -8.543  10.468  69.165  1.00  0.00    -0.157 C  
HETATM    9  C   UNL     1      -7.662   9.913  68.052  1.00  0.00    -0.086 C  
HETATM   10  C   UNL     1      -8.380   8.794  67.289  1.00  0.00    -0.104 C  
BRANCH  10  11
HETATM   11  C   UNL     1      -9.593   9.350  66.499  1.00  0.00    -0.208 C  
HETATM   12  N   UNL     1      -9.379  10.636  66.022  1.00  0.00    -0.179 N  
HETATM   13  O   UNL     1     -10.650   8.731  66.391  1.00  0.00    -0.132 OA 
HETATM   14  H   UNL     1      -8.450  11.052  66.080  1.00  0.00     0.000 HD 
BRANCH  12  15
HETATM   15  C   UNL     1     -10.439  11.363  65.461  1.00  0.00    -0.268 A  
HETATM   16  C   UNL     1     -10.704  11.258  64.083  1.00  0.00    -0.436 A  
HETATM   17  C   UNL     1      -9.830  10.500  63.131  1.00  0.00    -0.295 C  
HETATM   18  C   UNL     1     -11.768  12.011  63.557  1.00  0.00    -0.566 A  
HETATM   19  C   UNL     1     -12.560  12.811  64.384  1.00  0.00    -0.431 A  
HETATM   20  C   UNL     1     -12.302  12.881  65.746  1.00  0.00    -0.437 A  
HETATM   21  C   UNL     1     -11.239  12.165  66.303  1.00  0.00    -0.382 A  
HETATM   22  C   UNL     1     -10.991  12.243  67.786  1.00  0.00    -0.274 C  
ENDBRANCH  12  15
ENDBRANCH  10  11
ENDBRANCH   4   5
ENDBRANCH   3   4
ENDBRANCH   2   3
TORSDOF 5
ENDMDL
MODEL      166
REMARK 921   NORMALIZED FREE ENERGY PREDICTED BY IDOCK:   -3.66 KCAL/MOL
REMARK 922        TOTAL FREE ENERGY PREDICTED BY IDOCK:   -5.17 KCAL/MOL
REMARK 923 INTER-LIGAND FREE ENERGY PREDICTED BY IDOCK:   -4.91 KCAL/MOL
REMARK 924 INTRA-LIGAND FREE ENERGY PREDICTED BY IDOCK:   -0.25 KCAL/MOL
REMARK 927      BINDING AFFINITY PREDICTED BY RF-SCORE:    0.00 PKD
ROOT
HETATM    1  C   UNL     1     -11.271  12.109  63.888  1.00  0.00    -0.485 C  
HETATM    2  C   UNL     1     -12.623  12.730  64.209  1.00  0.00    -0.405 C  
ENDROOT
BRANCH   2   3
HETATM    3  C   UNL     1     -12.552  13.628  65.448  1.00  0.00    -0.533 C  
BRANCH   3   4
HETATM    4  C   UNL     1     -11.154  14.220  65.693  1.00  0.00    -0.316 C  
BRANCH   4   5
HETATM    5  N   UNL     1     -10.378  13.566  66.757  1.00  0.00    -0.261 NA 
HETATM    6  C   UNL     1      -9.448  14.466  67.468  1.00  0.00    -0.207 C  
HETATM    7  C   UNL     1     -10.067  15.378  68.533  1.00  0.00    -0.213 C  
HETATM    8  C   UNL     1     -11.022  14.644  69.469  1.00  0.00    -0.269 C  
HETATM    9  C   UNL     1     -12.007  13.797  68.673  1.00  0.00    -0.401 C  
HETATM   10  C   UNL     1     -11.271  12.851  67.716  1.00  0.00    -0.280 C  
BRANCH  10  11
HETATM   11  C   UNL     1     -10.475  11.777  68.498  1.00  0.00    -0.215 C  
HETATM   12  N   UNL     1      -9.466  11.198  67.741  1.00  0.00    -0.165 N  
HETATM   13  O   UNL     1     -10.777  11.431  69.640  1.00  0.00    -0.125 OA 
HETATM   14  H   UNL     1      -9.223  11.592  66.832  1.00  0.00     0.000 HD 
BRANCH  12  15
HETATM   15  C   UNL     1      -8.781  10.074  68.223  1.00  0.00    -0.119 A  
HETATM   16  C   UNL     1      -9.301   8.787  67.991  1.00  0.00    -0.153 A  
HETATM   17  C   UNL     1     -10.636   8.540  67.356  1.00  0.00    -0.304 C  
HETATM   18  C   UNL     1      -8.590   7.687  68.501  1.00  0.00    -0.129 A  
HETATM   19  C   UNL     1      -7.385   7.864  69.186  1.00  0.00    -0.083 A  
HETATM   20  C   UNL     1      -6.872   9.139  69.381  1.00  0.00    -0.048 A  
HETATM   21  C   UNL     1      -7.561  10.260  68.909  1.00  0.00    -0.094 A  
HETATM   22  C   UNL     1      -6.974  11.630  69.118  1.00  0.00    -0.105 C  
ENDBRANCH  12  15
ENDBRANCH  10  11
ENDBRANCH   4   5
ENDBRANCH   3   4
ENDBRANCH   2   3
TORSDOF 5
ENDMDL
MODEL      167
REMARK 921   NORMALIZED FREE ENERGY PREDICTED BY IDOCK:   -3.64 KCAL/MOL
REMARK 922        TOTAL FREE ENERGY PREDICTED BY IDOCK:   -5.15 KCAL/MOL
REMARK 923 INTER-LIGAND FREE ENERGY PREDICTED BY IDOCK:   -4.66 KCAL/MOL
REMARK 924 INTRA-LIGAND FREE ENERGY PREDICTED BY IDOCK:   -0.49 KCAL/MOL
REMARK 927      BINDING AFFINITY PREDICTED BY RF-SCORE:    0.00 PKD
ROOT
HETATM    1  C   UNL     1     -11.342  12.547  66.808  1.00  0.00    -0.390 C  
HETATM    2  C   UNL     1     -11.798  13.079  68.160  1.00  0.00    -0.381 C  
ENDROOT
BRANCH   2   3
HETATM    3  C   UNL     1     -12.149  11.943  69.125  1.00  0.00    -0.261 C  
BRANCH   3   4
HETATM    4  C   UNL     1     -10.915  11.226  69.698  1.00  0.00    -0.151 C  
BRANCH   4   5
HETATM    5  N   UNL     1     -10.967   9.757  69.647  1.00  0.00    -0.240 NA 
HETATM    6  C   UNL     1     -10.637   9.185  68.325  1.00  0.00    -0.174 C  
HETATM    7  C   UNL     1      -9.148   9.107  67.973  1.00  0.00    -0.136 C  
HETATM    8  C   UNL     1      -8.295   8.537  69.101  1.00  0.00    -0.120 C  
HETATM    9  C   UNL     1      -8.623   9.223  70.422  1.00  0.00    -0.250 C  
HETATM   10  C   UNL     1     -10.126   9.150  70.719  1.00  0.00    -0.268 C  
BRANCH  10  11
HETATM   11  C   UNL     1     -10.569   7.689  70.991  1.00  0.00    -0.217 C  
HETATM   12  N   UNL     1      -9.576   6.932  71.598  1.00  0.00    -0.161 N  
HETATM   13  O   UNL     1     -11.657   7.250  70.624  1.00  0.00    -0.295 OA 
HETATM   14  H   UNL     1      -8.731   7.385  71.945  1.00  0.00     0.000 HD 
BRANCH  12  15
HETATM   15  C   UNL     1      -9.734   5.545  71.733  1.00  0.00    -0.163 A  
HETATM   16  C   UNL     1      -9.334   4.692  70.689  1.00  0.00    -0.220 A  
HETATM   17  C   UNL     1      -8.855   5.187  69.358  1.00  0.00    -0.119 C  
HETATM   18  C   UNL     1      -9.520   3.309  70.859  1.00  0.00    -0.234 A  
HETATM   19  C   UNL     1     -10.052   2.795  72.044  1.00  0.00    -0.186 A  
HETATM   20  C   UNL     1     -10.415   3.650  73.076  1.00  0.00    -0.253 A  
HETATM   21  C   UNL     1     -10.268   5.033  72.936  1.00  0.00    -0.220 A  
HETATM   22  C   UNL     1     -10.652   5.937  74.077  1.00  0.00    -0.213 C  
ENDBRANCH  12  15
ENDBRANCH  10  11
ENDBRANCH   4   5
ENDBRANCH   3   4
ENDBRANCH   2   3
TORSDOF 5
ENDMDL
MODEL      168
REMARK 921   NORMALIZED FREE ENERGY PREDICTED BY IDOCK:   -3.62 KCAL/MOL
REMARK 922        TOTAL FREE ENERGY PREDICTED BY IDOCK:   -5.11 KCAL/MOL
REMARK 923 INTER-LIGAND FREE ENERGY PREDICTED BY IDOCK:   -4.80 KCAL/MOL
REMARK 924 INTRA-LIGAND FREE ENERGY PREDICTED BY IDOCK:   -0.32 KCAL/MOL
REMARK 927      BINDING AFFINITY PREDICTED BY RF-SCORE:    0.00 PKD
ROOT
HETATM    1  C   UNL     1      -5.882   7.221  72.479  1.00  0.00    -0.040 C  
HETATM    2  C   UNL     1      -6.035   5.804  73.015  1.00  0.00    -0.040 C  
ENDROOT
BRANCH   2   3
HETATM    3  C   UNL     1      -7.159   5.047  72.299  1.00  0.00    -0.083 C  
BRANCH   3   4
HETATM    4  C   UNL     1      -7.045   5.093  70.766  1.00  0.00    -0.060 C  
BRANCH   4   5
HETATM    5  N   UNL     1      -8.018   5.967  70.094  1.00  0.00    -0.100 NA 
HETATM    6  C   UNL     1      -7.759   6.166  68.654  1.00  0.00    -0.100 C  
HETATM    7  C   UNL     1      -8.193   5.029  67.723  1.00  0.00    -0.098 C  
HETATM    8  C   UNL     1      -9.602   4.523  68.012  1.00  0.00    -0.209 C  
HETATM    9  C   UNL     1      -9.782   4.258  69.502  1.00  0.00    -0.272 C  
HETATM   10  C   UNL     1      -9.415   5.498  70.328  1.00  0.00    -0.165 C  
BRANCH  10  11
HETATM   11  C   UNL     1     -10.421   6.650  70.077  1.00  0.00    -0.212 C  
HETATM   12  N   UNL     1      -9.982   7.865  70.584  1.00  0.00    -0.186 N  
HETATM   13  O   UNL     1     -11.521   6.466  69.558  1.00  0.00    -0.407 OA 
HETATM   14  H   UNL     1      -9.027   7.958  70.929  1.00  0.00     0.000 HD 
BRANCH  12  15
HETATM   15  C   UNL     1     -10.851   8.966  70.622  1.00  0.00    -0.239 A  
HETATM   16  C   UNL     1     -10.774   9.950  69.619  1.00  0.00    -0.277 A  
HETATM   17  C   UNL     1      -9.716   9.965  68.558  1.00  0.00    -0.163 C  
HETATM   18  C   UNL     1     -11.654  11.044  69.699  1.00  0.00    -0.390 A  
HETATM   19  C   UNL     1     -12.600  11.131  70.723  1.00  0.00    -0.445 A  
HETATM   20  C   UNL     1     -12.681  10.137  71.688  1.00  0.00    -0.549 A  
HETATM   21  C   UNL     1     -11.808   9.045  71.657  1.00  0.00    -0.431 A  
HETATM   22  C   UNL     1     -11.929   7.971  72.704  1.00  0.00    -0.334 C  
ENDBRANCH  12  15
ENDBRANCH  10  11
ENDBRANCH   4   5
ENDBRANCH   3   4
ENDBRANCH   2   3
TORSDOF 5
ENDMDL
MODEL      169
REMARK 921   NORMALIZED FREE ENERGY PREDICTED BY IDOCK:   -3.61 KCAL/MOL
REMARK 922        TOTAL FREE ENERGY PREDICTED BY IDOCK:   -5.11 KCAL/MOL
REMARK 923 INTER-LIGAND FREE ENERGY PREDICTED BY IDOCK:   -5.08 KCAL/MOL
REMARK 924 INTRA-LIGAND FREE ENERGY PREDICTED BY IDOCK:   -0.03 KCAL/MOL
REMARK 927      BINDING AFFINITY PREDICTED BY RF-SCORE:    0.00 PKD
ROOT
HETATM    1  C   UNL     1     -10.353  19.280  67.391  1.00  0.00    -0.540 C  
HETATM    2  C   UNL     1      -9.130  18.890  68.210  1.00  0.00    -0.363 C  
ENDROOT
BRANCH   2   3
HETATM    3  C   UNL     1      -8.296  17.817  67.504  1.00  0.00    -0.227 C  
BRANCH   3   4
HETATM    4  C   UNL     1      -9.145  16.795  66.730  1.00  0.00    -0.241 C  
BRANCH   4   5
HETATM    5  N   UNL     1      -9.270  15.476  67.369  1.00  0.00    -0.200 NA 
HETATM    6  C   UNL     1     -10.040  15.486  68.629  1.00  0.00    -0.210 C  
HETATM    7  C   UNL     1     -11.566  15.522  68.492  1.00  0.00    -0.379 C  
HETATM    8  C   UNL     1     -12.100  14.521  67.473  1.00  0.00    -0.284 C  
HETATM    9  C   UNL     1     -11.319  14.616  66.168  1.00  0.00    -0.350 C  
HETATM   10  C   UNL     1      -9.813  14.464  66.416  1.00  0.00    -0.295 C  
BRANCH  10  11
HETATM   11  C   UNL     1      -9.471  13.031  66.897  1.00  0.00    -0.242 C  
HETATM   12  N   UNL     1      -8.475  12.434  66.137  1.00  0.00    -0.328 N  
HETATM   13  O   UNL     1     -10.087  12.474  67.804  1.00  0.00    -0.209 OA 
HETATM   14  H   UNL     1      -7.955  12.985  65.454  1.00  0.00     0.000 HD 
BRANCH  12  15
HETATM   15  C   UNL     1      -8.183  11.072  66.306  1.00  0.00    -0.164 A  
HETATM   16  C   UNL     1      -8.986  10.103  65.677  1.00  0.00    -0.199 A  
HETATM   17  C   UNL     1     -10.238  10.433  64.923  1.00  0.00    -0.330 C  
HETATM   18  C   UNL     1      -8.668   8.749  65.881  1.00  0.00    -0.198 A  
HETATM   19  C   UNL     1      -7.565   8.379  66.654  1.00  0.00    -0.089 A  
HETATM   20  C   UNL     1      -6.766   9.349  67.244  1.00  0.00    -0.075 A  
HETATM   21  C   UNL     1      -7.064  10.705  67.084  1.00  0.00    -0.093 A  
HETATM   22  C   UNL     1      -6.171  11.738  67.719  1.00  0.00    -0.061 C  
ENDBRANCH  12  15
ENDBRANCH  10  11
ENDBRANCH   4   5
ENDBRANCH   3   4
ENDBRANCH   2   3
TORSDOF 5
ENDMDL
MODEL      170
REMARK 921   NORMALIZED FREE ENERGY PREDICTED BY IDOCK:   -3.59 KCAL/MOL
REMARK 922        TOTAL FREE ENERGY PREDICTED BY IDOCK:   -5.07 KCAL/MOL
REMARK 923 INTER-LIGAND FREE ENERGY PREDICTED BY IDOCK:   -4.60 KCAL/MOL
REMARK 924 INTRA-LIGAND FREE ENERGY PREDICTED BY IDOCK:   -0.47 KCAL/MOL
REMARK 927      BINDING AFFINITY PREDICTED BY RF-SCORE:    0.00 PKD
ROOT
HETATM    1  C   UNL     1      -8.903  11.349  66.221  1.00  0.00    -0.196 C  
HETATM    2  C   UNL     1     -10.374  11.606  66.518  1.00  0.00    -0.259 C  
ENDROOT
BRANCH   2   3
HETATM    3  C   UNL     1     -11.007  10.441  67.286  1.00  0.00    -0.306 C  
BRANCH   3   4
HETATM    4  C   UNL     1      -9.982   9.587  68.052  1.00  0.00    -0.167 C  
BRANCH   4   5
HETATM    5  N   UNL     1     -10.469   8.270  68.487  1.00  0.00    -0.193 NA 
HETATM    6  C   UNL     1     -10.762   7.338  67.379  1.00  0.00    -0.288 C  
HETATM    7  C   UNL     1      -9.556   6.639  66.743  1.00  0.00    -0.207 C  
HETATM    8  C   UNL     1      -8.587   6.063  67.770  1.00  0.00    -0.106 C  
HETATM    9  C   UNL     1      -8.260   7.098  68.839  1.00  0.00    -0.125 C  
HETATM   10  C   UNL     1      -9.540   7.651  69.477  1.00  0.00    -0.163 C  
BRANCH  10  11
HETATM   11  C   UNL     1     -10.272   6.557  70.295  1.00  0.00    -0.192 C  
HETATM   12  N   UNL     1      -9.441   5.922  71.206  1.00  0.00    -0.160 N  
HETATM   13  O   UNL     1     -11.443   6.246  70.082  1.00  0.00    -0.400 OA 
HETATM   14  H   UNL     1      -8.505   6.288  71.383  1.00  0.00     0.000 HD 
BRANCH  12  15
HETATM   15  C   UNL     1      -9.885   4.777  71.884  1.00  0.00    -0.176 A  
HETATM   16  C   UNL     1      -9.639   3.504  71.340  1.00  0.00    -0.239 A  
HETATM   17  C   UNL     1      -9.028   3.290  69.988  1.00  0.00    -0.172 C  
HETATM   18  C   UNL     1     -10.110   2.382  72.044  1.00  0.00    -0.204 A  
HETATM   19  C   UNL     1     -10.771   2.527  73.266  1.00  0.00    -0.276 A  
HETATM   20  C   UNL     1     -10.981   3.790  73.803  1.00  0.00    -0.312 A  
HETATM   21  C   UNL     1     -10.548   4.931  73.122  1.00  0.00    -0.277 A  
HETATM   22  C   UNL     1     -10.771   6.288  73.734  1.00  0.00    -0.182 C  
ENDBRANCH  12  15
ENDBRANCH  10  11
ENDBRANCH   4   5
ENDBRANCH   3   4
ENDBRANCH   2   3
TORSDOF 5
ENDMDL
MODEL      171
REMARK 921   NORMALIZED FREE ENERGY PREDICTED BY IDOCK:   -3.59 KCAL/MOL
REMARK 922        TOTAL FREE ENERGY PREDICTED BY IDOCK:   -5.07 KCAL/MOL
REMARK 923 INTER-LIGAND FREE ENERGY PREDICTED BY IDOCK:   -5.22 KCAL/MOL
REMARK 924 INTRA-LIGAND FREE ENERGY PREDICTED BY IDOCK:    0.15 KCAL/MOL
REMARK 927      BINDING AFFINITY PREDICTED BY RF-SCORE:    0.00 PKD
ROOT
HETATM    1  C   UNL     1      -8.843   5.164  67.188  1.00  0.00    -0.109 C  
HETATM    2  C   UNL     1     -10.275   5.162  66.669  1.00  0.00    -0.297 C  
ENDROOT
BRANCH   2   3
HETATM    3  C   UNL     1     -10.967   6.506  66.917  1.00  0.00    -0.408 C  
BRANCH   3   4
HETATM    4  C   UNL     1     -10.081   7.719  66.589  1.00  0.00    -0.224 C  
BRANCH   4   5
HETATM    5  N   UNL     1     -10.555   9.003  67.128  1.00  0.00    -0.261 NA 
HETATM    6  C   UNL     1     -10.581   9.066  68.603  1.00  0.00    -0.160 C  
HETATM    7  C   UNL     1      -9.236   9.317  69.295  1.00  0.00    -0.152 C  
HETATM    8  C   UNL     1      -8.438  10.451  68.661  1.00  0.00    -0.129 C  
HETATM    9  C   UNL     1      -8.379  10.284  67.147  1.00  0.00    -0.122 C  
HETATM   10  C   UNL     1      -9.786  10.146  66.554  1.00  0.00    -0.212 C  
BRANCH  10  11
HETATM   11  C   UNL     1     -10.586  11.465  66.706  1.00  0.00    -0.255 C  
HETATM   12  N   UNL     1      -9.919  12.412  67.470  1.00  0.00    -0.194 N  
HETATM   13  O   UNL     1     -11.723  11.603  66.259  1.00  0.00    -0.443 OA 
HETATM   14  H   UNL     1      -8.947  12.257  67.738  1.00  0.00     0.000 HD 
BRANCH  12  15
HETATM   15  C   UNL     1     -10.579  13.582  67.873  1.00  0.00    -0.248 A  
HETATM   16  C   UNL     1     -11.553  13.519  68.886  1.00  0.00    -0.364 A  
HETATM   17  C   UNL     1     -12.033  12.235  69.490  1.00  0.00    -0.333 C  
HETATM   18  C   UNL     1     -12.200  14.712  69.254  1.00  0.00    -0.247 A  
HETATM   19  C   UNL     1     -11.859  15.928  68.657  1.00  0.00    -0.243 A  
HETATM   20  C   UNL     1     -10.875  15.976  67.679  1.00  0.00    -0.311 A  
HETATM   21  C   UNL     1     -10.226  14.808  67.269  1.00  0.00    -0.241 A  
HETATM   22  C   UNL     1      -9.149  14.890  66.220  1.00  0.00    -0.262 C  
ENDBRANCH  12  15
ENDBRANCH  10  11
ENDBRANCH   4   5
ENDBRANCH   3   4
ENDBRANCH   2   3
TORSDOF 5
ENDMDL
MODEL      172
REMARK 921   NORMALIZED FREE ENERGY PREDICTED BY IDOCK:   -3.58 KCAL/MOL
REMARK 922        TOTAL FREE ENERGY PREDICTED BY IDOCK:   -5.07 KCAL/MOL
REMARK 923 INTER-LIGAND FREE ENERGY PREDICTED BY IDOCK:   -5.34 KCAL/MOL
REMARK 924 INTRA-LIGAND FREE ENERGY PREDICTED BY IDOCK:    0.27 KCAL/MOL
REMARK 927      BINDING AFFINITY PREDICTED BY RF-SCORE:    0.00 PKD
ROOT
HETATM    1  C   UNL     1      -7.172   7.528  64.700  1.00  0.00    -0.068 C  
HETATM    2  C   UNL     1      -6.049   7.662  65.719  1.00  0.00    -0.038 C  
ENDROOT
BRANCH   2   3
HETATM    3  C   UNL     1      -6.594   7.867  67.136  1.00  0.00    -0.060 C  
BRANCH   3   4
HETATM    4  C   UNL     1      -8.090   7.538  67.269  1.00  0.00    -0.115 C  
BRANCH   4   5
HETATM    5  N   UNL     1      -8.998   8.683  67.104  1.00  0.00    -0.131 NA 
HETATM    6  C   UNL     1     -10.308   8.515  67.766  1.00  0.00    -0.237 C  
HETATM    7  C   UNL     1     -10.339   8.756  69.279  1.00  0.00    -0.221 C  
HETATM    8  C   UNL     1      -9.616  10.032  69.698  1.00  0.00    -0.251 C  
HETATM    9  C   UNL     1      -8.240  10.106  69.048  1.00  0.00    -0.132 C  
HETATM   10  C   UNL     1      -8.343   9.955  67.525  1.00  0.00    -0.114 C  
BRANCH  10  11
HETATM   11  C   UNL     1      -9.068  11.171  66.894  1.00  0.00    -0.159 C  
HETATM   12  N   UNL     1     -10.282  10.830  66.314  1.00  0.00    -0.238 N  
HETATM   13  O   UNL     1      -8.563  12.292  66.850  1.00  0.00    -0.193 OA 
HETATM   14  H   UNL     1     -10.672   9.899  66.461  1.00  0.00     0.000 HD 
BRANCH  12  15
HETATM   15  C   UNL     1     -10.972  11.763  65.527  1.00  0.00    -0.290 A  
HETATM   16  C   UNL     1     -10.865  11.710  64.126  1.00  0.00    -0.433 A  
HETATM   17  C   UNL     1      -9.939  10.778  63.405  1.00  0.00    -0.385 C  
HETATM   18  C   UNL     1     -11.563  12.670  63.373  1.00  0.00    -0.536 A  
HETATM   19  C   UNL     1     -12.369  13.626  63.997  1.00  0.00    -0.382 A  
HETATM   20  C   UNL     1     -12.486  13.646  65.380  1.00  0.00    -0.537 A  
HETATM   21  C   UNL     1     -11.789  12.723  66.165  1.00  0.00    -0.484 A  
HETATM   22  C   UNL     1     -11.948  12.754  67.661  1.00  0.00    -0.331 C  
ENDBRANCH  12  15
ENDBRANCH  10  11
ENDBRANCH   4   5
ENDBRANCH   3   4
ENDBRANCH   2   3
TORSDOF 5
ENDMDL
MODEL      173
REMARK 921   NORMALIZED FREE ENERGY PREDICTED BY IDOCK:   -3.56 KCAL/MOL
REMARK 922        TOTAL FREE ENERGY PREDICTED BY IDOCK:   -5.04 KCAL/MOL
REMARK 923 INTER-LIGAND FREE ENERGY PREDICTED BY IDOCK:   -5.63 KCAL/MOL
REMARK 924 INTRA-LIGAND FREE ENERGY PREDICTED BY IDOCK:    0.59 KCAL/MOL
REMARK 927      BINDING AFFINITY PREDICTED BY RF-SCORE:    0.00 PKD
ROOT
HETATM    1  C   UNL     1     -10.688   6.947  68.387  1.00  0.00    -0.259 C  
HETATM    2  C   UNL     1      -9.969   7.626  67.230  1.00  0.00    -0.273 C  
ENDROOT
BRANCH   2   3
HETATM    3  C   UNL     1     -10.350   9.105  67.117  1.00  0.00    -0.337 C  
BRANCH   3   4
HETATM    4  C   UNL     1     -10.049   9.710  65.736  1.00  0.00    -0.204 C  
BRANCH   4   5
HETATM    5  N   UNL     1      -9.935  11.176  65.707  1.00  0.00    -0.234 NA 
HETATM    6  C   UNL     1      -9.180  11.701  64.552  1.00  0.00     0.156 C  
HETATM    7  C   UNL     1      -9.938  11.772  63.222  1.00  0.00    -0.435 C  
HETATM    8  C   UNL     1     -11.328  12.385  63.356  1.00  0.00    -0.507 C  
HETATM    9  C   UNL     1     -12.086  11.745  64.513  1.00  0.00    -0.156 C  
HETATM   10  C   UNL     1     -11.275  11.823  65.812  1.00  0.00    -0.281 C  
BRANCH  10  11
HETATM   11  C   UNL     1     -11.131  13.291  66.289  1.00  0.00    -0.290 C  
HETATM   12  N   UNL     1     -10.032  13.930  65.733  1.00  0.00    -0.389 N  
HETATM   13  O   UNL     1     -11.874  13.786  67.135  1.00  0.00    -0.363 OA 
HETATM   14  H   UNL     1      -9.510  13.483  64.979  1.00  0.00     0.000 HD 
BRANCH  12  15
HETATM   15  C   UNL     1      -9.638  15.190  66.206  1.00  0.00    -0.297 A  
HETATM   16  C   UNL     1     -10.298  16.345  65.747  1.00  0.00    -0.388 A  
HETATM   17  C   UNL     1     -11.335  16.326  64.665  1.00  0.00    -0.237 C  
HETATM   18  C   UNL     1      -9.866  17.590  66.236  1.00  0.00    -0.295 A  
HETATM   19  C   UNL     1      -8.837  17.675  67.176  1.00  0.00    -0.251 A  
HETATM   20  C   UNL     1      -8.216  16.524  67.640  1.00  0.00    -0.169 A  
HETATM   21  C   UNL     1      -8.601  15.268  67.161  1.00  0.00    -0.236 A  
HETATM   22  C   UNL     1      -7.924  14.034  67.693  1.00  0.00    -0.186 C  
ENDBRANCH  12  15
ENDBRANCH  10  11
ENDBRANCH   4   5
ENDBRANCH   3   4
ENDBRANCH   2   3
TORSDOF 5
ENDMDL
MODEL      174
REMARK 921   NORMALIZED FREE ENERGY PREDICTED BY IDOCK:   -3.55 KCAL/MOL
REMARK 922        TOTAL FREE ENERGY PREDICTED BY IDOCK:   -5.02 KCAL/MOL
REMARK 923 INTER-LIGAND FREE ENERGY PREDICTED BY IDOCK:   -4.82 KCAL/MOL
REMARK 924 INTRA-LIGAND FREE ENERGY PREDICTED BY IDOCK:   -0.21 KCAL/MOL
REMARK 927      BINDING AFFINITY PREDICTED BY RF-SCORE:    0.00 PKD
ROOT
HETATM    1  C   UNL     1     -10.326  11.047  63.082  1.00  0.00    -0.251 C  
HETATM    2  C   UNL     1     -10.775  12.460  63.430  1.00  0.00    -0.398 C  
ENDROOT
BRANCH   2   3
HETATM    3  C   UNL     1     -12.236  12.492  63.889  1.00  0.00    -0.590 C  
BRANCH   3   4
HETATM    4  C   UNL     1     -12.405  12.904  65.361  1.00  0.00    -0.485 C  
BRANCH   4   5
HETATM    5  N   UNL     1     -11.170  12.889  66.158  1.00  0.00    -0.283 NA 
HETATM    6  C   UNL     1     -11.054  14.008  67.115  1.00  0.00    -0.303 C  
HETATM    7  C   UNL     1     -11.852  13.873  68.417  1.00  0.00    -0.409 C  
HETATM    8  C   UNL     1     -11.698  12.505  69.075  1.00  0.00    -0.368 C  
HETATM    9  C   UNL     1     -11.909  11.393  68.055  1.00  0.00    -0.273 C  
HETATM   10  C   UNL     1     -10.986  11.576  66.843  1.00  0.00    -0.296 C  
BRANCH  10  11
HETATM   11  C   UNL     1      -9.501  11.377  67.241  1.00  0.00    -0.167 C  
HETATM   12  N   UNL     1      -9.058  10.079  67.028  1.00  0.00    -0.141 N  
HETATM   13  O   UNL     1      -8.832  12.267  67.764  1.00  0.00    -0.158 OA 
HETATM   14  H   UNL     1      -9.643   9.419  66.517  1.00  0.00     0.000 HD 
BRANCH  12  15
HETATM   15  C   UNL     1      -7.806   9.675  67.516  1.00  0.00    -0.095 A  
HETATM   16  C   UNL     1      -6.690   9.676  66.659  1.00  0.00    -0.079 A  
HETATM   17  C   UNL     1      -6.778   9.968  65.192  1.00  0.00    -0.126 C  
HETATM   18  C   UNL     1      -5.456   9.254  67.183  1.00  0.00    -0.040 A  
HETATM   19  C   UNL     1      -5.334   8.879  68.523  1.00  0.00    -0.037 A  
HETATM   20  C   UNL     1      -6.440   8.911  69.362  1.00  0.00    -0.044 A  
HETATM   21  C   UNL     1      -7.689   9.303  68.873  1.00  0.00    -0.079 A  
HETATM   22  C   UNL     1      -8.869   9.347  69.807  1.00  0.00    -0.193 C  
ENDBRANCH  12  15
ENDBRANCH  10  11
ENDBRANCH   4   5
ENDBRANCH   3   4
ENDBRANCH   2   3
TORSDOF 5
ENDMDL
MODEL      175
REMARK 921   NORMALIZED FREE ENERGY PREDICTED BY IDOCK:   -3.54 KCAL/MOL
REMARK 922        TOTAL FREE ENERGY PREDICTED BY IDOCK:   -5.02 KCAL/MOL
REMARK 923 INTER-LIGAND FREE ENERGY PREDICTED BY IDOCK:   -4.60 KCAL/MOL
REMARK 924 INTRA-LIGAND FREE ENERGY PREDICTED BY IDOCK:   -0.42 KCAL/MOL
REMARK 927      BINDING AFFINITY PREDICTED BY RF-SCORE:    0.00 PKD
ROOT
HETATM    1  C   UNL     1     -11.625  12.339  66.624  1.00  0.00    -0.438 C  
HETATM    2  C   UNL     1     -10.630  11.250  67.001  1.00  0.00    -0.287 C  
ENDROOT
BRANCH   2   3
HETATM    3  C   UNL     1     -11.113  10.436  68.205  1.00  0.00    -0.338 C  
BRANCH   3   4
HETATM    4  C   UNL     1     -10.048  10.278  69.303  1.00  0.00    -0.227 C  
BRANCH   4   5
HETATM    5  N   UNL     1      -9.677   8.891  69.618  1.00  0.00    -0.170 NA 
HETATM    6  C   UNL     1      -8.825   8.750  70.816  1.00  0.00    -0.191 C  
HETATM    7  C   UNL     1      -9.539   8.827  72.170  1.00  0.00    -0.325 C  
HETATM    8  C   UNL     1     -10.801   7.975  72.231  1.00  0.00    -0.369 C  
HETATM    9  C   UNL     1     -11.678   8.225  71.010  1.00  0.00    -0.293 C  
HETATM   10  C   UNL     1     -10.885   8.019  69.713  1.00  0.00    -0.194 C  
BRANCH  10  11
HETATM   11  C   UNL     1     -10.491   6.530  69.533  1.00  0.00    -0.222 C  
HETATM   12  N   UNL     1      -9.391   6.362  68.705  1.00  0.00    -0.126 N  
HETATM   13  O   UNL     1     -11.151   5.610  70.015  1.00  0.00    -0.310 OA 
HETATM   14  H   UNL     1      -8.848   7.174  68.409  1.00  0.00     0.000 HD 
BRANCH  12  15
HETATM   15  C   UNL     1      -9.023   5.079  68.276  1.00  0.00    -0.108 A  
HETATM   16  C   UNL     1      -8.097   4.331  69.025  1.00  0.00    -0.073 A  
HETATM   17  C   UNL     1      -7.364   4.878  70.212  1.00  0.00    -0.055 C  
HETATM   18  C   UNL     1      -7.745   3.054  68.555  1.00  0.00    -0.055 A  
HETATM   19  C   UNL     1      -8.327   2.528  67.398  1.00  0.00    -0.094 A  
HETATM   20  C   UNL     1      -9.261   3.269  66.687  1.00  0.00    -0.178 A  
HETATM   21  C   UNL     1      -9.619   4.552  67.109  1.00  0.00    -0.209 A  
HETATM   22  C   UNL     1     -10.648   5.327  66.330  1.00  0.00    -0.338 C  
ENDBRANCH  12  15
ENDBRANCH  10  11
ENDBRANCH   4   5
ENDBRANCH   3   4
ENDBRANCH   2   3
TORSDOF 5
ENDMDL
MODEL      176
REMARK 921   NORMALIZED FREE ENERGY PREDICTED BY IDOCK:   -3.54 KCAL/MOL
REMARK 922        TOTAL FREE ENERGY PREDICTED BY IDOCK:   -5.01 KCAL/MOL
REMARK 923 INTER-LIGAND FREE ENERGY PREDICTED BY IDOCK:   -6.11 KCAL/MOL
REMARK 924 INTRA-LIGAND FREE ENERGY PREDICTED BY IDOCK:    1.11 KCAL/MOL
REMARK 927      BINDING AFFINITY PREDICTED BY RF-SCORE:    0.00 PKD
ROOT
HETATM    1  C   UNL     1     -12.612  12.396  64.651  1.00  0.00    -0.459 C  
HETATM    2  C   UNL     1     -11.310  12.651  63.905  1.00  0.00    -0.501 C  
ENDROOT
BRANCH   2   3
HETATM    3  C   UNL     1     -10.524  13.812  64.521  1.00  0.00    -0.378 C  
BRANCH   3   4
HETATM    4  C   UNL     1      -9.553  13.372  65.630  1.00  0.00     0.013 C  
BRANCH   4   5
HETATM    5  N   UNL     1     -10.094  13.442  66.996  1.00  0.00    -0.244 NA 
HETATM    6  C   UNL     1      -9.223  12.835  68.023  1.00  0.00    -0.208 C  
HETATM    7  C   UNL     1      -8.034  13.681  68.491  1.00  0.00    -0.127 C  
HETATM    8  C   UNL     1      -8.412  15.124  68.805  1.00  0.00    -0.180 C  
HETATM    9  C   UNL     1      -9.239  15.721  67.672  1.00  0.00    -0.200 C  
HETATM   10  C   UNL     1     -10.457  14.843  67.361  1.00  0.00    -0.255 C  
BRANCH  10  11
HETATM   11  C   UNL     1     -11.464  14.850  68.540  1.00  0.00    -0.315 C  
HETATM   12  N   UNL     1     -11.069  14.031  69.588  1.00  0.00    -0.429 N  
HETATM   13  O   UNL     1     -12.532  15.458  68.492  1.00  0.00     0.122 OA 
HETATM   14  H   UNL     1     -10.134  13.623  69.590  1.00  0.00     0.000 HD 
BRANCH  12  15
HETATM   15  C   UNL     1     -11.953  13.765  70.644  1.00  0.00    -0.266 A  
HETATM   16  C   UNL     1     -12.323  14.800  71.522  1.00  0.00    -0.404 A  
HETATM   17  C   UNL     1     -11.722  16.172  71.477  1.00  0.00    -0.533 C  
HETATM   18  C   UNL     1     -13.202  14.490  72.574  1.00  0.00    -0.538 A  
HETATM   19  C   UNL     1     -13.720  13.202  72.722  1.00  0.00    -0.124 A  
HETATM   20  C   UNL     1     -13.367  12.199  71.829  1.00  0.00    -0.342 A  
HETATM   21  C   UNL     1     -12.478  12.462  70.783  1.00  0.00    -0.356 A  
HETATM   22  C   UNL     1     -12.125  11.362  69.818  1.00  0.00    -0.388 C  
ENDBRANCH  12  15
ENDBRANCH  10  11
ENDBRANCH   4   5
ENDBRANCH   3   4
ENDBRANCH   2   3
TORSDOF 5
ENDMDL
MODEL      177
REMARK 921   NORMALIZED FREE ENERGY PREDICTED BY IDOCK:   -3.51 KCAL/MOL
REMARK 922        TOTAL FREE ENERGY PREDICTED BY IDOCK:   -4.98 KCAL/MOL
REMARK 923 INTER-LIGAND FREE ENERGY PREDICTED BY IDOCK:   -4.75 KCAL/MOL
REMARK 924 INTRA-LIGAND FREE ENERGY PREDICTED BY IDOCK:   -0.23 KCAL/MOL
REMARK 927      BINDING AFFINITY PREDICTED BY RF-SCORE:    0.00 PKD
ROOT
HETATM    1  C   UNL     1      -6.046   6.924  73.411  1.00  0.00    -0.058 C  
HETATM    2  C   UNL     1      -6.658   8.303  73.613  1.00  0.00    -0.141 C  
ENDROOT
BRANCH   2   3
HETATM    3  C   UNL     1      -8.114   8.211  74.082  1.00  0.00    -0.312 C  
BRANCH   3   4
HETATM    4  C   UNL     1      -8.880   7.029  73.465  1.00  0.00    -0.143 C  
BRANCH   4   5
HETATM    5  N   UNL     1      -9.311   7.224  72.072  1.00  0.00    -0.133 NA 
HETATM    6  C   UNL     1     -10.138   6.125  71.536  1.00  0.00    -0.192 C  
HETATM    7  C   UNL     1     -11.614   6.121  71.951  1.00  0.00    -0.352 C  
HETATM    8  C   UNL     1     -12.277   7.488  71.820  1.00  0.00    -0.345 C  
HETATM    9  C   UNL     1     -11.415   8.567  72.464  1.00  0.00    -0.368 C  
HETATM   10  C   UNL     1      -9.990   8.542  71.897  1.00  0.00    -0.294 C  
BRANCH  10  11
HETATM   11  C   UNL     1      -9.978   8.962  70.405  1.00  0.00    -0.194 C  
HETATM   12  N   UNL     1      -9.844  10.332  70.234  1.00  0.00    -0.367 N  
HETATM   13  O   UNL     1     -10.154   8.157  69.491  1.00  0.00    -0.184 OA 
HETATM   14  H   UNL     1      -9.621  10.925  71.034  1.00  0.00     0.000 HD 
BRANCH  12  15
HETATM   15  C   UNL     1     -10.013  10.902  68.964  1.00  0.00    -0.191 A  
HETATM   16  C   UNL     1     -11.291  11.322  68.553  1.00  0.00    -0.341 A  
HETATM   17  C   UNL     1     -12.535  11.078  69.352  1.00  0.00    -0.075 C  
HETATM   18  C   UNL     1     -11.422  11.878  67.268  1.00  0.00    -0.385 A  
HETATM   19  C   UNL     1     -10.309  12.042  66.440  1.00  0.00    -0.246 A  
HETATM   20  C   UNL     1      -9.050  11.649  66.873  1.00  0.00    -0.188 A  
HETATM   21  C   UNL     1      -8.883  11.071  68.135  1.00  0.00    -0.141 A  
HETATM   22  C   UNL     1      -7.505  10.670  68.588  1.00  0.00    -0.098 C  
ENDBRANCH  12  15
ENDBRANCH  10  11
ENDBRANCH   4   5
ENDBRANCH   3   4
ENDBRANCH   2   3
TORSDOF 5
ENDMDL
MODEL      178
REMARK 921   NORMALIZED FREE ENERGY PREDICTED BY IDOCK:   -3.51 KCAL/MOL
REMARK 922        TOTAL FREE ENERGY PREDICTED BY IDOCK:   -4.97 KCAL/MOL
REMARK 923 INTER-LIGAND FREE ENERGY PREDICTED BY IDOCK:   -4.63 KCAL/MOL
REMARK 924 INTRA-LIGAND FREE ENERGY PREDICTED BY IDOCK:   -0.34 KCAL/MOL
REMARK 927      BINDING AFFINITY PREDICTED BY RF-SCORE:    0.00 PKD
ROOT
HETATM    1  C   UNL     1      -9.392   4.229  64.379  1.00  0.00    -0.157 C  
HETATM    2  C   UNL     1      -8.326   5.313  64.298  1.00  0.00    -0.134 C  
ENDROOT
BRANCH   2   3
HETATM    3  C   UNL     1      -7.542   5.433  65.608  1.00  0.00    -0.082 C  
BRANCH   3   4
HETATM    4  C   UNL     1      -8.186   4.670  66.777  1.00  0.00    -0.106 C  
BRANCH   4   5
HETATM    5  N   UNL     1      -8.666   5.513  67.883  1.00  0.00    -0.107 NA 
HETATM    6  C   UNL     1      -8.285   6.935  67.769  1.00  0.00    -0.117 C  
HETATM    7  C   UNL     1      -9.121   7.787  66.807  1.00  0.00    -0.185 C  
HETATM    8  C   UNL     1     -10.622   7.582  66.976  1.00  0.00    -0.409 C  
HETATM    9  C   UNL     1     -10.961   6.097  67.004  1.00  0.00    -0.414 C  
HETATM   10  C   UNL     1     -10.139   5.366  68.073  1.00  0.00    -0.173 C  
BRANCH  10  11
HETATM   11  C   UNL     1     -10.548   5.821  69.497  1.00  0.00    -0.319 C  
HETATM   12  N   UNL     1      -9.490   5.791  70.394  1.00  0.00    -0.163 N  
HETATM   13  O   UNL     1     -11.710   6.094  69.795  1.00  0.00    -0.340 OA 
HETATM   14  H   UNL     1      -8.541   5.632  70.057  1.00  0.00     0.000 HD 
BRANCH  12  15
HETATM   15  C   UNL     1      -9.725   5.978  71.764  1.00  0.00    -0.151 A  
HETATM   16  C   UNL     1      -9.942   4.863  72.594  1.00  0.00    -0.210 A  
HETATM   17  C   UNL     1     -10.067   3.462  72.076  1.00  0.00    -0.179 C  
HETATM   18  C   UNL     1     -10.185   5.094  73.959  1.00  0.00    -0.270 A  
HETATM   19  C   UNL     1     -10.175   6.389  74.483  1.00  0.00    -0.310 A  
HETATM   20  C   UNL     1      -9.931   7.476  73.654  1.00  0.00    -0.347 A  
HETATM   21  C   UNL     1      -9.708   7.290  72.287  1.00  0.00    -0.177 A  
HETATM   22  C   UNL     1      -9.427   8.484  71.414  1.00  0.00    -0.279 C  
ENDBRANCH  12  15
ENDBRANCH  10  11
ENDBRANCH   4   5
ENDBRANCH   3   4
ENDBRANCH   2   3
TORSDOF 5
ENDMDL
MODEL      179
REMARK 921   NORMALIZED FREE ENERGY PREDICTED BY IDOCK:   -3.50 KCAL/MOL
REMARK 922        TOTAL FREE ENERGY PREDICTED BY IDOCK:   -4.96 KCAL/MOL
REMARK 923 INTER-LIGAND FREE ENERGY PREDICTED BY IDOCK:   -4.90 KCAL/MOL
REMARK 924 INTRA-LIGAND FREE ENERGY PREDICTED BY IDOCK:   -0.06 KCAL/MOL
REMARK 927      BINDING AFFINITY PREDICTED BY RF-SCORE:    0.00 PKD
ROOT
HETATM    1  C   UNL     1     -12.591  12.297  63.602  1.00  0.00    -0.599 C  
HETATM    2  C   UNL     1     -11.073  12.208  63.518  1.00  0.00    -0.525 C  
ENDROOT
BRANCH   2   3
HETATM    3  C   UNL     1     -10.550  10.897  64.114  1.00  0.00    -0.327 C  
BRANCH   3   4
HETATM    4  C   UNL     1      -9.466  11.104  65.185  1.00  0.00    -0.226 C  
BRANCH   4   5
HETATM    5  N   UNL     1      -9.250   9.959  66.083  1.00  0.00    -0.160 NA 
HETATM    6  C   UNL     1      -7.863   9.826  66.570  1.00  0.00    -0.109 C  
HETATM    7  C   UNL     1      -7.455  10.755  67.719  1.00  0.00    -0.094 C  
HETATM    8  C   UNL     1      -8.482  10.803  68.845  1.00  0.00    -0.149 C  
HETATM    9  C   UNL     1      -9.882  11.024  68.284  1.00  0.00    -0.185 C  
HETATM   10  C   UNL     1     -10.219   9.974  67.218  1.00  0.00    -0.222 C  
BRANCH  10  11
HETATM   11  C   UNL     1     -10.338   8.562  67.846  1.00  0.00    -0.223 C  
HETATM   12  N   UNL     1      -9.987   8.540  69.188  1.00  0.00    -0.187 N  
HETATM   13  O   UNL     1     -10.633   7.568  67.184  1.00  0.00    -0.307 OA 
HETATM   14  H   UNL     1      -9.832   9.415  69.688  1.00  0.00     0.000 HD 
BRANCH  12  15
HETATM   15  C   UNL     1      -9.846   7.316  69.858  1.00  0.00    -0.178 A  
HETATM   16  C   UNL     1      -8.657   6.576  69.716  1.00  0.00    -0.136 A  
HETATM   17  C   UNL     1      -7.556   6.959  68.775  1.00  0.00    -0.105 C  
HETATM   18  C   UNL     1      -8.559   5.349  70.395  1.00  0.00    -0.127 A  
HETATM   19  C   UNL     1      -9.596   4.895  71.214  1.00  0.00    -0.229 A  
HETATM   20  C   UNL     1     -10.750   5.652  71.364  1.00  0.00    -0.310 A  
HETATM   21  C   UNL     1     -10.896   6.866  70.688  1.00  0.00    -0.280 A  
HETATM   22  C   UNL     1     -12.149   7.676  70.883  1.00  0.00    -0.226 C  
ENDBRANCH  12  15
ENDBRANCH  10  11
ENDBRANCH   4   5
ENDBRANCH   3   4
ENDBRANCH   2   3
TORSDOF 5
ENDMDL
MODEL      180
REMARK 921   NORMALIZED FREE ENERGY PREDICTED BY IDOCK:   -3.49 KCAL/MOL
REMARK 922        TOTAL FREE ENERGY PREDICTED BY IDOCK:   -4.95 KCAL/MOL
REMARK 923 INTER-LIGAND FREE ENERGY PREDICTED BY IDOCK:   -4.72 KCAL/MOL
REMARK 924 INTRA-LIGAND FREE ENERGY PREDICTED BY IDOCK:   -0.23 KCAL/MOL
REMARK 927      BINDING AFFINITY PREDICTED BY RF-SCORE:    0.00 PKD
ROOT
HETATM    1  C   UNL     1      -7.040   7.134  74.428  1.00  0.00    -0.108 C  
HETATM    2  C   UNL     1      -7.943   8.320  74.114  1.00  0.00    -0.282 C  
ENDROOT
BRANCH   2   3
HETATM    3  C   UNL     1      -9.301   7.867  73.569  1.00  0.00    -0.333 C  
BRANCH   3   4
HETATM    4  C   UNL     1      -9.191   6.811  72.456  1.00  0.00    -0.136 C  
BRANCH   4   5
HETATM    5  N   UNL     1      -9.080   7.351  71.093  1.00  0.00    -0.147 NA 
HETATM    6  C   UNL     1      -8.492   6.412  70.116  1.00  0.00    -0.135 C  
HETATM    7  C   UNL     1      -9.427   5.327  69.570  1.00  0.00    -0.192 C  
HETATM    8  C   UNL     1     -10.784   5.869  69.136  1.00  0.00    -0.394 C  
HETATM    9  C   UNL     1     -11.376   6.764  70.218  1.00  0.00    -0.404 C  
HETATM   10  C   UNL     1     -10.392   7.874  70.611  1.00  0.00    -0.202 C  
BRANCH  10  11
HETATM   11  C   UNL     1     -10.181   8.870  69.443  1.00  0.00    -0.209 C  
HETATM   12  N   UNL     1      -9.722  10.108  69.870  1.00  0.00    -0.377 N  
HETATM   13  O   UNL     1     -10.476   8.597  68.280  1.00  0.00    -0.218 OA 
HETATM   14  H   UNL     1      -9.424  10.235  70.837  1.00  0.00     0.000 HD 
BRANCH  12  15
HETATM   15  C   UNL     1      -9.668  11.185  68.973  1.00  0.00    -0.096 A  
HETATM   16  C   UNL     1      -8.496  11.416  68.230  1.00  0.00    -0.154 A  
HETATM   17  C   UNL     1      -7.228  10.643  68.430  1.00  0.00    -0.084 C  
HETATM   18  C   UNL     1      -8.478  12.512  67.350  1.00  0.00    -0.181 A  
HETATM   19  C   UNL     1      -9.602  13.326  67.192  1.00  0.00    -0.240 A  
HETATM   20  C   UNL     1     -10.760  13.067  67.913  1.00  0.00    -0.249 A  
HETATM   21  C   UNL     1     -10.810  12.000  68.815  1.00  0.00    -0.267 A  
HETATM   22  C   UNL     1     -12.084  11.729  69.570  1.00  0.00    -0.314 C  
ENDBRANCH  12  15
ENDBRANCH  10  11
ENDBRANCH   4   5
ENDBRANCH   3   4
ENDBRANCH   2   3
TORSDOF 5
ENDMDL
MODEL      181
REMARK 921   NORMALIZED FREE ENERGY PREDICTED BY IDOCK:   -3.49 KCAL/MOL
REMARK 922        TOTAL FREE ENERGY PREDICTED BY IDOCK:   -4.95 KCAL/MOL
REMARK 923 INTER-LIGAND FREE ENERGY PREDICTED BY IDOCK:   -4.76 KCAL/MOL
REMARK 924 INTRA-LIGAND FREE ENERGY PREDICTED BY IDOCK:   -0.19 KCAL/MOL
REMARK 927      BINDING AFFINITY PREDICTED BY RF-SCORE:    0.00 PKD
ROOT
HETATM    1  C   UNL     1      -6.896   9.394  65.707  1.00  0.00    -0.085 C  
HETATM    2  C   UNL     1      -8.087   8.612  65.170  1.00  0.00    -0.143 C  
ENDROOT
BRANCH   2   3
HETATM    3  C   UNL     1      -9.398   9.061  65.824  1.00  0.00    -0.302 C  
BRANCH   3   4
HETATM    4  C   UNL     1      -9.346  10.497  66.373  1.00  0.00    -0.168 C  
BRANCH   4   5
HETATM    5  N   UNL     1      -9.400  10.606  67.839  1.00  0.00    -0.147 NA 
HETATM    6  C   UNL     1      -9.130  11.964  68.354  1.00  0.00    -0.167 C  
HETATM    7  C   UNL     1     -10.289  12.963  68.274  1.00  0.00    -0.248 C  
HETATM    8  C   UNL     1     -11.612  12.387  68.770  1.00  0.00    -0.373 C  
HETATM    9  C   UNL     1     -11.873  11.024  68.140  1.00  0.00    -0.195 C  
HETATM   10  C   UNL     1     -10.689  10.076  68.371  1.00  0.00    -0.234 C  
BRANCH  10  11
HETATM   11  C   UNL     1     -10.548   9.720  69.873  1.00  0.00    -0.265 C  
HETATM   12  N   UNL     1      -9.893   8.514  70.079  1.00  0.00    -0.177 N  
HETATM   13  O   UNL     1     -11.044  10.407  70.765  1.00  0.00    -0.304 OA 
HETATM   14  H   UNL     1      -9.438   8.042  69.298  1.00  0.00     0.000 HD 
BRANCH  12  15
HETATM   15  C   UNL     1      -9.854   7.945  71.361  1.00  0.00    -0.168 A  
HETATM   16  C   UNL     1     -10.930   7.155  71.805  1.00  0.00    -0.258 A  
HETATM   17  C   UNL     1     -12.200   6.980  71.030  1.00  0.00    -0.419 C  
HETATM   18  C   UNL     1     -10.858   6.611  73.100  1.00  0.00    -0.298 A  
HETATM   19  C   UNL     1      -9.737   6.820  73.906  1.00  0.00    -0.286 A  
HETATM   20  C   UNL     1      -8.672   7.580  73.441  1.00  0.00    -0.229 A  
HETATM   21  C   UNL     1      -8.715   8.156  72.168  1.00  0.00    -0.234 A  
HETATM   22  C   UNL     1      -7.540   8.959  71.680  1.00  0.00    -0.058 C  
ENDBRANCH  12  15
ENDBRANCH  10  11
ENDBRANCH   4   5
ENDBRANCH   3   4
ENDBRANCH   2   3
TORSDOF 5
ENDMDL
MODEL      182
REMARK 921   NORMALIZED FREE ENERGY PREDICTED BY IDOCK:   -3.48 KCAL/MOL
REMARK 922        TOTAL FREE ENERGY PREDICTED BY IDOCK:   -4.94 KCAL/MOL
REMARK 923 INTER-LIGAND FREE ENERGY PREDICTED BY IDOCK:   -4.93 KCAL/MOL
REMARK 924 INTRA-LIGAND FREE ENERGY PREDICTED BY IDOCK:   -0.01 KCAL/MOL
REMARK 927      BINDING AFFINITY PREDICTED BY RF-SCORE:    0.00 PKD
ROOT
HETATM    1  C   UNL     1     -10.612  19.436  67.012  1.00  0.00    -0.586 C  
HETATM    2  C   UNL     1      -9.909  18.965  68.278  1.00  0.00    -0.427 C  
ENDROOT
BRANCH   2   3
HETATM    3  C   UNL     1      -8.922  17.831  67.988  1.00  0.00    -0.263 C  
BRANCH   3   4
HETATM    4  C   UNL     1      -9.432  16.832  66.935  1.00  0.00    -0.241 C  
BRANCH   4   5
HETATM    5  N   UNL     1      -9.498  15.433  67.382  1.00  0.00    -0.205 NA 
HETATM    6  C   UNL     1     -10.383  15.211  68.544  1.00  0.00    -0.230 C  
HETATM    7  C   UNL     1     -11.886  15.148  68.250  1.00  0.00    -0.275 C  
HETATM    8  C   UNL     1     -12.227  14.258  67.060  1.00  0.00    -0.338 C  
HETATM    9  C   UNL     1     -11.337  14.591  65.869  1.00  0.00    -0.341 C  
HETATM   10  C   UNL     1      -9.854  14.522  66.255  1.00  0.00    -0.304 C  
BRANCH  10  11
HETATM   11  C   UNL     1      -9.431  13.067  66.582  1.00  0.00    -0.256 C  
HETATM   12  N   UNL     1      -9.164  12.876  67.930  1.00  0.00    -0.200 N  
HETATM   13  O   UNL     1      -9.276  12.213  65.710  1.00  0.00    -0.151 OA 
HETATM   14  H   UNL     1      -9.393  13.607  68.603  1.00  0.00     0.000 HD 
BRANCH  12  15
HETATM   15  C   UNL     1      -8.580  11.679  68.368  1.00  0.00    -0.156 A  
HETATM   16  C   UNL     1      -7.178  11.562  68.412  1.00  0.00    -0.089 A  
HETATM   17  C   UNL     1      -6.247  12.613  67.890  1.00  0.00    -0.108 C  
HETATM   18  C   UNL     1      -6.632  10.341  68.846  1.00  0.00    -0.052 A  
HETATM   19  C   UNL     1      -7.455   9.290  69.255  1.00  0.00    -0.075 A  
HETATM   20  C   UNL     1      -8.836   9.433  69.232  1.00  0.00    -0.150 A  
HETATM   21  C   UNL     1      -9.418  10.622  68.785  1.00  0.00    -0.186 A  
HETATM   22  C   UNL     1     -10.917  10.758  68.787  1.00  0.00    -0.295 C  
ENDBRANCH  12  15
ENDBRANCH  10  11
ENDBRANCH   4   5
ENDBRANCH   3   4
ENDBRANCH   2   3
TORSDOF 5
ENDMDL
MODEL      183
REMARK 921   NORMALIZED FREE ENERGY PREDICTED BY IDOCK:   -3.48 KCAL/MOL
REMARK 922        TOTAL FREE ENERGY PREDICTED BY IDOCK:   -4.94 KCAL/MOL
REMARK 923 INTER-LIGAND FREE ENERGY PREDICTED BY IDOCK:   -4.96 KCAL/MOL
REMARK 924 INTRA-LIGAND FREE ENERGY PREDICTED BY IDOCK:    0.03 KCAL/MOL
REMARK 927      BINDING AFFINITY PREDICTED BY RF-SCORE:    0.00 PKD
ROOT
HETATM    1  C   UNL     1     -12.163  12.495  63.660  1.00  0.00    -0.642 C  
HETATM    2  C   UNL     1     -11.156  11.545  64.295  1.00  0.00    -0.385 C  
ENDROOT
BRANCH   2   3
HETATM    3  C   UNL     1     -10.766  11.996  65.706  1.00  0.00    -0.319 C  
BRANCH   3   4
HETATM    4  C   UNL     1     -11.121  10.969  66.794  1.00  0.00    -0.172 C  
BRANCH   4   5
HETATM    5  N   UNL     1     -10.124   9.907  67.000  1.00  0.00    -0.206 NA 
HETATM    6  C   UNL     1      -8.733  10.324  66.729  1.00  0.00    -0.126 C  
HETATM    7  C   UNL     1      -8.041  11.134  67.831  1.00  0.00    -0.119 C  
HETATM    8  C   UNL     1      -8.227  10.536  69.222  1.00  0.00    -0.151 C  
HETATM    9  C   UNL     1      -9.693  10.204  69.471  1.00  0.00    -0.251 C  
HETATM   10  C   UNL     1     -10.249   9.305  68.359  1.00  0.00    -0.202 C  
BRANCH  10  11
HETATM   11  C   UNL     1      -9.587   7.904  68.393  1.00  0.00    -0.150 C  
HETATM   12  N   UNL     1     -10.514   6.872  68.380  1.00  0.00    -0.193 N  
HETATM   13  O   UNL     1      -8.371   7.751  68.504  1.00  0.00    -0.126 OA 
HETATM   14  H   UNL     1     -11.498   7.074  68.205  1.00  0.00     0.000 HD 
BRANCH  12  15
HETATM   15  C   UNL     1     -10.099   5.551  68.606  1.00  0.00    -0.183 A  
HETATM   16  C   UNL     1     -10.057   5.049  69.919  1.00  0.00    -0.344 A  
HETATM   17  C   UNL     1     -10.312   5.891  71.133  1.00  0.00    -0.276 C  
HETATM   18  C   UNL     1      -9.624   3.724  70.106  1.00  0.00    -0.258 A  
HETATM   19  C   UNL     1      -9.282   2.920  69.016  1.00  0.00    -0.222 A  
HETATM   20  C   UNL     1      -9.356   3.423  67.724  1.00  0.00    -0.243 A  
HETATM   21  C   UNL     1      -9.760   4.743  67.500  1.00  0.00    -0.209 A  
HETATM   22  C   UNL     1      -9.850   5.259  66.088  1.00  0.00    -0.186 C  
ENDBRANCH  12  15
ENDBRANCH  10  11
ENDBRANCH   4   5
ENDBRANCH   3   4
ENDBRANCH   2   3
TORSDOF 5
ENDMDL
MODEL      184
REMARK 921   NORMALIZED FREE ENERGY PREDICTED BY IDOCK:   -3.45 KCAL/MOL
REMARK 922        TOTAL FREE ENERGY PREDICTED BY IDOCK:   -4.90 KCAL/MOL
REMARK 923 INTER-LIGAND FREE ENERGY PREDICTED BY IDOCK:   -4.41 KCAL/MOL
REMARK 924 INTRA-LIGAND FREE ENERGY PREDICTED BY IDOCK:   -0.49 KCAL/MOL
REMARK 927      BINDING AFFINITY PREDICTED BY RF-SCORE:    0.00 PKD
ROOT
HETATM    1  C   UNL     1      -9.461  12.041  67.342  1.00  0.00    -0.177 C  
HETATM    2  C   UNL     1     -10.250  11.963  68.642  1.00  0.00    -0.202 C  
ENDROOT
BRANCH   2   3
HETATM    3  C   UNL     1     -11.037  10.653  68.748  1.00  0.00    -0.316 C  
BRANCH   3   4
HETATM    4  C   UNL     1     -12.035  10.634  69.918  1.00  0.00    -0.310 C  
BRANCH   4   5
HETATM    5  N   UNL     1     -11.604   9.862  71.093  1.00  0.00    -0.370 NA 
HETATM    6  C   UNL     1     -12.591   9.831  72.191  1.00  0.00    -0.284 C  
HETATM    7  C   UNL     1     -13.760   8.855  72.026  1.00  0.00    -0.509 C  
HETATM    8  C   UNL     1     -13.322   7.465  71.578  1.00  0.00    -0.435 C  
HETATM    9  C   UNL     1     -12.370   7.559  70.391  1.00  0.00     0.223 C  
HETATM   10  C   UNL     1     -11.187   8.482  70.708  1.00  0.00    -0.257 C  
BRANCH  10  11
HETATM   11  C   UNL     1     -10.280   7.866  71.805  1.00  0.00    -0.196 C  
HETATM   12  N   UNL     1      -9.890   6.567  71.511  1.00  0.00    -0.169 N  
HETATM   13  O   UNL     1     -10.018   8.455  72.852  1.00  0.00    -0.262 OA 
HETATM   14  H   UNL     1     -10.078   6.175  70.589  1.00  0.00     0.000 HD 
BRANCH  12  15
HETATM   15  C   UNL     1      -9.237   5.793  72.482  1.00  0.00    -0.142 A  
HETATM   16  C   UNL     1      -9.983   4.932  73.306  1.00  0.00    -0.181 A  
HETATM   17  C   UNL     1     -11.481   4.879  73.300  1.00  0.00    -0.359 C  
HETATM   18  C   UNL     1      -9.293   4.182  74.274  1.00  0.00    -0.120 A  
HETATM   19  C   UNL     1      -7.903   4.262  74.389  1.00  0.00    -0.087 A  
HETATM   20  C   UNL     1      -7.179   5.097  73.548  1.00  0.00    -0.083 A  
HETATM   21  C   UNL     1      -7.831   5.876  72.588  1.00  0.00    -0.101 A  
HETATM   22  C   UNL     1      -7.021   6.758  71.676  1.00  0.00    -0.070 C  
ENDBRANCH  12  15
ENDBRANCH  10  11
ENDBRANCH   4   5
ENDBRANCH   3   4
ENDBRANCH   2   3
TORSDOF 5
ENDMDL
MODEL      185
REMARK 921   NORMALIZED FREE ENERGY PREDICTED BY IDOCK:   -3.43 KCAL/MOL
REMARK 922        TOTAL FREE ENERGY PREDICTED BY IDOCK:   -4.87 KCAL/MOL
REMARK 923 INTER-LIGAND FREE ENERGY PREDICTED BY IDOCK:   -4.43 KCAL/MOL
REMARK 924 INTRA-LIGAND FREE ENERGY PREDICTED BY IDOCK:   -0.44 KCAL/MOL
REMARK 927      BINDING AFFINITY PREDICTED BY RF-SCORE:    0.00 PKD
ROOT
HETATM    1  C   UNL     1     -11.624  12.350  66.618  1.00  0.00    -0.447 C  
HETATM    2  C   UNL     1     -10.634  11.253  66.989  1.00  0.00    -0.287 C  
ENDROOT
BRANCH   2   3
HETATM    3  C   UNL     1     -11.119  10.438  68.192  1.00  0.00    -0.344 C  
BRANCH   3   4
HETATM    4  C   UNL     1     -10.048  10.261  69.281  1.00  0.00    -0.227 C  
BRANCH   4   5
HETATM    5  N   UNL     1      -9.693   8.867  69.587  1.00  0.00    -0.170 NA 
HETATM    6  C   UNL     1      -8.833   8.710  70.777  1.00  0.00    -0.175 C  
HETATM    7  C   UNL     1      -9.536   8.789  72.137  1.00  0.00    -0.325 C  
HETATM    8  C   UNL     1     -10.809   7.953  72.204  1.00  0.00    -0.327 C  
HETATM    9  C   UNL     1     -11.691   8.221  70.990  1.00  0.00    -0.293 C  
HETATM   10  C   UNL     1     -10.911   8.010  69.687  1.00  0.00    -0.169 C  
BRANCH  10  11
HETATM   11  C   UNL     1     -10.538   6.518  69.496  1.00  0.00    -0.246 C  
HETATM   12  N   UNL     1      -9.449   6.340  68.654  1.00  0.00    -0.122 N  
HETATM   13  O   UNL     1     -11.202   5.604  69.982  1.00  0.00    -0.267 OA 
HETATM   14  H   UNL     1      -8.901   7.146  68.355  1.00  0.00     0.000 HD 
BRANCH  12  15
HETATM   15  C   UNL     1      -9.103   5.054  68.216  1.00  0.00    -0.115 A  
HETATM   16  C   UNL     1      -9.651   4.553  67.021  1.00  0.00    -0.210 A  
HETATM   17  C   UNL     1     -10.704   5.271  66.233  1.00  0.00    -0.260 C  
HETATM   18  C   UNL     1      -9.288   3.255  66.621  1.00  0.00    -0.159 A  
HETATM   19  C   UNL     1      -8.382   2.500  67.369  1.00  0.00    -0.094 A  
HETATM   20  C   UNL     1      -7.828   3.021  68.531  1.00  0.00    -0.060 A  
HETATM   21  C   UNL     1      -8.182   4.298  68.974  1.00  0.00    -0.077 A  
HETATM   22  C   UNL     1      -7.553   4.848  70.226  1.00  0.00    -0.062 C  
ENDBRANCH  12  15
ENDBRANCH  10  11
ENDBRANCH   4   5
ENDBRANCH   3   4
ENDBRANCH   2   3
TORSDOF 5
ENDMDL
MODEL      186
REMARK 921   NORMALIZED FREE ENERGY PREDICTED BY IDOCK:   -3.43 KCAL/MOL
REMARK 922        TOTAL FREE ENERGY PREDICTED BY IDOCK:   -4.87 KCAL/MOL
REMARK 923 INTER-LIGAND FREE ENERGY PREDICTED BY IDOCK:   -4.43 KCAL/MOL
REMARK 924 INTRA-LIGAND FREE ENERGY PREDICTED BY IDOCK:   -0.44 KCAL/MOL
REMARK 927      BINDING AFFINITY PREDICTED BY RF-SCORE:    0.00 PKD
ROOT
HETATM    1  C   UNL     1      -7.878  10.996  67.471  1.00  0.00    -0.116 C  
HETATM    2  C   UNL     1      -8.082  10.168  66.210  1.00  0.00    -0.124 C  
ENDROOT
BRANCH   2   3
HETATM    3  C   UNL     1      -9.481   9.546  66.163  1.00  0.00    -0.281 C  
BRANCH   3   4
HETATM    4  C   UNL     1      -9.464   8.008  66.148  1.00  0.00    -0.122 C  
BRANCH   4   5
HETATM    5  N   UNL     1     -10.167   7.365  67.269  1.00  0.00    -0.231 NA 
HETATM    6  C   UNL     1     -11.123   6.316  66.862  1.00  0.00    -0.253 C  
HETATM    7  C   UNL     1     -10.521   4.952  66.507  1.00  0.00    -0.299 C  
HETATM    8  C   UNL     1      -9.497   4.465  67.526  1.00  0.00    -0.201 C  
HETATM    9  C   UNL     1      -8.491   5.565  67.843  1.00  0.00    -0.098 C  
HETATM   10  C   UNL     1      -9.203   6.849  68.285  1.00  0.00    -0.123 C  
BRANCH  10  11
HETATM   11  C   UNL     1      -9.911   6.651  69.650  1.00  0.00    -0.175 C  
HETATM   12  N   UNL     1      -9.026   6.347  70.674  1.00  0.00    -0.144 N  
HETATM   13  O   UNL     1     -11.135   6.682  69.769  1.00  0.00    -0.287 OA 
HETATM   14  H   UNL     1      -8.021   6.419  70.517  1.00  0.00     0.000 HD 
BRANCH  12  15
HETATM   15  C   UNL     1      -9.512   5.942  71.926  1.00  0.00    -0.151 A  
HETATM   16  C   UNL     1      -9.763   6.904  72.921  1.00  0.00    -0.183 A  
HETATM   17  C   UNL     1      -9.419   8.355  72.771  1.00  0.00    -0.312 C  
HETATM   18  C   UNL     1     -10.239   6.457  74.166  1.00  0.00    -0.361 A  
HETATM   19  C   UNL     1     -10.489   5.101  74.395  1.00  0.00    -0.294 A  
HETATM   20  C   UNL     1     -10.262   4.169  73.392  1.00  0.00    -0.215 A  
HETATM   21  C   UNL     1      -9.767   4.572  72.148  1.00  0.00    -0.220 A  
HETATM   22  C   UNL     1      -9.548   3.543  71.071  1.00  0.00    -0.243 C  
ENDBRANCH  12  15
ENDBRANCH  10  11
ENDBRANCH   4   5
ENDBRANCH   3   4
ENDBRANCH   2   3
TORSDOF 5
ENDMDL
MODEL      187
REMARK 921   NORMALIZED FREE ENERGY PREDICTED BY IDOCK:   -3.41 KCAL/MOL
REMARK 922        TOTAL FREE ENERGY PREDICTED BY IDOCK:   -4.84 KCAL/MOL
REMARK 923 INTER-LIGAND FREE ENERGY PREDICTED BY IDOCK:   -4.24 KCAL/MOL
REMARK 924 INTRA-LIGAND FREE ENERGY PREDICTED BY IDOCK:   -0.60 KCAL/MOL
REMARK 927      BINDING AFFINITY PREDICTED BY RF-SCORE:    0.00 PKD
ROOT
HETATM    1  C   UNL     1     -11.867  14.065  68.972  1.00  0.00    -0.391 C  
HETATM    2  C   UNL     1     -11.841  14.641  67.563  1.00  0.00    -0.375 C  
ENDROOT
BRANCH   2   3
HETATM    3  C   UNL     1     -11.896  13.539  66.501  1.00  0.00    -0.441 C  
BRANCH   3   4
HETATM    4  C   UNL     1     -11.877  12.120  67.092  1.00  0.00    -0.222 C  
BRANCH   4   5
HETATM    5  N   UNL     1     -10.702  11.311  66.736  1.00  0.00    -0.264 NA 
HETATM    6  C   UNL     1      -9.594  12.084  66.138  1.00  0.00    -0.239 C  
HETATM    7  C   UNL     1      -8.711  12.868  67.115  1.00  0.00    -0.205 C  
HETATM    8  C   UNL     1      -8.282  12.048  68.327  1.00  0.00    -0.161 C  
HETATM    9  C   UNL     1      -9.481  11.340  68.947  1.00  0.00    -0.102 C  
HETATM   10  C   UNL     1     -10.228  10.505  67.899  1.00  0.00    -0.183 C  
BRANCH  10  11
HETATM   11  C   UNL     1      -9.361   9.315  67.415  1.00  0.00    -0.127 C  
HETATM   12  N   UNL     1      -9.909   8.663  66.320  1.00  0.00    -0.373 N  
HETATM   13  O   UNL     1      -8.345   8.955  68.007  1.00  0.00    -0.120 OA 
HETATM   14  H   UNL     1     -10.709   9.067  65.834  1.00  0.00     0.000 HD 
BRANCH  12  15
HETATM   15  C   UNL     1      -9.362   7.449  65.878  1.00  0.00     0.101 A  
HETATM   16  C   UNL     1      -9.871   6.234  66.372  1.00  0.00    -0.128 A  
HETATM   17  C   UNL     1     -10.900   6.153  67.459  1.00  0.00    -0.422 C  
HETATM   18  C   UNL     1      -9.289   5.040  65.914  1.00  0.00    -0.165 A  
HETATM   19  C   UNL     1      -8.259   5.058  64.969  1.00  0.00    -0.133 A  
HETATM   20  C   UNL     1      -7.788   6.265  64.472  1.00  0.00    -0.115 A  
HETATM   21  C   UNL     1      -8.326   7.475  64.920  1.00  0.00    -0.045 A  
HETATM   22  C   UNL     1      -7.810   8.770  64.351  1.00  0.00    -0.132 C  
ENDBRANCH  12  15
ENDBRANCH  10  11
ENDBRANCH   4   5
ENDBRANCH   3   4
ENDBRANCH   2   3
TORSDOF 5
ENDMDL
MODEL      188
REMARK 921   NORMALIZED FREE ENERGY PREDICTED BY IDOCK:   -3.38 KCAL/MOL
REMARK 922        TOTAL FREE ENERGY PREDICTED BY IDOCK:   -4.80 KCAL/MOL
REMARK 923 INTER-LIGAND FREE ENERGY PREDICTED BY IDOCK:   -4.51 KCAL/MOL
REMARK 924 INTRA-LIGAND FREE ENERGY PREDICTED BY IDOCK:   -0.29 KCAL/MOL
REMARK 927      BINDING AFFINITY PREDICTED BY RF-SCORE:    0.00 PKD
ROOT
HETATM    1  C   UNL     1     -10.594  12.882  64.317  1.00  0.00    -0.430 C  
HETATM    2  C   UNL     1     -10.712  11.370  64.176  1.00  0.00    -0.434 C  
ENDROOT
BRANCH   2   3
HETATM    3  C   UNL     1      -9.347  10.684  64.290  1.00  0.00    -0.298 C  
BRANCH   3   4
HETATM    4  C   UNL     1      -9.433   9.236  64.801  1.00  0.00     0.094 C  
BRANCH   4   5
HETATM    5  N   UNL     1      -8.946   9.029  66.173  1.00  0.00    -0.165 NA 
HETATM    6  C   UNL     1      -8.188  10.170  66.725  1.00  0.00    -0.122 C  
HETATM    7  C   UNL     1      -9.018  11.351  67.239  1.00  0.00    -0.159 C  
HETATM    8  C   UNL     1     -10.185  10.924  68.123  1.00  0.00    -0.197 C  
HETATM    9  C   UNL     1     -10.976   9.801  67.463  1.00  0.00    -0.205 C  
HETATM   10  C   UNL     1     -10.058   8.631  67.086  1.00  0.00    -0.261 C  
BRANCH  10  11
HETATM   11  C   UNL     1      -9.496   7.934  68.351  1.00  0.00    -0.148 C  
HETATM   12  N   UNL     1     -10.492   7.540  69.233  1.00  0.00    -0.213 N  
HETATM   13  O   UNL     1      -8.290   7.829  68.566  1.00  0.00    -0.126 OA 
HETATM   14  H   UNL     1     -11.470   7.586  68.950  1.00  0.00     0.000 HD 
BRANCH  12  15
HETATM   15  C   UNL     1     -10.154   7.076  70.513  1.00  0.00    -0.191 A  
HETATM   16  C   UNL     1     -10.089   7.981  71.588  1.00  0.00    -0.238 A  
HETATM   17  C   UNL     1     -10.238   9.463  71.428  1.00  0.00    -0.297 C  
HETATM   18  C   UNL     1      -9.736   7.479  72.853  1.00  0.00    -0.259 A  
HETATM   19  C   UNL     1      -9.492   6.117  73.043  1.00  0.00    -0.142 A  
HETATM   20  C   UNL     1      -9.588   5.233  71.976  1.00  0.00    -0.189 A  
HETATM   21  C   UNL     1      -9.914   5.697  70.699  1.00  0.00    -0.260 A  
HETATM   22  C   UNL     1     -10.030   4.716  69.563  1.00  0.00    -0.266 C  
ENDBRANCH  12  15
ENDBRANCH  10  11
ENDBRANCH   4   5
ENDBRANCH   3   4
ENDBRANCH   2   3
TORSDOF 5
ENDMDL
MODEL      189
REMARK 921   NORMALIZED FREE ENERGY PREDICTED BY IDOCK:   -3.37 KCAL/MOL
REMARK 922        TOTAL FREE ENERGY PREDICTED BY IDOCK:   -4.80 KCAL/MOL
REMARK 923 INTER-LIGAND FREE ENERGY PREDICTED BY IDOCK:   -4.50 KCAL/MOL
REMARK 924 INTRA-LIGAND FREE ENERGY PREDICTED BY IDOCK:   -0.30 KCAL/MOL
REMARK 927      BINDING AFFINITY PREDICTED BY RF-SCORE:    0.00 PKD
ROOT
HETATM    1  C   UNL     1     -11.515  15.633  68.113  1.00  0.00    -0.325 C  
HETATM    2  C   UNL     1     -10.760  14.340  67.839  1.00  0.00    -0.244 C  
ENDROOT
BRANCH   2   3
HETATM    3  C   UNL     1     -11.702  13.222  67.379  1.00  0.00    -0.419 C  
BRANCH   3   4
HETATM    4  C   UNL     1     -11.749  12.028  68.346  1.00  0.00    -0.332 C  
BRANCH   4   5
HETATM    5  N   UNL     1     -11.277  10.752  67.786  1.00  0.00    -0.341 NA 
HETATM    6  C   UNL     1     -10.617  10.877  66.471  1.00  0.00    -0.237 C  
HETATM    7  C   UNL     1      -9.164  11.364  66.485  1.00  0.00    -0.200 C  
HETATM    8  C   UNL     1      -8.302  10.652  67.521  1.00  0.00    -0.115 C  
HETATM    9  C   UNL     1      -9.001  10.628  68.875  1.00  0.00    -0.172 C  
HETATM   10  C   UNL     1     -10.407  10.026  68.757  1.00  0.00    -0.198 C  
BRANCH  10  11
HETATM   11  C   UNL     1     -10.339   8.519  68.398  1.00  0.00    -0.202 C  
HETATM   12  N   UNL     1      -9.503   7.804  69.244  1.00  0.00    -0.155 N  
HETATM   13  O   UNL     1     -10.907   8.048  67.414  1.00  0.00    -0.231 OA 
HETATM   14  H   UNL     1      -9.131   8.245  70.085  1.00  0.00     0.000 HD 
BRANCH  12  15
HETATM   15  C   UNL     1      -9.170   6.475  68.944  1.00  0.00    -0.129 A  
HETATM   16  C   UNL     1      -9.895   5.424  69.536  1.00  0.00    -0.264 A  
HETATM   17  C   UNL     1     -10.942   5.634  70.587  1.00  0.00    -0.258 C  
HETATM   18  C   UNL     1      -9.523   4.106  69.219  1.00  0.00    -0.258 A  
HETATM   19  C   UNL     1      -8.489   3.848  68.315  1.00  0.00    -0.107 A  
HETATM   20  C   UNL     1      -7.803   4.898  67.719  1.00  0.00    -0.094 A  
HETATM   21  C   UNL     1      -8.128   6.222  68.026  1.00  0.00    -0.115 A  
HETATM   22  C   UNL     1      -7.382   7.342  67.352  1.00  0.00    -0.102 C  
ENDBRANCH  12  15
ENDBRANCH  10  11
ENDBRANCH   4   5
ENDBRANCH   3   4
ENDBRANCH   2   3
TORSDOF 5
ENDMDL
MODEL      190
REMARK 921   NORMALIZED FREE ENERGY PREDICTED BY IDOCK:   -3.37 KCAL/MOL
REMARK 922        TOTAL FREE ENERGY PREDICTED BY IDOCK:   -4.79 KCAL/MOL
REMARK 923 INTER-LIGAND FREE ENERGY PREDICTED BY IDOCK:   -4.36 KCAL/MOL
REMARK 924 INTRA-LIGAND FREE ENERGY PREDICTED BY IDOCK:   -0.44 KCAL/MOL
REMARK 927      BINDING AFFINITY PREDICTED BY RF-SCORE:    0.00 PKD
ROOT
HETATM    1  C   UNL     1      -7.701  10.333  65.439  1.00  0.00    -0.146 C  
HETATM    2  C   UNL     1      -8.286  10.027  66.811  1.00  0.00    -0.125 C  
ENDROOT
BRANCH   2   3
HETATM    3  C   UNL     1      -9.524  10.882  67.101  1.00  0.00    -0.178 C  
BRANCH   3   4
HETATM    4  C   UNL     1      -9.675  12.079  66.148  1.00  0.00    -0.238 C  
BRANCH   4   5
HETATM    5  N   UNL     1      -9.333  13.386  66.729  1.00  0.00    -0.254 NA 
HETATM    6  C   UNL     1      -9.687  14.539  65.876  1.00  0.00    -0.293 C  
HETATM    7  C   UNL     1     -11.160  14.962  65.886  1.00  0.00    -0.338 C  
HETATM    8  C   UNL     1     -11.748  15.054  67.290  1.00  0.00    -0.238 C  
HETATM    9  C   UNL     1     -11.418  13.802  68.093  1.00  0.00    -0.348 C  
HETATM   10  C   UNL     1      -9.908  13.535  68.098  1.00  0.00    -0.237 C  
BRANCH  10  11
HETATM   11  C   UNL     1      -9.152  14.635  68.885  1.00  0.00    -0.148 C  
HETATM   12  N   UNL     1      -7.889  14.892  68.370  1.00  0.00    -0.115 N  
HETATM   13  O   UNL     1      -9.610  15.151  69.904  1.00  0.00    -0.143 OA 
HETATM   14  H   UNL     1      -7.611  14.484  67.478  1.00  0.00     0.000 HD 
BRANCH  12  15
HETATM   15  C   UNL     1      -6.996  15.711  69.075  1.00  0.00    -0.145 A  
HETATM   16  C   UNL     1      -6.072  15.132  69.965  1.00  0.00    -0.148 A  
HETATM   17  C   UNL     1      -6.064  13.674  70.312  1.00  0.00    -0.121 C  
HETATM   18  C   UNL     1      -5.201  15.988  70.661  1.00  0.00    -0.175 A  
HETATM   19  C   UNL     1      -5.227  17.369  70.448  1.00  0.00    -0.251 A  
HETATM   20  C   UNL     1      -6.126  17.920  69.546  1.00  0.00    -0.249 A  
HETATM   21  C   UNL     1      -7.024  17.105  68.851  1.00  0.00    -0.232 A  
HETATM   22  C   UNL     1      -7.976  17.726  67.864  1.00  0.00    -0.233 C  
ENDBRANCH  12  15
ENDBRANCH  10  11
ENDBRANCH   4   5
ENDBRANCH   3   4
ENDBRANCH   2   3
TORSDOF 5
ENDMDL
MODEL      191
REMARK 921   NORMALIZED FREE ENERGY PREDICTED BY IDOCK:   -3.35 KCAL/MOL
REMARK 922        TOTAL FREE ENERGY PREDICTED BY IDOCK:   -4.76 KCAL/MOL
REMARK 923 INTER-LIGAND FREE ENERGY PREDICTED BY IDOCK:   -4.41 KCAL/MOL
REMARK 924 INTRA-LIGAND FREE ENERGY PREDICTED BY IDOCK:   -0.36 KCAL/MOL
REMARK 927      BINDING AFFINITY PREDICTED BY RF-SCORE:    0.00 PKD
ROOT
HETATM    1  C   UNL     1     -10.077   5.501  70.778  1.00  0.00    -0.277 C  
HETATM    2  C   UNL     1      -8.959   5.677  69.761  1.00  0.00    -0.140 C  
ENDROOT
BRANCH   2   3
HETATM    3  C   UNL     1      -8.557   7.148  69.612  1.00  0.00    -0.137 C  
BRANCH   3   4
HETATM    4  C   UNL     1      -7.316   7.354  68.727  1.00  0.00    -0.095 C  
BRANCH   4   5
HETATM    5  N   UNL     1      -7.316   8.591  67.931  1.00  0.00    -0.091 NA 
HETATM    6  C   UNL     1      -6.210   8.683  66.956  1.00  0.00    -0.056 C  
HETATM    7  C   UNL     1      -6.384   7.890  65.656  1.00  0.00    -0.042 C  
HETATM    8  C   UNL     1      -7.758   8.075  65.021  1.00  0.00    -0.112 C  
HETATM    9  C   UNL     1      -8.858   7.887  66.058  1.00  0.00    -0.191 C  
HETATM   10  C   UNL     1      -8.636   8.804  67.267  1.00  0.00    -0.121 C  
BRANCH  10  11
HETATM   11  C   UNL     1      -8.808  10.294  66.874  1.00  0.00    -0.132 C  
HETATM   12  N   UNL     1     -10.139  10.660  66.729  1.00  0.00    -0.216 N  
HETATM   13  O   UNL     1      -7.851  11.030  66.640  1.00  0.00    -0.141 OA 
HETATM   14  H   UNL     1     -10.878  10.019  67.018  1.00  0.00     0.000 HD 
BRANCH  12  15
HETATM   15  C   UNL     1     -10.469  11.910  66.185  1.00  0.00    -0.237 A  
HETATM   16  C   UNL     1     -10.678  13.009  67.039  1.00  0.00    -0.270 A  
HETATM   17  C   UNL     1     -10.697  12.899  68.533  1.00  0.00    -0.275 C  
HETATM   18  C   UNL     1     -11.019  14.242  66.456  1.00  0.00    -0.316 A  
HETATM   19  C   UNL     1     -11.109  14.380  65.069  1.00  0.00    -0.385 A  
HETATM   20  C   UNL     1     -10.871  13.292  64.240  1.00  0.00    -0.414 A  
HETATM   21  C   UNL     1     -10.553  12.044  64.782  1.00  0.00    -0.340 A  
HETATM   22  C   UNL     1     -10.281  10.885  63.861  1.00  0.00    -0.418 C  
ENDBRANCH  12  15
ENDBRANCH  10  11
ENDBRANCH   4   5
ENDBRANCH   3   4
ENDBRANCH   2   3
TORSDOF 5
ENDMDL
MODEL      192
REMARK 921   NORMALIZED FREE ENERGY PREDICTED BY IDOCK:   -3.34 KCAL/MOL
REMARK 922        TOTAL FREE ENERGY PREDICTED BY IDOCK:   -4.76 KCAL/MOL
REMARK 923 INTER-LIGAND FREE ENERGY PREDICTED BY IDOCK:   -4.44 KCAL/MOL
REMARK 924 INTRA-LIGAND FREE ENERGY PREDICTED BY IDOCK:   -0.31 KCAL/MOL
REMARK 927      BINDING AFFINITY PREDICTED BY RF-SCORE:    0.00 PKD
ROOT
HETATM    1  C   UNL     1      -6.803   8.000  65.352  1.00  0.00    -0.062 C  
HETATM    2  C   UNL     1      -8.243   7.639  65.014  1.00  0.00    -0.116 C  
ENDROOT
BRANCH   2   3
HETATM    3  C   UNL     1      -9.240   8.502  65.794  1.00  0.00    -0.210 C  
BRANCH   3   4
HETATM    4  C   UNL     1      -8.638   9.825  66.297  1.00  0.00    -0.127 C  
BRANCH   4   5
HETATM    5  N   UNL     1      -8.734  10.043  67.748  1.00  0.00    -0.125 NA 
HETATM    6  C   UNL     1      -8.204  11.345  68.201  1.00  0.00    -0.143 C  
HETATM    7  C   UNL     1      -9.119  12.558  67.996  1.00  0.00    -0.200 C  
HETATM    8  C   UNL     1     -10.554  12.308  68.445  1.00  0.00    -0.250 C  
HETATM    9  C   UNL     1     -11.072  10.991  67.880  1.00  0.00    -0.347 C  
HETATM   10  C   UNL     1     -10.129   9.833  68.234  1.00  0.00    -0.163 C  
BRANCH  10  11
HETATM   11  C   UNL     1     -10.135   9.558  69.759  1.00  0.00    -0.216 C  
HETATM   12  N   UNL     1      -9.508   8.366  70.092  1.00  0.00    -0.163 N  
HETATM   13  O   UNL     1     -10.713  10.291  70.560  1.00  0.00    -0.283 OA 
HETATM   14  H   UNL     1      -8.983   7.852  69.384  1.00  0.00     0.000 HD 
BRANCH  12  15
HETATM   15  C   UNL     1      -9.597   7.866  71.399  1.00  0.00    -0.153 A  
HETATM   16  C   UNL     1      -8.570   8.138  72.321  1.00  0.00    -0.234 A  
HETATM   17  C   UNL     1      -7.296   8.838  71.953  1.00  0.00    -0.050 C  
HETATM   18  C   UNL     1      -8.690   7.610  73.618  1.00  0.00    -0.283 A  
HETATM   19  C   UNL     1      -9.813   6.867  73.990  1.00  0.00    -0.354 A  
HETATM   20  C   UNL     1     -10.831   6.632  73.076  1.00  0.00    -0.297 A  
HETATM   21  C   UNL     1     -10.738   7.121  71.770  1.00  0.00    -0.241 A  
HETATM   22  C   UNL     1     -11.863   6.868  70.803  1.00  0.00    -0.427 C  
ENDBRANCH  12  15
ENDBRANCH  10  11
ENDBRANCH   4   5
ENDBRANCH   3   4
ENDBRANCH   2   3
TORSDOF 5
ENDMDL
MODEL      193
REMARK 921   NORMALIZED FREE ENERGY PREDICTED BY IDOCK:   -3.33 KCAL/MOL
REMARK 922        TOTAL FREE ENERGY PREDICTED BY IDOCK:   -4.74 KCAL/MOL
REMARK 923 INTER-LIGAND FREE ENERGY PREDICTED BY IDOCK:   -4.24 KCAL/MOL
REMARK 924 INTRA-LIGAND FREE ENERGY PREDICTED BY IDOCK:   -0.49 KCAL/MOL
REMARK 927      BINDING AFFINITY PREDICTED BY RF-SCORE:    0.00 PKD
ROOT
HETATM    1  C   UNL     1     -10.884  10.870  63.210  1.00  0.00     0.198 C  
HETATM    2  C   UNL     1     -12.179  11.670  63.190  1.00  0.00    -0.150 C  
ENDROOT
BRANCH   2   3
HETATM    3  C   UNL     1     -11.973  13.093  63.718  1.00  0.00    -0.572 C  
BRANCH   3   4
HETATM    4  C   UNL     1     -10.597  13.308  64.369  1.00  0.00    -0.419 C  
BRANCH   4   5
HETATM    5  N   UNL     1     -10.619  14.031  65.650  1.00  0.00    -0.295 NA 
HETATM    6  C   UNL     1     -11.712  13.623  66.556  1.00  0.00    -0.382 C  
HETATM    7  C   UNL     1     -11.495  12.322  67.337  1.00  0.00    -0.422 C  
HETATM    8  C   UNL     1     -10.117  12.234  67.984  1.00  0.00    -0.206 C  
HETATM    9  C   UNL     1      -9.028  12.587  66.979  1.00  0.00    -0.211 C  
HETATM   10  C   UNL     1      -9.296  13.954  66.336  1.00  0.00    -0.205 C  
BRANCH  10  11
HETATM   11  C   UNL     1      -9.160  15.094  67.377  1.00  0.00    -0.191 C  
HETATM   12  N   UNL     1      -9.795  16.262  66.980  1.00  0.00    -0.239 N  
HETATM   13  O   UNL     1      -8.487  14.978  68.400  1.00  0.00    -0.142 OA 
HETATM   14  H   UNL     1     -10.400  16.259  66.159  1.00  0.00     0.000 HD 
BRANCH  12  15
HETATM   15  C   UNL     1      -9.604  17.448  67.705  1.00  0.00    -0.261 A  
HETATM   16  C   UNL     1     -10.300  17.647  68.911  1.00  0.00    -0.323 A  
HETATM   17  C   UNL     1     -11.352  16.709  69.420  1.00  0.00     0.019 C  
HETATM   18  C   UNL     1     -10.091  18.853  69.602  1.00  0.00     0.352 A  
HETATM   19  C   UNL     1      -9.191  19.808  69.124  1.00  0.00    -0.090 A  
HETATM   20  C   UNL     1      -8.491  19.583  67.947  1.00  0.00    -0.353 A  
HETATM   21  C   UNL     1      -8.689  18.406  67.219  1.00  0.00    -0.261 A  
HETATM   22  C   UNL     1      -7.904  18.178  65.955  1.00  0.00    -0.088 C  
ENDBRANCH  12  15
ENDBRANCH  10  11
ENDBRANCH   4   5
ENDBRANCH   3   4
ENDBRANCH   2   3
TORSDOF 5
ENDMDL
MODEL      194
REMARK 921   NORMALIZED FREE ENERGY PREDICTED BY IDOCK:   -3.32 KCAL/MOL
REMARK 922        TOTAL FREE ENERGY PREDICTED BY IDOCK:   -4.73 KCAL/MOL
REMARK 923 INTER-LIGAND FREE ENERGY PREDICTED BY IDOCK:   -4.42 KCAL/MOL
REMARK 924 INTRA-LIGAND FREE ENERGY PREDICTED BY IDOCK:   -0.30 KCAL/MOL
REMARK 927      BINDING AFFINITY PREDICTED BY RF-SCORE:    0.00 PKD
ROOT
HETATM    1  C   UNL     1      -9.848   4.178  67.462  1.00  0.00    -0.139 C  
HETATM    2  C   UNL     1      -9.890   5.215  66.348  1.00  0.00    -0.211 C  
ENDROOT
BRANCH   2   3
HETATM    3  C   UNL     1      -8.521   5.866  66.131  1.00  0.00    -0.132 C  
BRANCH   3   4
HETATM    4  C   UNL     1      -8.598   7.226  65.417  1.00  0.00    -0.031 C  
BRANCH   4   5
HETATM    5  N   UNL     1      -8.722   8.392  66.305  1.00  0.00    -0.133 NA 
HETATM    6  C   UNL     1      -8.131   8.197  67.644  1.00  0.00    -0.127 C  
HETATM    7  C   UNL     1      -6.607   8.335  67.739  1.00  0.00    -0.061 C  
HETATM    8  C   UNL     1      -6.071   9.569  67.022  1.00  0.00    -0.063 C  
HETATM    9  C   UNL     1      -6.655   9.669  65.618  1.00  0.00    -0.078 C  
HETATM   10  C   UNL     1      -8.187   9.624  65.656  1.00  0.00    -0.120 C  
BRANCH  10  11
HETATM   11  C   UNL     1      -8.764  10.889  66.340  1.00  0.00    -0.170 C  
HETATM   12  N   UNL     1     -10.149  10.954  66.268  1.00  0.00    -0.226 N  
HETATM   13  O   UNL     1      -8.047  11.768  66.816  1.00  0.00    -0.166 OA 
HETATM   14  H   UNL     1     -10.679  10.151  65.932  1.00  0.00     0.000 HD 
BRANCH  12  15
HETATM   15  C   UNL     1     -10.819  12.123  66.658  1.00  0.00    -0.268 A  
HETATM   16  C   UNL     1     -11.222  12.283  67.996  1.00  0.00    -0.321 A  
HETATM   17  C   UNL     1     -11.092  11.206  69.030  1.00  0.00    -0.299 C  
HETATM   18  C   UNL     1     -11.901  13.463  68.345  1.00  0.00    -0.401 A  
HETATM   19  C   UNL     1     -12.136  14.464  67.398  1.00  0.00    -0.348 A  
HETATM   20  C   UNL     1     -11.705  14.302  66.088  1.00  0.00    -0.397 A  
HETATM   21  C   UNL     1     -11.047  13.132  65.697  1.00  0.00    -0.296 A  
HETATM   22  C   UNL     1     -10.574  12.990  64.275  1.00  0.00    -0.434 C  
ENDBRANCH  12  15
ENDBRANCH  10  11
ENDBRANCH   4   5
ENDBRANCH   3   4
ENDBRANCH   2   3
TORSDOF 5
ENDMDL
MODEL      195
REMARK 921   NORMALIZED FREE ENERGY PREDICTED BY IDOCK:   -3.30 KCAL/MOL
REMARK 922        TOTAL FREE ENERGY PREDICTED BY IDOCK:   -4.70 KCAL/MOL
REMARK 923 INTER-LIGAND FREE ENERGY PREDICTED BY IDOCK:   -4.30 KCAL/MOL
REMARK 924 INTRA-LIGAND FREE ENERGY PREDICTED BY IDOCK:   -0.40 KCAL/MOL
REMARK 927      BINDING AFFINITY PREDICTED BY RF-SCORE:    0.00 PKD
ROOT
HETATM    1  C   UNL     1     -10.715  13.053  67.097  1.00  0.00    -0.266 C  
HETATM    2  C   UNL     1     -11.435  12.626  68.369  1.00  0.00    -0.350 C  
ENDROOT
BRANCH   2   3
HETATM    3  C   UNL     1     -11.330  11.115  68.597  1.00  0.00    -0.342 C  
BRANCH   3   4
HETATM    4  C   UNL     1     -12.216  10.609  69.747  1.00  0.00    -0.247 C  
BRANCH   4   5
HETATM    5  N   UNL     1     -11.497   9.929  70.836  1.00  0.00    -0.347 NA 
HETATM    6  C   UNL     1     -12.332   9.632  72.018  1.00  0.00    -0.298 C  
HETATM    7  C   UNL     1     -13.248   8.409  71.910  1.00  0.00    -0.381 C  
HETATM    8  C   UNL     1     -12.543   7.178  71.351  1.00  0.00    -0.432 C  
HETATM    9  C   UNL     1     -11.767   7.532  70.089  1.00  0.00     0.029 C  
HETATM   10  C   UNL     1     -10.808   8.701  70.343  1.00  0.00    -0.227 C  
BRANCH  10  11
HETATM   11  C   UNL     1      -9.675   8.290  71.317  1.00  0.00    -0.176 C  
HETATM   12  N   UNL     1      -9.099   7.071  70.987  1.00  0.00    -0.151 N  
HETATM   13  O   UNL     1      -9.392   8.948  72.317  1.00  0.00    -0.360 OA 
HETATM   14  H   UNL     1      -9.329   6.624  70.100  1.00  0.00     0.000 HD 
BRANCH  12  15
HETATM   15  C   UNL     1      -8.200   6.456  71.870  1.00  0.00    -0.109 A  
HETATM   16  C   UNL     1      -6.861   6.885  71.915  1.00  0.00    -0.062 A  
HETATM   17  C   UNL     1      -6.288   7.896  70.969  1.00  0.00    -0.037 C  
HETATM   18  C   UNL     1      -5.989   6.235  72.806  1.00  0.00    -0.042 A  
HETATM   19  C   UNL     1      -6.448   5.218  73.647  1.00  0.00    -0.071 A  
HETATM   20  C   UNL     1      -7.779   4.826  73.609  1.00  0.00    -0.095 A  
HETATM   21  C   UNL     1      -8.672   5.432  72.721  1.00  0.00    -0.123 A  
HETATM   22  C   UNL     1     -10.114   5.002  72.713  1.00  0.00    -0.214 C  
ENDBRANCH  12  15
ENDBRANCH  10  11
ENDBRANCH   4   5
ENDBRANCH   3   4
ENDBRANCH   2   3
TORSDOF 5
ENDMDL
MODEL      196
REMARK 921   NORMALIZED FREE ENERGY PREDICTED BY IDOCK:   -3.26 KCAL/MOL
REMARK 922        TOTAL FREE ENERGY PREDICTED BY IDOCK:   -4.65 KCAL/MOL
REMARK 923 INTER-LIGAND FREE ENERGY PREDICTED BY IDOCK:   -4.34 KCAL/MOL
REMARK 924 INTRA-LIGAND FREE ENERGY PREDICTED BY IDOCK:   -0.30 KCAL/MOL
REMARK 927      BINDING AFFINITY PREDICTED BY RF-SCORE:    0.00 PKD
ROOT
HETATM    1  C   UNL     1     -11.880  14.439  64.457  1.00  0.00    -0.463 C  
HETATM    2  C   UNL     1     -12.324  13.392  63.445  1.00  0.00    -0.343 C  
ENDROOT
BRANCH   2   3
HETATM    3  C   UNL     1     -11.491  12.111  63.555  1.00  0.00    -0.544 C  
BRANCH   3   4
HETATM    4  C   UNL     1     -10.629  12.051  64.827  1.00  0.00    -0.297 C  
BRANCH   4   5
HETATM    5  N   UNL     1     -10.280  10.697  65.281  1.00  0.00    -0.290 NA 
HETATM    6  C   UNL     1      -9.471   9.925  64.315  1.00  0.00    -0.216 C  
HETATM    7  C   UNL     1      -7.975  10.254  64.269  1.00  0.00    -0.132 C  
HETATM    8  C   UNL     1      -7.337  10.339  65.651  1.00  0.00    -0.149 C  
HETATM    9  C   UNL     1      -8.175  11.214  66.576  1.00  0.00    -0.167 C  
HETATM   10  C   UNL     1      -9.629  10.728  66.623  1.00  0.00    -0.178 C  
BRANCH  10  11
HETATM   11  C   UNL     1      -9.731   9.340  67.306  1.00  0.00    -0.167 C  
HETATM   12  N   UNL     1      -8.615   9.037  68.074  1.00  0.00    -0.129 N  
HETATM   13  O   UNL     1     -10.671   8.573  67.105  1.00  0.00    -0.280 OA 
HETATM   14  H   UNL     1      -7.914   9.754  68.258  1.00  0.00     0.000 HD 
BRANCH  12  15
HETATM   15  C   UNL     1      -8.452   7.746  68.597  1.00  0.00    -0.129 A  
HETATM   16  C   UNL     1      -8.939   7.449  69.883  1.00  0.00    -0.141 A  
HETATM   17  C   UNL     1      -9.522   8.478  70.802  1.00  0.00    -0.213 C  
HETATM   18  C   UNL     1      -8.745   6.147  70.377  1.00  0.00    -0.142 A  
HETATM   19  C   UNL     1      -8.121   5.168  69.599  1.00  0.00    -0.089 A  
HETATM   20  C   UNL     1      -7.672   5.472  68.321  1.00  0.00    -0.085 A  
HETATM   21  C   UNL     1      -7.825   6.761  67.803  1.00  0.00    -0.113 A  
HETATM   22  C   UNL     1      -7.347   7.060  66.407  1.00  0.00    -0.080 C  
ENDBRANCH  12  15
ENDBRANCH  10  11
ENDBRANCH   4   5
ENDBRANCH   3   4
ENDBRANCH   2   3
TORSDOF 5
ENDMDL
MODEL      197
REMARK 921   NORMALIZED FREE ENERGY PREDICTED BY IDOCK:   -3.23 KCAL/MOL
REMARK 922        TOTAL FREE ENERGY PREDICTED BY IDOCK:   -4.61 KCAL/MOL
REMARK 923 INTER-LIGAND FREE ENERGY PREDICTED BY IDOCK:   -4.18 KCAL/MOL
REMARK 924 INTRA-LIGAND FREE ENERGY PREDICTED BY IDOCK:   -0.43 KCAL/MOL
REMARK 927      BINDING AFFINITY PREDICTED BY RF-SCORE:    0.00 PKD
ROOT
HETATM    1  C   UNL     1      -7.545  11.332  69.045  1.00  0.00    -0.106 C  
HETATM    2  C   UNL     1      -6.837  10.058  69.484  1.00  0.00    -0.071 C  
ENDROOT
BRANCH   2   3
HETATM    3  C   UNL     1      -7.387   9.534  70.814  1.00  0.00    -0.103 C  
BRANCH   3   4
HETATM    4  C   UNL     1      -8.236   8.260  70.664  1.00  0.00    -0.112 C  
BRANCH   4   5
HETATM    5  N   UNL     1      -8.562   7.887  69.280  1.00  0.00    -0.137 NA 
HETATM    6  C   UNL     1      -8.383   6.451  68.983  1.00  0.00    -0.118 C  
HETATM    7  C   UNL     1      -9.501   5.516  69.458  1.00  0.00    -0.185 C  
HETATM    8  C   UNL     1     -10.896   6.028  69.118  1.00  0.00    -0.422 C  
HETATM    9  C   UNL     1     -11.045   7.490  69.522  1.00  0.00    -0.063 C  
HETATM   10  C   UNL     1      -9.931   8.346  68.906  1.00  0.00    -0.187 C  
BRANCH  10  11
HETATM   11  C   UNL     1     -10.075   8.418  67.364  1.00  0.00    -0.236 C  
HETATM   12  N   UNL     1      -9.235   9.363  66.790  1.00  0.00    -0.138 N  
HETATM   13  O   UNL     1     -10.910   7.759  66.747  1.00  0.00    -0.254 OA 
HETATM   14  H   UNL     1      -8.515   9.813  67.355  1.00  0.00     0.000 HD 
BRANCH  12  15
HETATM   15  C   UNL     1      -9.377   9.699  65.436  1.00  0.00    -0.259 A  
HETATM   16  C   UNL     1     -10.281  10.708  65.058  1.00  0.00    -0.380 A  
HETATM   17  C   UNL     1     -11.219  11.376  66.018  1.00  0.00    -0.177 C  
HETATM   18  C   UNL     1     -10.402  11.007  63.690  1.00  0.00    -0.415 A  
HETATM   19  C   UNL     1      -9.620  10.348  62.738  1.00  0.00    -0.311 A  
HETATM   20  C   UNL     1      -8.712   9.375  63.132  1.00  0.00    -0.222 A  
HETATM   21  C   UNL     1      -8.579   9.033  64.480  1.00  0.00    -0.181 A  
HETATM   22  C   UNL     1      -7.573   7.987  64.883  1.00  0.00    -0.106 C  
ENDBRANCH  12  15
ENDBRANCH  10  11
ENDBRANCH   4   5
ENDBRANCH   3   4
ENDBRANCH   2   3
TORSDOF 5
ENDMDL
MODEL      198
REMARK 921   NORMALIZED FREE ENERGY PREDICTED BY IDOCK:   -3.21 KCAL/MOL
REMARK 922        TOTAL FREE ENERGY PREDICTED BY IDOCK:   -4.58 KCAL/MOL
REMARK 923 INTER-LIGAND FREE ENERGY PREDICTED BY IDOCK:   -4.31 KCAL/MOL
REMARK 924 INTRA-LIGAND FREE ENERGY PREDICTED BY IDOCK:   -0.27 KCAL/MOL
REMARK 927      BINDING AFFINITY PREDICTED BY RF-SCORE:    0.00 PKD
ROOT
HETATM    1  C   UNL     1      -7.819   7.184  64.588  1.00  0.00    -0.123 C  
HETATM    2  C   UNL     1      -6.505   7.428  65.318  1.00  0.00    -0.041 C  
ENDROOT
BRANCH   2   3
HETATM    3  C   UNL     1      -6.713   7.552  66.830  1.00  0.00    -0.066 C  
BRANCH   3   4
HETATM    4  C   UNL     1      -8.147   7.222  67.278  1.00  0.00    -0.112 C  
BRANCH   4   5
HETATM    5  N   UNL     1      -9.064   8.370  67.329  1.00  0.00    -0.135 NA 
HETATM    6  C   UNL     1     -10.327   8.104  68.046  1.00  0.00    -0.211 C  
HETATM    7  C   UNL     1     -10.259   8.139  69.577  1.00  0.00    -0.213 C  
HETATM    8  C   UNL     1      -9.510   9.353  70.116  1.00  0.00    -0.276 C  
HETATM    9  C   UNL     1      -8.179   9.527  69.393  1.00  0.00    -0.126 C  
HETATM   10  C   UNL     1      -8.382   9.581  67.874  1.00  0.00    -0.115 C  
BRANCH  10  11
HETATM   11  C   UNL     1      -9.148  10.864  67.461  1.00  0.00    -0.140 C  
HETATM   12  N   UNL     1      -9.149  11.832  68.455  1.00  0.00    -0.302 N  
HETATM   13  O   UNL     1      -9.753  10.958  66.394  1.00  0.00    -0.190 OA 
HETATM   14  H   UNL     1      -8.560  11.716  69.279  1.00  0.00     0.000 HD 
BRANCH  12  15
HETATM   15  C   UNL     1      -9.960  12.969  68.328  1.00  0.00    -0.235 A  
HETATM   16  C   UNL     1     -11.319  12.902  68.686  1.00  0.00    -0.327 A  
HETATM   17  C   UNL     1     -12.003  11.630  69.085  1.00  0.00    -0.378 C  
HETATM   18  C   UNL     1     -12.100  14.060  68.533  1.00  0.00    -0.329 A  
HETATM   19  C   UNL     1     -11.535  15.253  68.074  1.00  0.00    -0.351 A  
HETATM   20  C   UNL     1     -10.186  15.309  67.752  1.00  0.00    -0.237 A  
HETATM   21  C   UNL     1      -9.381  14.173  67.869  1.00  0.00    -0.204 A  
HETATM   22  C   UNL     1      -7.917  14.265  67.531  1.00  0.00    -0.203 C  
ENDBRANCH  12  15
ENDBRANCH  10  11
ENDBRANCH   4   5
ENDBRANCH   3   4
ENDBRANCH   2   3
TORSDOF 5
ENDMDL
MODEL      199
REMARK 921   NORMALIZED FREE ENERGY PREDICTED BY IDOCK:   -3.16 KCAL/MOL
REMARK 922        TOTAL FREE ENERGY PREDICTED BY IDOCK:   -4.52 KCAL/MOL
REMARK 923 INTER-LIGAND FREE ENERGY PREDICTED BY IDOCK:   -4.16 KCAL/MOL
REMARK 924 INTRA-LIGAND FREE ENERGY PREDICTED BY IDOCK:   -0.36 KCAL/MOL
REMARK 927      BINDING AFFINITY PREDICTED BY RF-SCORE:    0.00 PKD
ROOT
HETATM    1  C   UNL     1     -12.263  12.464  63.671  1.00  0.00    -0.653 C  
HETATM    2  C   UNL     1     -11.002  12.715  64.486  1.00  0.00    -0.365 C  
ENDROOT
BRANCH   2   3
HETATM    3  C   UNL     1     -11.318  13.407  65.816  1.00  0.00    -0.322 C  
BRANCH   3   4
HETATM    4  C   UNL     1     -11.063  12.515  67.043  1.00  0.00    -0.281 C  
BRANCH   4   5
HETATM    5  N   UNL     1     -10.081  11.440  66.839  1.00  0.00    -0.209 NA 
HETATM    6  C   UNL     1      -8.714  11.777  67.285  1.00  0.00    -0.163 C  
HETATM    7  C   UNL     1      -8.449  11.682  68.791  1.00  0.00    -0.027 C  
HETATM    8  C   UNL     1      -8.981  10.395  69.413  1.00  0.00    -0.168 C  
HETATM    9  C   UNL     1     -10.420  10.145  68.981  1.00  0.00    -0.239 C  
HETATM   10  C   UNL     1     -10.546  10.162  67.453  1.00  0.00    -0.272 C  
BRANCH  10  11
HETATM   11  C   UNL     1      -9.802   8.957  66.821  1.00  0.00    -0.241 C  
HETATM   12  N   UNL     1      -9.621   7.910  67.713  1.00  0.00    -0.144 N  
HETATM   13  O   UNL     1      -9.355   8.984  65.675  1.00  0.00    -0.236 OA 
HETATM   14  H   UNL     1     -10.089   7.927  68.619  1.00  0.00     0.000 HD 
BRANCH  12  15
HETATM   15  C   UNL     1      -8.797   6.828  67.370  1.00  0.00    -0.117 A  
HETATM   16  C   UNL     1      -9.367   5.661  66.829  1.00  0.00    -0.139 A  
HETATM   17  C   UNL     1     -10.845   5.445  66.709  1.00  0.00    -0.190 C  
HETATM   18  C   UNL     1      -8.508   4.595  66.509  1.00  0.00    -0.109 A  
HETATM   19  C   UNL     1      -7.127   4.705  66.689  1.00  0.00    -0.071 A  
HETATM   20  C   UNL     1      -6.579   5.875  67.198  1.00  0.00    -0.056 A  
HETATM   21  C   UNL     1      -7.402   6.949  67.550  1.00  0.00    -0.096 A  
HETATM   22  C   UNL     1      -6.781   8.213  68.081  1.00  0.00    -0.061 C  
ENDBRANCH  12  15
ENDBRANCH  10  11
ENDBRANCH   4   5
ENDBRANCH   3   4
ENDBRANCH   2   3
TORSDOF 5
ENDMDL
MODEL      200
REMARK 921   NORMALIZED FREE ENERGY PREDICTED BY IDOCK:   -3.16 KCAL/MOL
REMARK 922        TOTAL FREE ENERGY PREDICTED BY IDOCK:   -4.52 KCAL/MOL
REMARK 923 INTER-LIGAND FREE ENERGY PREDICTED BY IDOCK:   -4.78 KCAL/MOL
REMARK 924 INTRA-LIGAND FREE ENERGY PREDICTED BY IDOCK:    0.26 KCAL/MOL
REMARK 927      BINDING AFFINITY PREDICTED BY RF-SCORE:    0.00 PKD
ROOT
HETATM    1  C   UNL     1     -10.708  11.479  63.302  1.00  0.00    -0.374 C  
HETATM    2  C   UNL     1     -11.539  12.094  64.420  1.00  0.00    -0.422 C  
ENDROOT
BRANCH   2   3
HETATM    3  C   UNL     1     -12.214  13.394  63.972  1.00  0.00    -0.466 C  
BRANCH   3   4
HETATM    4  C   UNL     1     -12.102  14.527  65.006  1.00  0.00    -0.389 C  
BRANCH   4   5
HETATM    5  N   UNL     1     -10.912  14.469  65.869  1.00  0.00    -0.313 NA 
HETATM    6  C   UNL     1      -9.924  15.535  65.608  1.00  0.00    -0.360 C  
HETATM    7  C   UNL     1     -10.239  16.913  66.200  1.00  0.00    -0.352 C  
HETATM    8  C   UNL     1     -10.681  16.851  67.658  1.00  0.00    -0.290 C  
HETATM    9  C   UNL     1     -11.759  15.791  67.848  1.00  0.00    -0.048 C  
HETATM   10  C   UNL     1     -11.293  14.432  67.311  1.00  0.00    -0.342 C  
BRANCH  10  11
HETATM   11  C   UNL     1     -10.127  13.868  68.163  1.00  0.00    -0.250 C  
HETATM   12  N   UNL     1      -8.881  14.149  67.621  1.00  0.00    -0.184 N  
HETATM   13  O   UNL     1     -10.314  13.177  69.164  1.00  0.00    -0.025 OA 
HETATM   14  H   UNL     1      -8.802  14.794  66.835  1.00  0.00     0.000 HD 
BRANCH  12  15
HETATM   15  C   UNL     1      -7.731  13.546  68.152  1.00  0.00    -0.139 A  
HETATM   16  C   UNL     1      -6.958  14.236  69.103  1.00  0.00    -0.118 A  
HETATM   17  C   UNL     1      -7.219  15.657  69.503  1.00  0.00    -0.198 C  
HETATM   18  C   UNL     1      -5.807  13.603  69.603  1.00  0.00    -0.108 A  
HETATM   19  C   UNL     1      -5.462  12.313  69.193  1.00  0.00    -0.064 A  
HETATM   20  C   UNL     1      -6.252  11.635  68.275  1.00  0.00    -0.049 A  
HETATM   21  C   UNL     1      -7.392  12.240  67.738  1.00  0.00    -0.118 A  
HETATM   22  C   UNL     1      -8.242  11.477  66.757  1.00  0.00    -0.164 C  
ENDBRANCH  12  15
ENDBRANCH  10  11
ENDBRANCH   4   5
ENDBRANCH   3   4
ENDBRANCH   2   3
TORSDOF 5
ENDMDL
MODEL      201
REMARK 921   NORMALIZED FREE ENERGY PREDICTED BY IDOCK:   -3.15 KCAL/MOL
REMARK 922        TOTAL FREE ENERGY PREDICTED BY IDOCK:   -4.51 KCAL/MOL
REMARK 923 INTER-LIGAND FREE ENERGY PREDICTED BY IDOCK:   -4.26 KCAL/MOL
REMARK 924 INTRA-LIGAND FREE ENERGY PREDICTED BY IDOCK:   -0.26 KCAL/MOL
REMARK 927      BINDING AFFINITY PREDICTED BY RF-SCORE:    0.00 PKD
ROOT
HETATM    1  C   UNL     1     -12.674  12.990  64.853  1.00  0.00    -0.456 C  
HETATM    2  C   UNL     1     -11.610  12.097  65.476  1.00  0.00    -0.398 C  
ENDROOT
BRANCH   2   3
HETATM    3  C   UNL     1     -11.268  12.536  66.903  1.00  0.00    -0.354 C  
BRANCH   3   4
HETATM    4  C   UNL     1     -11.474  11.427  67.948  1.00  0.00    -0.291 C  
BRANCH   4   5
HETATM    5  N   UNL     1     -10.630  10.236  67.768  1.00  0.00    -0.230 NA 
HETATM    6  C   UNL     1      -9.208  10.536  67.506  1.00  0.00    -0.142 C  
HETATM    7  C   UNL     1      -8.358  10.906  68.726  1.00  0.00    -0.151 C  
HETATM    8  C   UNL     1      -8.563   9.965  69.908  1.00  0.00    -0.216 C  
HETATM    9  C   UNL     1     -10.049   9.760  70.179  1.00  0.00    -0.317 C  
HETATM   10  C   UNL     1     -10.778   9.292  68.914  1.00  0.00    -0.156 C  
BRANCH  10  11
HETATM   11  C   UNL     1     -10.322   7.868  68.504  1.00  0.00    -0.200 C  
HETATM   12  N   UNL     1      -9.363   7.345  69.358  1.00  0.00    -0.155 N  
HETATM   13  O   UNL     1     -10.721   7.317  67.479  1.00  0.00    -0.254 OA 
HETATM   14  H   UNL     1      -9.141   7.825  70.230  1.00  0.00     0.000 HD 
BRANCH  12  15
HETATM   15  C   UNL     1      -8.697   6.156  69.025  1.00  0.00    -0.124 A  
HETATM   16  C   UNL     1      -7.540   6.205  68.226  1.00  0.00    -0.098 A  
HETATM   17  C   UNL     1      -7.031   7.462  67.589  1.00  0.00    -0.079 C  
HETATM   18  C   UNL     1      -6.908   4.991  67.905  1.00  0.00    -0.060 A  
HETATM   19  C   UNL     1      -7.395   3.776  68.394  1.00  0.00    -0.054 A  
HETATM   20  C   UNL     1      -8.522   3.749  69.204  1.00  0.00    -0.100 A  
HETATM   21  C   UNL     1      -9.191   4.933  69.527  1.00  0.00    -0.171 A  
HETATM   22  C   UNL     1     -10.400   4.878  70.423  1.00  0.00    -0.248 C  
ENDBRANCH  12  15
ENDBRANCH  10  11
ENDBRANCH   4   5
ENDBRANCH   3   4
ENDBRANCH   2   3
TORSDOF 5
ENDMDL
MODEL      202
REMARK 921   NORMALIZED FREE ENERGY PREDICTED BY IDOCK:   -3.11 KCAL/MOL
REMARK 922        TOTAL FREE ENERGY PREDICTED BY IDOCK:   -4.46 KCAL/MOL
REMARK 923 INTER-LIGAND FREE ENERGY PREDICTED BY IDOCK:   -4.76 KCAL/MOL
REMARK 924 INTRA-LIGAND FREE ENERGY PREDICTED BY IDOCK:    0.30 KCAL/MOL
REMARK 927      BINDING AFFINITY PREDICTED BY RF-SCORE:    0.00 PKD
ROOT
HETATM    1  C   UNL     1     -10.730   6.710  68.305  1.00  0.00    -0.317 C  
HETATM    2  C   UNL     1     -10.319   7.390  67.006  1.00  0.00    -0.384 C  
ENDROOT
BRANCH   2   3
HETATM    3  C   UNL     1     -10.557   8.902  67.061  1.00  0.00    -0.279 C  
BRANCH   3   4
HETATM    4  C   UNL     1      -9.329   9.696  67.536  1.00  0.00    -0.130 C  
BRANCH   4   5
HETATM    5  N   UNL     1      -9.631  10.936  68.267  1.00  0.00    -0.161 NA 
HETATM    6  C   UNL     1      -8.501  11.462  69.059  1.00  0.00     0.060 C  
HETATM    7  C   UNL     1      -7.427  12.230  68.280  1.00  0.00    -0.119 C  
HETATM    8  C   UNL     1      -8.007  13.254  67.310  1.00  0.00    -0.134 C  
HETATM    9  C   UNL     1      -9.111  12.628  66.466  1.00  0.00    -0.163 C  
HETATM   10  C   UNL     1     -10.181  11.981  67.355  1.00  0.00    -0.200 C  
BRANCH  10  11
HETATM   11  C   UNL     1     -10.955  13.052  68.164  1.00  0.00    -0.244 C  
HETATM   12  N   UNL     1     -10.512  13.158  69.475  1.00  0.00    -0.230 N  
HETATM   13  O   UNL     1     -11.911  13.669  67.697  1.00  0.00    -0.360 OA 
HETATM   14  H   UNL     1      -9.664  12.673  69.766  1.00  0.00     0.000 HD 
BRANCH  12  15
HETATM   15  C   UNL     1     -11.230  13.932  70.398  1.00  0.00     0.266 A  
HETATM   16  C   UNL     1     -10.933  15.300  70.542  1.00  0.00    -0.318 A  
HETATM   17  C   UNL     1      -9.789  15.973  69.846  1.00  0.00     0.003 C  
HETATM   18  C   UNL     1     -11.667  16.039  71.487  1.00  0.00    -0.554 A  
HETATM   19  C   UNL     1     -12.684  15.440  72.234  1.00  0.00    -0.466 A  
HETATM   20  C   UNL     1     -12.983  14.096  72.059  1.00  0.00    -0.444 A  
HETATM   21  C   UNL     1     -12.260  13.322  71.146  1.00  0.00    -0.206 A  
HETATM   22  C   UNL     1     -12.616  11.871  70.962  1.00  0.00    -0.381 C  
ENDBRANCH  12  15
ENDBRANCH  10  11
ENDBRANCH   4   5
ENDBRANCH   3   4
ENDBRANCH   2   3
TORSDOF 5
ENDMDL
MODEL      203
REMARK 921   NORMALIZED FREE ENERGY PREDICTED BY IDOCK:   -3.09 KCAL/MOL
REMARK 922        TOTAL FREE ENERGY PREDICTED BY IDOCK:   -4.43 KCAL/MOL
REMARK 923 INTER-LIGAND FREE ENERGY PREDICTED BY IDOCK:   -4.21 KCAL/MOL
REMARK 924 INTRA-LIGAND FREE ENERGY PREDICTED BY IDOCK:   -0.22 KCAL/MOL
REMARK 927      BINDING AFFINITY PREDICTED BY RF-SCORE:    0.00 PKD
ROOT
HETATM    1  C   UNL     1      -6.773   7.603  64.979  1.00  0.00    -0.047 C  
HETATM    2  C   UNL     1      -8.136   8.280  65.030  1.00  0.00    -0.148 C  
ENDROOT
BRANCH   2   3
HETATM    3  C   UNL     1      -8.119   9.636  64.317  1.00  0.00    -0.146 C  
BRANCH   3   4
HETATM    4  C   UNL     1      -7.916  10.825  65.271  1.00  0.00     0.009 C  
BRANCH   4   5
HETATM    5  N   UNL     1      -8.543  10.679  66.593  1.00  0.00    -0.135 NA 
HETATM    6  C   UNL     1      -8.294  11.809  67.509  1.00  0.00    -0.154 C  
HETATM    7  C   UNL     1      -9.145  13.064  67.286  1.00  0.00    -0.209 C  
HETATM    8  C   UNL     1     -10.628  12.758  67.104  1.00  0.00    -0.249 C  
HETATM    9  C   UNL     1     -10.824  11.640  66.087  1.00  0.00    -0.343 C  
HETATM   10  C   UNL     1     -10.004  10.401  66.468  1.00  0.00    -0.217 C  
BRANCH  10  11
HETATM   11  C   UNL     1     -10.544   9.756  67.770  1.00  0.00    -0.266 C  
HETATM   12  N   UNL     1      -9.759   8.701  68.212  1.00  0.00    -0.151 N  
HETATM   13  O   UNL     1     -11.603  10.105  68.291  1.00  0.00    -0.193 OA 
HETATM   14  H   UNL     1      -8.854   8.522  67.776  1.00  0.00     0.000 HD 
BRANCH  12  15
HETATM   15  C   UNL     1     -10.207   7.881  69.258  1.00  0.00    -0.216 A  
HETATM   16  C   UNL     1     -10.817   6.648  68.965  1.00  0.00    -0.324 A  
HETATM   17  C   UNL     1     -11.142   6.199  67.573  1.00  0.00    -0.318 C  
HETATM   18  C   UNL     1     -11.263   5.860  70.041  1.00  0.00    -0.341 A  
HETATM   19  C   UNL     1     -11.073   6.273  71.362  1.00  0.00    -0.339 A  
HETATM   20  C   UNL     1     -10.442   7.479  71.633  1.00  0.00    -0.226 A  
HETATM   21  C   UNL     1     -10.006   8.302  70.591  1.00  0.00    -0.204 A  
HETATM   22  C   UNL     1      -9.308   9.597  70.912  1.00  0.00     0.004 C  
ENDBRANCH  12  15
ENDBRANCH  10  11
ENDBRANCH   4   5
ENDBRANCH   3   4
ENDBRANCH   2   3
TORSDOF 5
ENDMDL
MODEL      204
REMARK 921   NORMALIZED FREE ENERGY PREDICTED BY IDOCK:   -3.08 KCAL/MOL
REMARK 922        TOTAL FREE ENERGY PREDICTED BY IDOCK:   -4.42 KCAL/MOL
REMARK 923 INTER-LIGAND FREE ENERGY PREDICTED BY IDOCK:   -4.04 KCAL/MOL
REMARK 924 INTRA-LIGAND FREE ENERGY PREDICTED BY IDOCK:   -0.38 KCAL/MOL
REMARK 927      BINDING AFFINITY PREDICTED BY RF-SCORE:    0.00 PKD
ROOT
HETATM    1  C   UNL     1      -5.887  12.273  69.743  1.00  0.00    -0.123 C  
HETATM    2  C   UNL     1      -7.077  12.867  69.000  1.00  0.00    -0.024 C  
ENDROOT
BRANCH   2   3
HETATM    3  C   UNL     1      -7.277  12.205  67.634  1.00  0.00    -0.123 C  
BRANCH   3   4
HETATM    4  C   UNL     1      -8.755  12.083  67.226  1.00  0.00    -0.175 C  
BRANCH   4   5
HETATM    5  N   UNL     1      -9.576  11.235  68.102  1.00  0.00    -0.180 NA 
HETATM    6  C   UNL     1     -10.894  10.878  67.537  1.00  0.00    -0.272 C  
HETATM    7  C   UNL     1     -10.904   9.750  66.500  1.00  0.00     0.053 C  
HETATM    8  C   UNL     1     -10.088   8.535  66.927  1.00  0.00    -0.364 C  
HETATM    9  C   UNL     1      -8.711   8.961  67.423  1.00  0.00    -0.128 C  
HETATM   10  C   UNL     1      -8.828  10.017  68.530  1.00  0.00    -0.120 C  
BRANCH  10  11
HETATM   11  C   UNL     1      -9.463   9.413  69.809  1.00  0.00    -0.202 C  
HETATM   12  N   UNL     1      -8.952   8.162  70.123  1.00  0.00    -0.145 N  
HETATM   13  O   UNL     1     -10.380   9.967  70.415  1.00  0.00    -0.273 OA 
HETATM   14  H   UNL     1      -8.139   7.804  69.622  1.00  0.00     0.000 HD 
BRANCH  12  15
HETATM   15  C   UNL     1      -9.552   7.390  71.128  1.00  0.00    -0.159 A  
HETATM   16  C   UNL     1     -10.652   6.570  70.815  1.00  0.00    -0.278 A  
HETATM   17  C   UNL     1     -11.319   6.563  69.473  1.00  0.00    -0.419 C  
HETATM   18  C   UNL     1     -11.232   5.820  71.852  1.00  0.00    -0.289 A  
HETATM   19  C   UNL     1     -10.710   5.860  73.147  1.00  0.00    -0.288 A  
HETATM   20  C   UNL     1      -9.607   6.653  73.433  1.00  0.00    -0.183 A  
HETATM   21  C   UNL     1      -9.016   7.431  72.433  1.00  0.00    -0.161 A  
HETATM   22  C   UNL     1      -7.809   8.268  72.764  1.00  0.00    -0.181 C  
ENDBRANCH  12  15
ENDBRANCH  10  11
ENDBRANCH   4   5
ENDBRANCH   3   4
ENDBRANCH   2   3
TORSDOF 5
ENDMDL
MODEL      205
REMARK 921   NORMALIZED FREE ENERGY PREDICTED BY IDOCK:   -3.08 KCAL/MOL
REMARK 922        TOTAL FREE ENERGY PREDICTED BY IDOCK:   -4.41 KCAL/MOL
REMARK 923 INTER-LIGAND FREE ENERGY PREDICTED BY IDOCK:   -4.65 KCAL/MOL
REMARK 924 INTRA-LIGAND FREE ENERGY PREDICTED BY IDOCK:    0.24 KCAL/MOL
REMARK 927      BINDING AFFINITY PREDICTED BY RF-SCORE:    0.00 PKD
ROOT
HETATM    1  C   UNL     1      -5.942  10.410  68.985  1.00  0.00    -0.040 C  
HETATM    2  C   UNL     1      -5.432   9.201  69.758  1.00  0.00    -0.033 C  
ENDROOT
BRANCH   2   3
HETATM    3  C   UNL     1      -5.958   9.188  71.196  1.00  0.00    -0.063 C  
BRANCH   3   4
HETATM    4  C   UNL     1      -7.363   8.576  71.327  1.00  0.00    -0.091 C  
BRANCH   4   5
HETATM    5  N   UNL     1      -8.229   8.748  70.151  1.00  0.00    -0.109 NA 
HETATM    6  C   UNL     1      -8.550   7.490  69.447  1.00  0.00    -0.133 C  
HETATM    7  C   UNL     1      -9.642   6.619  70.078  1.00  0.00    -0.163 C  
HETATM    8  C   UNL     1     -10.881   7.410  70.482  1.00  0.00    -0.259 C  
HETATM    9  C   UNL     1     -10.490   8.652  71.274  1.00  0.00    -0.311 C  
HETATM   10  C   UNL     1      -9.471   9.498  70.501  1.00  0.00    -0.246 C  
BRANCH  10  11
HETATM   11  C   UNL     1     -10.109  10.111  69.228  1.00  0.00    -0.222 C  
HETATM   12  N   UNL     1      -9.725  11.428  69.016  1.00  0.00    -0.408 N  
HETATM   13  O   UNL     1     -10.929   9.503  68.543  1.00  0.00    -0.168 OA 
HETATM   14  H   UNL     1      -8.980  11.838  69.580  1.00  0.00     0.000 HD 
BRANCH  12  15
HETATM   15  C   UNL     1     -10.359  12.195  68.028  1.00  0.00    -0.205 A  
HETATM   16  C   UNL     1      -9.984  12.046  66.681  1.00  0.00    -0.219 A  
HETATM   17  C   UNL     1      -8.835  11.192  66.235  1.00  0.00    -0.190 C  
HETATM   18  C   UNL     1     -10.635  12.841  65.722  1.00  0.00    -0.295 A  
HETATM   19  C   UNL     1     -11.651  13.726  66.093  1.00  0.00    -0.369 A  
HETATM   20  C   UNL     1     -12.029  13.839  67.424  1.00  0.00    -0.423 A  
HETATM   21  C   UNL     1     -11.389  13.083  68.409  1.00  0.00    -0.326 A  
HETATM   22  C   UNL     1     -11.830  13.211  69.843  1.00  0.00    -0.378 C  
ENDBRANCH  12  15
ENDBRANCH  10  11
ENDBRANCH   4   5
ENDBRANCH   3   4
ENDBRANCH   2   3
TORSDOF 5
ENDMDL
MODEL      206
REMARK 921   NORMALIZED FREE ENERGY PREDICTED BY IDOCK:   -3.03 KCAL/MOL
REMARK 922        TOTAL FREE ENERGY PREDICTED BY IDOCK:   -4.36 KCAL/MOL
REMARK 923 INTER-LIGAND FREE ENERGY PREDICTED BY IDOCK:   -4.27 KCAL/MOL
REMARK 924 INTRA-LIGAND FREE ENERGY PREDICTED BY IDOCK:   -0.09 KCAL/MOL
REMARK 927      BINDING AFFINITY PREDICTED BY RF-SCORE:    0.00 PKD
ROOT
HETATM    1  C   UNL     1      -7.878  10.996  67.471  1.00  0.00    -0.116 C  
HETATM    2  C   UNL     1      -8.082  10.169  66.209  1.00  0.00    -0.124 C  
ENDROOT
BRANCH   2   3
HETATM    3  C   UNL     1      -9.481   9.546  66.162  1.00  0.00    -0.281 C  
BRANCH   3   4
HETATM    4  C   UNL     1      -9.464   8.009  66.146  1.00  0.00    -0.122 C  
BRANCH   4   5
HETATM    5  N   UNL     1     -10.166   7.365  67.266  1.00  0.00    -0.231 NA 
HETATM    6  C   UNL     1     -11.122   6.316  66.858  1.00  0.00    -0.253 C  
HETATM    7  C   UNL     1     -10.521   4.952  66.501  1.00  0.00    -0.299 C  
HETATM    8  C   UNL     1      -9.496   4.464  67.519  1.00  0.00    -0.201 C  
HETATM    9  C   UNL     1      -8.490   5.563  67.837  1.00  0.00    -0.098 C  
HETATM   10  C   UNL     1      -9.202   6.847  68.281  1.00  0.00    -0.123 C  
BRANCH  10  11
HETATM   11  C   UNL     1      -9.909   6.647  69.646  1.00  0.00    -0.157 C  
HETATM   12  N   UNL     1      -9.023   6.342  70.669  1.00  0.00    -0.144 N  
HETATM   13  O   UNL     1     -11.132   6.678  69.766  1.00  0.00    -0.287 OA 
HETATM   14  H   UNL     1      -8.018   6.414  70.511  1.00  0.00     0.000 HD 
BRANCH  12  15
HETATM   15  C   UNL     1      -9.508   5.936  71.921  1.00  0.00    -0.151 A  
HETATM   16  C   UNL     1      -9.411   4.585  72.301  1.00  0.00    -0.165 A  
HETATM   17  C   UNL     1      -8.926   3.503  71.384  1.00  0.00    -0.158 C  
HETATM   18  C   UNL     1      -9.919   4.215  73.559  1.00  0.00    -0.172 A  
HETATM   19  C   UNL     1     -10.470   5.167  74.419  1.00  0.00    -0.294 A  
HETATM   20  C   UNL     1     -10.532   6.501  74.039  1.00  0.00    -0.306 A  
HETATM   21  C   UNL     1     -10.059   6.904  72.788  1.00  0.00    -0.199 A  
HETATM   22  C   UNL     1     -10.121   8.360  72.407  1.00  0.00    -0.386 C  
ENDBRANCH  12  15
ENDBRANCH  10  11
ENDBRANCH   4   5
ENDBRANCH   3   4
ENDBRANCH   2   3
TORSDOF 5
ENDMDL
MODEL      207
REMARK 921   NORMALIZED FREE ENERGY PREDICTED BY IDOCK:   -3.02 KCAL/MOL
REMARK 922        TOTAL FREE ENERGY PREDICTED BY IDOCK:   -4.34 KCAL/MOL
REMARK 923 INTER-LIGAND FREE ENERGY PREDICTED BY IDOCK:   -4.03 KCAL/MOL
REMARK 924 INTRA-LIGAND FREE ENERGY PREDICTED BY IDOCK:   -0.31 KCAL/MOL
REMARK 927      BINDING AFFINITY PREDICTED BY RF-SCORE:    0.00 PKD
ROOT
HETATM    1  C   UNL     1      -9.649   5.108  66.358  1.00  0.00    -0.171 C  
HETATM    2  C   UNL     1      -9.063   6.070  65.334  1.00  0.00     0.086 C  
ENDROOT
BRANCH   2   3
HETATM    3  C   UNL     1      -7.686   6.584  65.765  1.00  0.00    -0.092 C  
BRANCH   3   4
HETATM    4  C   UNL     1      -7.460   8.070  65.441  1.00  0.00    -0.079 C  
BRANCH   4   5
HETATM    5  N   UNL     1      -8.042   9.014  66.407  1.00  0.00    -0.109 NA 
HETATM    6  C   UNL     1      -7.569   8.829  67.794  1.00  0.00    -0.097 C  
HETATM    7  C   UNL     1      -6.187   9.404  68.122  1.00  0.00    -0.053 C  
HETATM    8  C   UNL     1      -5.993  10.827  67.610  1.00  0.00    -0.044 C  
HETATM    9  C   UNL     1      -6.421  10.935  66.151  1.00  0.00    -0.114 C  
HETATM   10  C   UNL     1      -7.856  10.426  65.961  1.00  0.00    -0.142 C  
BRANCH  10  11
HETATM   11  C   UNL     1      -8.874  11.356  66.670  1.00  0.00    -0.183 C  
HETATM   12  N   UNL     1      -9.052  12.561  66.006  1.00  0.00    -0.433 N  
HETATM   13  O   UNL     1      -9.391  11.068  67.748  1.00  0.00    -0.154 OA 
HETATM   14  H   UNL     1      -8.653  12.695  65.078  1.00  0.00     0.000 HD 
BRANCH  12  15
HETATM   15  C   UNL     1      -9.782  13.595  66.611  1.00  0.00    -0.284 A  
HETATM   16  C   UNL     1     -11.187  13.592  66.540  1.00  0.00    -0.322 A  
HETATM   17  C   UNL     1     -11.969  12.599  65.733  1.00  0.00    -0.503 C  
HETATM   18  C   UNL     1     -11.882  14.652  67.148  1.00  0.00    -0.367 A  
HETATM   19  C   UNL     1     -11.198  15.658  67.835  1.00  0.00    -0.328 A  
HETATM   20  C   UNL     1      -9.813  15.631  67.920  1.00  0.00    -0.217 A  
HETATM   21  C   UNL     1      -9.085  14.606  67.308  1.00  0.00    -0.215 A  
HETATM   22  C   UNL     1      -7.585  14.589  67.431  1.00  0.00    -0.209 C  
ENDBRANCH  12  15
ENDBRANCH  10  11
ENDBRANCH   4   5
ENDBRANCH   3   4
ENDBRANCH   2   3
TORSDOF 5
ENDMDL
MODEL      208
REMARK 921   NORMALIZED FREE ENERGY PREDICTED BY IDOCK:   -3.00 KCAL/MOL
REMARK 922        TOTAL FREE ENERGY PREDICTED BY IDOCK:   -4.32 KCAL/MOL
REMARK 923 INTER-LIGAND FREE ENERGY PREDICTED BY IDOCK:   -3.87 KCAL/MOL
REMARK 924 INTRA-LIGAND FREE ENERGY PREDICTED BY IDOCK:   -0.45 KCAL/MOL
REMARK 927      BINDING AFFINITY PREDICTED BY RF-SCORE:    0.00 PKD
ROOT
HETATM    1  C   UNL     1      -8.252   3.161  68.323  1.00  0.00    -0.085 C  
HETATM    2  C   UNL     1      -8.314   3.681  69.753  1.00  0.00    -0.078 C  
ENDROOT
BRANCH   2   3
HETATM    3  C   UNL     1      -9.747   3.679  70.293  1.00  0.00    -0.193 C  
BRANCH   3   4
HETATM    4  C   UNL     1     -10.051   4.865  71.223  1.00  0.00    -0.199 C  
BRANCH   4   5
HETATM    5  N   UNL     1     -10.040   6.186  70.575  1.00  0.00    -0.184 NA 
HETATM    6  C   UNL     1     -11.365   6.640  70.107  1.00  0.00    -0.382 C  
HETATM    7  C   UNL     1     -12.301   7.214  71.175  1.00  0.00    -0.404 C  
HETATM    8  C   UNL     1     -11.616   8.218  72.097  1.00  0.00    -0.428 C  
HETATM    9  C   UNL     1     -10.295   7.658  72.611  1.00  0.00    -0.332 C  
HETATM   10  C   UNL     1      -9.399   7.211  71.450  1.00  0.00    -0.154 C  
BRANCH  10  11
HETATM   11  C   UNL     1      -8.933   8.425  70.607  1.00  0.00    -0.152 C  
HETATM   12  N   UNL     1      -8.599   8.079  69.306  1.00  0.00    -0.136 N  
HETATM   13  O   UNL     1      -8.801   9.550  71.087  1.00  0.00    -0.249 OA 
HETATM   14  H   UNL     1      -8.811   7.144  68.958  1.00  0.00     0.000 HD 
BRANCH  12  15
HETATM   15  C   UNL     1      -7.972   9.012  68.469  1.00  0.00    -0.103 A  
HETATM   16  C   UNL     1      -6.567   9.091  68.441  1.00  0.00    -0.059 A  
HETATM   17  C   UNL     1      -5.680   8.311  69.362  1.00  0.00    -0.030 C  
HETATM   18  C   UNL     1      -5.977  10.048  67.597  1.00  0.00    -0.053 A  
HETATM   19  C   UNL     1      -6.760  10.870  66.784  1.00  0.00    -0.120 A  
HETATM   20  C   UNL     1      -8.144  10.760  66.803  1.00  0.00    -0.137 A  
HETATM   21  C   UNL     1      -8.769   9.836  67.645  1.00  0.00    -0.125 A  
HETATM   22  C   UNL     1     -10.271   9.723  67.633  1.00  0.00    -0.261 C  
ENDBRANCH  12  15
ENDBRANCH  10  11
ENDBRANCH   4   5
ENDBRANCH   3   4
ENDBRANCH   2   3
TORSDOF 5
ENDMDL
MODEL      209
REMARK 921   NORMALIZED FREE ENERGY PREDICTED BY IDOCK:   -3.00 KCAL/MOL
REMARK 922        TOTAL FREE ENERGY PREDICTED BY IDOCK:   -4.32 KCAL/MOL
REMARK 923 INTER-LIGAND FREE ENERGY PREDICTED BY IDOCK:   -4.45 KCAL/MOL
REMARK 924 INTRA-LIGAND FREE ENERGY PREDICTED BY IDOCK:    0.13 KCAL/MOL
REMARK 927      BINDING AFFINITY PREDICTED BY RF-SCORE:    0.00 PKD
ROOT
HETATM    1  C   UNL     1      -8.094  16.493  66.242  1.00  0.00    -0.341 C  
HETATM    2  C   UNL     1      -9.350  15.769  66.708  1.00  0.00    -0.264 C  
ENDROOT
BRANCH   2   3
HETATM    3  C   UNL     1      -9.010  14.525  67.536  1.00  0.00    -0.191 C  
BRANCH   3   4
HETATM    4  C   UNL     1     -10.080  14.179  68.585  1.00  0.00    -0.229 C  
BRANCH   4   5
HETATM    5  N   UNL     1     -10.397  12.748  68.704  1.00  0.00    -0.215 NA 
HETATM    6  C   UNL     1     -11.768  12.395  68.284  1.00  0.00    -0.345 C  
HETATM    7  C   UNL     1     -12.008  12.283  66.775  1.00  0.00    -0.230 C  
HETATM    8  C   UNL     1     -10.935  11.472  66.056  1.00  0.00    -0.316 C  
HETATM    9  C   UNL     1      -9.544  11.938  66.469  1.00  0.00    -0.226 C  
HETATM   10  C   UNL     1      -9.386  11.911  67.994  1.00  0.00    -0.193 C  
BRANCH  10  11
HETATM   11  C   UNL     1      -9.416  10.457  68.531  1.00  0.00    -0.159 C  
HETATM   12  N   UNL     1      -9.491  10.397  69.915  1.00  0.00    -0.406 N  
HETATM   13  O   UNL     1      -9.301   9.479  67.794  1.00  0.00    -0.128 OA 
HETATM   14  H   UNL     1      -9.666  11.246  70.453  1.00  0.00     0.000 HD 
BRANCH  12  15
HETATM   15  C   UNL     1      -9.327   9.171  70.576  1.00  0.00    -0.240 A  
HETATM   16  C   UNL     1     -10.441   8.340  70.790  1.00  0.00    -0.223 A  
HETATM   17  C   UNL     1     -11.847   8.744  70.463  1.00  0.00    -0.049 C  
HETATM   18  C   UNL     1     -10.238   7.124  71.466  1.00  0.00    -0.210 A  
HETATM   19  C   UNL     1      -8.961   6.737  71.880  1.00  0.00    -0.135 A  
HETATM   20  C   UNL     1      -7.868   7.557  71.635  1.00  0.00    -0.086 A  
HETATM   21  C   UNL     1      -8.033   8.784  70.987  1.00  0.00    -0.170 A  
HETATM   22  C   UNL     1      -6.829   9.646  70.716  1.00  0.00    -0.091 C  
ENDBRANCH  12  15
ENDBRANCH  10  11
ENDBRANCH   4   5
ENDBRANCH   3   4
ENDBRANCH   2   3
TORSDOF 5
ENDMDL
MODEL      210
REMARK 921   NORMALIZED FREE ENERGY PREDICTED BY IDOCK:   -3.00 KCAL/MOL
REMARK 922        TOTAL FREE ENERGY PREDICTED BY IDOCK:   -4.31 KCAL/MOL
REMARK 923 INTER-LIGAND FREE ENERGY PREDICTED BY IDOCK:   -4.71 KCAL/MOL
REMARK 924 INTRA-LIGAND FREE ENERGY PREDICTED BY IDOCK:    0.40 KCAL/MOL
REMARK 927      BINDING AFFINITY PREDICTED BY RF-SCORE:    0.00 PKD
ROOT
HETATM    1  C   UNL     1     -10.726  19.789  65.505  1.00  0.00    -0.329 C  
HETATM    2  C   UNL     1      -9.938  19.852  66.806  1.00  0.00    -0.569 C  
ENDROOT
BRANCH   2   3
HETATM    3  C   UNL     1     -10.333  18.721  67.761  1.00  0.00    -0.467 C  
BRANCH   3   4
HETATM    4  C   UNL     1      -9.186  18.270  68.681  1.00  0.00    -0.292 C  
BRANCH   4   5
HETATM    5  N   UNL     1      -8.799  16.858  68.549  1.00  0.00    -0.243 NA 
HETATM    6  C   UNL     1      -9.928  15.943  68.290  1.00  0.00    -0.222 C  
HETATM    7  C   UNL     1     -10.446  15.896  66.848  1.00  0.00    -0.309 C  
HETATM    8  C   UNL     1      -9.331  15.778  65.814  1.00  0.00    -0.298 C  
HETATM    9  C   UNL     1      -8.236  16.802  66.087  1.00  0.00    -0.300 C  
HETATM   10  C   UNL     1      -7.724  16.687  67.528  1.00  0.00    -0.165 C  
BRANCH  10  11
HETATM   11  C   UNL     1      -6.979  15.345  67.748  1.00  0.00    -0.163 C  
HETATM   12  N   UNL     1      -7.564  14.561  68.732  1.00  0.00    -0.126 N  
HETATM   13  O   UNL     1      -5.935  15.065  67.161  1.00  0.00    -0.254 OA 
HETATM   14  H   UNL     1      -8.472  14.822  69.117  1.00  0.00     0.000 HD 
BRANCH  12  15
HETATM   15  C   UNL     1      -6.909  13.411  69.197  1.00  0.00    -0.076 A  
HETATM   16  C   UNL     1      -5.935  13.523  70.205  1.00  0.00    -0.146 A  
HETATM   17  C   UNL     1      -5.448  14.836  70.739  1.00  0.00    -0.146 C  
HETATM   18  C   UNL     1      -5.293  12.349  70.636  1.00  0.00    -0.157 A  
HETATM   19  C   UNL     1      -5.639  11.104  70.105  1.00  0.00    -0.101 A  
HETATM   20  C   UNL     1      -6.624  11.009  69.131  1.00  0.00    -0.077 A  
HETATM   21  C   UNL     1      -7.269  12.156  68.660  1.00  0.00    -0.109 A  
HETATM   22  C   UNL     1      -8.346  12.024  67.617  1.00  0.00    -0.160 C  
ENDBRANCH  12  15
ENDBRANCH  10  11
ENDBRANCH   4   5
ENDBRANCH   3   4
ENDBRANCH   2   3
TORSDOF 5
ENDMDL
MODEL      211
REMARK 921   NORMALIZED FREE ENERGY PREDICTED BY IDOCK:   -2.99 KCAL/MOL
REMARK 922        TOTAL FREE ENERGY PREDICTED BY IDOCK:   -4.31 KCAL/MOL
REMARK 923 INTER-LIGAND FREE ENERGY PREDICTED BY IDOCK:   -4.08 KCAL/MOL
REMARK 924 INTRA-LIGAND FREE ENERGY PREDICTED BY IDOCK:   -0.23 KCAL/MOL
REMARK 927      BINDING AFFINITY PREDICTED BY RF-SCORE:    0.00 PKD
ROOT
HETATM    1  C   UNL     1     -11.389  16.661  68.391  1.00  0.00    -0.142 C  
HETATM    2  C   UNL     1     -10.203  16.569  67.441  1.00  0.00    -0.287 C  
ENDROOT
BRANCH   2   3
HETATM    3  C   UNL     1     -10.594  15.919  66.111  1.00  0.00    -0.310 C  
BRANCH   3   4
HETATM    4  C   UNL     1      -9.775  14.659  65.783  1.00  0.00    -0.297 C  
BRANCH   4   5
HETATM    5  N   UNL     1      -9.811  13.607  66.809  1.00  0.00    -0.263 NA 
HETATM    6  C   UNL     1     -11.169  13.268  67.280  1.00  0.00    -0.292 C  
HETATM    7  C   UNL     1     -11.994  12.353  66.368  1.00  0.00    -0.346 C  
HETATM    8  C   UNL     1     -11.214  11.142  65.870  1.00  0.00    -0.015 C  
HETATM    9  C   UNL     1      -9.856  11.566  65.322  1.00  0.00    -0.286 C  
HETATM   10  C   UNL     1      -9.079  12.388  66.358  1.00  0.00    -0.149 C  
BRANCH  10  11
HETATM   11  C   UNL     1      -8.681  11.514  67.575  1.00  0.00    -0.145 C  
HETATM   12  N   UNL     1      -9.061  10.188  67.431  1.00  0.00    -0.137 N  
HETATM   13  O   UNL     1      -8.160  11.986  68.584  1.00  0.00    -0.137 OA 
HETATM   14  H   UNL     1      -9.415   9.854  66.534  1.00  0.00     0.000 HD 
BRANCH  12  15
HETATM   15  C   UNL     1      -8.958   9.305  68.516  1.00  0.00    -0.129 A  
HETATM   16  C   UNL     1      -9.955   9.301  69.509  1.00  0.00    -0.194 A  
HETATM   17  C   UNL     1     -11.081  10.289  69.550  1.00  0.00    -0.310 C  
HETATM   18  C   UNL     1      -9.810   8.410  70.586  1.00  0.00    -0.208 A  
HETATM   19  C   UNL     1      -8.728   7.529  70.650  1.00  0.00    -0.141 A  
HETATM   20  C   UNL     1      -7.768   7.527  69.647  1.00  0.00    -0.100 A  
HETATM   21  C   UNL     1      -7.865   8.414  68.571  1.00  0.00    -0.120 A  
HETATM   22  C   UNL     1      -6.821   8.378  67.486  1.00  0.00    -0.070 C  
ENDBRANCH  12  15
ENDBRANCH  10  11
ENDBRANCH   4   5
ENDBRANCH   3   4
ENDBRANCH   2   3
TORSDOF 5
ENDMDL
MODEL      212
REMARK 921   NORMALIZED FREE ENERGY PREDICTED BY IDOCK:   -2.98 KCAL/MOL
REMARK 922        TOTAL FREE ENERGY PREDICTED BY IDOCK:   -4.29 KCAL/MOL
REMARK 923 INTER-LIGAND FREE ENERGY PREDICTED BY IDOCK:   -4.16 KCAL/MOL
REMARK 924 INTRA-LIGAND FREE ENERGY PREDICTED BY IDOCK:   -0.13 KCAL/MOL
REMARK 927      BINDING AFFINITY PREDICTED BY RF-SCORE:    0.00 PKD
ROOT
HETATM    1  C   UNL     1     -10.434   5.209  66.836  1.00  0.00    -0.280 C  
HETATM    2  C   UNL     1      -9.699   6.326  66.109  1.00  0.00    -0.021 C  
ENDROOT
BRANCH   2   3
HETATM    3  C   UNL     1      -8.562   6.901  66.959  1.00  0.00    -0.121 C  
BRANCH   3   4
HETATM    4  C   UNL     1      -8.141   8.318  66.537  1.00  0.00    -0.105 C  
BRANCH   4   5
HETATM    5  N   UNL     1      -9.018   9.398  67.014  1.00  0.00    -0.129 NA 
HETATM    6  C   UNL     1      -9.744   9.080  68.261  1.00  0.00    -0.152 C  
HETATM    7  C   UNL     1      -8.945   9.206  69.562  1.00  0.00    -0.151 C  
HETATM    8  C   UNL     1      -8.143  10.500  69.650  1.00  0.00    -0.058 C  
HETATM    9  C   UNL     1      -7.353  10.730  68.368  1.00  0.00    -0.092 C  
HETATM   10  C   UNL     1      -8.272  10.684  67.141  1.00  0.00    -0.121 C  
BRANCH  10  11
HETATM   11  C   UNL     1      -9.255  11.882  67.137  1.00  0.00    -0.183 C  
HETATM   12  N   UNL     1      -9.092  12.713  68.236  1.00  0.00    -0.247 N  
HETATM   13  O   UNL     1     -10.132  12.014  66.285  1.00  0.00    -0.213 OA 
HETATM   14  H   UNL     1      -8.293  12.586  68.856  1.00  0.00     0.000 HD 
BRANCH  12  15
HETATM   15  C   UNL     1     -10.025  13.728  68.495  1.00  0.00    -0.217 A  
HETATM   16  C   UNL     1      -9.757  15.045  68.079  1.00  0.00    -0.213 A  
HETATM   17  C   UNL     1      -8.452  15.469  67.475  1.00  0.00    -0.188 C  
HETATM   18  C   UNL     1     -10.712  16.035  68.367  1.00  0.00    -0.289 A  
HETATM   19  C   UNL     1     -11.908  15.714  69.014  1.00  0.00    -0.379 A  
HETATM   20  C   UNL     1     -12.169  14.404  69.392  1.00  0.00    -0.305 A  
HETATM   21  C   UNL     1     -11.234  13.395  69.144  1.00  0.00    -0.300 A  
HETATM   22  C   UNL     1     -11.549  11.979  69.547  1.00  0.00    -0.389 C  
ENDBRANCH  12  15
ENDBRANCH  10  11
ENDBRANCH   4   5
ENDBRANCH   3   4
ENDBRANCH   2   3
TORSDOF 5
ENDMDL
MODEL      213
REMARK 921   NORMALIZED FREE ENERGY PREDICTED BY IDOCK:   -2.95 KCAL/MOL
REMARK 922        TOTAL FREE ENERGY PREDICTED BY IDOCK:   -4.25 KCAL/MOL
REMARK 923 INTER-LIGAND FREE ENERGY PREDICTED BY IDOCK:   -3.77 KCAL/MOL
REMARK 924 INTRA-LIGAND FREE ENERGY PREDICTED BY IDOCK:   -0.48 KCAL/MOL
REMARK 927      BINDING AFFINITY PREDICTED BY RF-SCORE:    0.00 PKD
ROOT
HETATM    1  C   UNL     1      -8.421   3.822  70.748  1.00  0.00    -0.100 C  
HETATM    2  C   UNL     1      -7.648   5.111  70.506  1.00  0.00    -0.071 C  
ENDROOT
BRANCH   2   3
HETATM    3  C   UNL     1      -6.600   4.942  69.402  1.00  0.00    -0.040 C  
BRANCH   3   4
HETATM    4  C   UNL     1      -7.209   4.612  68.029  1.00  0.00    -0.065 C  
BRANCH   4   5
HETATM    5  N   UNL     1      -7.965   5.706  67.402  1.00  0.00    -0.101 NA 
HETATM    6  C   UNL     1      -7.610   5.955  65.990  1.00  0.00    -0.086 C  
HETATM    7  C   UNL     1      -8.216   4.997  64.959  1.00  0.00    -0.133 C  
HETATM    8  C   UNL     1      -9.708   4.757  65.167  1.00  0.00    -0.068 C  
HETATM    9  C   UNL     1      -9.999   4.425  66.626  1.00  0.00    -0.234 C  
HETATM   10  C   UNL     1      -9.436   5.505  67.558  1.00  0.00    -0.117 C  
BRANCH  10  11
HETATM   11  C   UNL     1     -10.188   6.847  67.373  1.00  0.00    -0.203 C  
HETATM   12  N   UNL     1      -9.492   7.928  67.895  1.00  0.00    -0.143 N  
HETATM   13  O   UNL     1     -11.316   6.910  66.887  1.00  0.00    -0.269 OA 
HETATM   14  H   UNL     1      -8.529   7.811  68.208  1.00  0.00     0.000 HD 
BRANCH  12  15
HETATM   15  C   UNL     1     -10.113   9.183  67.991  1.00  0.00    -0.196 A  
HETATM   16  C   UNL     1     -10.823   9.522  69.157  1.00  0.00    -0.194 A  
HETATM   17  C   UNL     1     -11.074   8.559  70.278  1.00  0.00    -0.222 C  
HETATM   18  C   UNL     1     -11.440  10.784  69.211  1.00  0.00    -0.369 A  
HETATM   19  C   UNL     1     -11.320  11.688  68.153  1.00  0.00    -0.358 A  
HETATM   20  C   UNL     1     -10.590  11.348  67.021  1.00  0.00    -0.286 A  
HETATM   21  C   UNL     1      -9.982  10.094  66.921  1.00  0.00    -0.259 A  
HETATM   22  C   UNL     1      -9.181   9.757  65.691  1.00  0.00    -0.252 C  
ENDBRANCH  12  15
ENDBRANCH  10  11
ENDBRANCH   4   5
ENDBRANCH   3   4
ENDBRANCH   2   3
TORSDOF 5
ENDMDL
MODEL      214
REMARK 921   NORMALIZED FREE ENERGY PREDICTED BY IDOCK:   -2.94 KCAL/MOL
REMARK 922        TOTAL FREE ENERGY PREDICTED BY IDOCK:   -4.24 KCAL/MOL
REMARK 923 INTER-LIGAND FREE ENERGY PREDICTED BY IDOCK:   -3.87 KCAL/MOL
REMARK 924 INTRA-LIGAND FREE ENERGY PREDICTED BY IDOCK:   -0.37 KCAL/MOL
REMARK 927      BINDING AFFINITY PREDICTED BY RF-SCORE:    0.00 PKD
ROOT
HETATM    1  C   UNL     1      -9.670  16.731  68.716  1.00  0.00    -0.261 C  
HETATM    2  C   UNL     1      -9.045  15.369  68.449  1.00  0.00    -0.191 C  
ENDROOT
BRANCH   2   3
HETATM    3  C   UNL     1      -9.645  14.706  67.206  1.00  0.00    -0.221 C  
BRANCH   3   4
HETATM    4  C   UNL     1     -10.344  13.369  67.505  1.00  0.00    -0.226 C  
BRANCH   4   5
HETATM    5  N   UNL     1      -9.679  12.179  66.952  1.00  0.00    -0.202 NA 
HETATM    6  C   UNL     1      -8.204  12.221  67.027  1.00  0.00    -0.155 C  
HETATM    7  C   UNL     1      -7.585  11.888  68.389  1.00  0.00    -0.120 C  
HETATM    8  C   UNL     1      -8.182  10.639  69.029  1.00  0.00    -0.151 C  
HETATM    9  C   UNL     1      -9.704  10.693  68.994  1.00  0.00    -0.214 C  
HETATM   10  C   UNL     1     -10.213  10.929  67.566  1.00  0.00    -0.190 C  
BRANCH  10  11
HETATM   11  C   UNL     1      -9.909   9.709  66.659  1.00  0.00    -0.224 C  
HETATM   12  N   UNL     1      -9.374   8.638  67.361  1.00  0.00    -0.141 N  
HETATM   13  O   UNL     1     -10.055   9.741  65.438  1.00  0.00    -0.305 OA 
HETATM   14  H   UNL     1      -9.358   8.655  68.381  1.00  0.00     0.000 HD 
BRANCH  12  15
HETATM   15  C   UNL     1      -8.858   7.532  66.671  1.00  0.00    -0.146 A  
HETATM   16  C   UNL     1      -7.552   7.582  66.150  1.00  0.00    -0.088 A  
HETATM   17  C   UNL     1      -6.701   8.816  66.176  1.00  0.00    -0.073 C  
HETATM   18  C   UNL     1      -7.075   6.458  65.455  1.00  0.00    -0.064 A  
HETATM   19  C   UNL     1      -7.861   5.311  65.316  1.00  0.00    -0.095 A  
HETATM   20  C   UNL     1      -9.137   5.268  65.861  1.00  0.00    -0.159 A  
HETATM   21  C   UNL     1      -9.656   6.375  66.539  1.00  0.00    -0.185 A  
HETATM   22  C   UNL     1     -11.036   6.296  67.137  1.00  0.00    -0.453 C  
ENDBRANCH  12  15
ENDBRANCH  10  11
ENDBRANCH   4   5
ENDBRANCH   3   4
ENDBRANCH   2   3
TORSDOF 5
ENDMDL
MODEL      215
REMARK 921   NORMALIZED FREE ENERGY PREDICTED BY IDOCK:   -2.94 KCAL/MOL
REMARK 922        TOTAL FREE ENERGY PREDICTED BY IDOCK:   -4.23 KCAL/MOL
REMARK 923 INTER-LIGAND FREE ENERGY PREDICTED BY IDOCK:   -3.99 KCAL/MOL
REMARK 924 INTRA-LIGAND FREE ENERGY PREDICTED BY IDOCK:   -0.24 KCAL/MOL
REMARK 927      BINDING AFFINITY PREDICTED BY RF-SCORE:    0.00 PKD
ROOT
HETATM    1  C   UNL     1      -5.566   8.435  64.382  1.00  0.00    -0.059 C  
HETATM    2  C   UNL     1      -7.023   8.860  64.500  1.00  0.00    -0.085 C  
ENDROOT
BRANCH   2   3
HETATM    3  C   UNL     1      -7.176  10.382  64.423  1.00  0.00     0.002 C  
BRANCH   3   4
HETATM    4  C   UNL     1      -7.173  11.065  65.801  1.00  0.00     0.097 C  
BRANCH   4   5
HETATM    5  N   UNL     1      -7.628  10.222  66.917  1.00  0.00    -0.103 NA 
HETATM    6  C   UNL     1      -6.534   9.642  67.722  1.00  0.00    -0.058 C  
HETATM    7  C   UNL     1      -5.876  10.575  68.744  1.00  0.00    -0.040 C  
HETATM    8  C   UNL     1      -6.885  11.355  69.581  1.00  0.00    -0.068 C  
HETATM    9  C   UNL     1      -7.940  11.996  68.688  1.00  0.00    -0.082 C  
HETATM   10  C   UNL     1      -8.602  10.951  67.781  1.00  0.00    -0.128 C  
BRANCH  10  11
HETATM   11  C   UNL     1      -9.443   9.948  68.611  1.00  0.00    -0.153 C  
HETATM   12  N   UNL     1      -9.661  10.379  69.912  1.00  0.00    -0.418 N  
HETATM   13  O   UNL     1      -9.797   8.857  68.168  1.00  0.00    -0.157 OA 
HETATM   14  H   UNL     1      -9.408  11.329  70.184  1.00  0.00     0.000 HD 
BRANCH  12  15
HETATM   15  C   UNL     1     -10.230   9.509  70.855  1.00  0.00    -0.286 A  
HETATM   16  C   UNL     1      -9.419   8.566  71.512  1.00  0.00    -0.290 A  
HETATM   17  C   UNL     1      -7.977   8.339  71.171  1.00  0.00    -0.112 C  
HETATM   18  C   UNL     1     -10.028   7.705  72.441  1.00  0.00    -0.256 A  
HETATM   19  C   UNL     1     -11.391   7.807  72.729  1.00  0.00    -0.446 A  
HETATM   20  C   UNL     1     -12.171   8.763  72.092  1.00  0.00    -0.448 A  
HETATM   21  C   UNL     1     -11.607   9.623  71.145  1.00  0.00    -0.456 A  
HETATM   22  C   UNL     1     -12.470  10.663  70.482  1.00  0.00    -0.445 C  
ENDBRANCH  12  15
ENDBRANCH  10  11
ENDBRANCH   4   5
ENDBRANCH   3   4
ENDBRANCH   2   3
TORSDOF 5
ENDMDL
MODEL      216
REMARK 921   NORMALIZED FREE ENERGY PREDICTED BY IDOCK:   -2.93 KCAL/MOL
REMARK 922        TOTAL FREE ENERGY PREDICTED BY IDOCK:   -4.22 KCAL/MOL
REMARK 923 INTER-LIGAND FREE ENERGY PREDICTED BY IDOCK:   -3.85 KCAL/MOL
REMARK 924 INTRA-LIGAND FREE ENERGY PREDICTED BY IDOCK:   -0.37 KCAL/MOL
REMARK 927      BINDING AFFINITY PREDICTED BY RF-SCORE:    0.00 PKD
ROOT
HETATM    1  C   UNL     1      -5.608  12.589  70.135  1.00  0.00    -0.140 C  
HETATM    2  C   UNL     1      -6.134  11.229  69.699  1.00  0.00    -0.102 C  
ENDROOT
BRANCH   2   3
HETATM    3  C   UNL     1      -6.340  11.162  68.183  1.00  0.00    -0.053 C  
BRANCH   3   4
HETATM    4  C   UNL     1      -7.246  10.000  67.740  1.00  0.00    -0.087 C  
BRANCH   4   5
HETATM    5  N   UNL     1      -8.056   9.399  68.810  1.00  0.00    -0.102 NA 
HETATM    6  C   UNL     1      -9.442   9.906  68.876  1.00  0.00    -0.170 C  
HETATM    7  C   UNL     1     -10.427   9.324  67.856  1.00  0.00    -0.290 C  
HETATM    8  C   UNL     1     -10.350   7.805  67.747  1.00  0.00    -0.284 C  
HETATM    9  C   UNL     1      -8.903   7.350  67.599  1.00  0.00    -0.127 C  
HETATM   10  C   UNL     1      -8.033   7.909  68.732  1.00  0.00    -0.124 C  
BRANCH  10  11
HETATM   11  C   UNL     1      -8.431   7.290  70.096  1.00  0.00    -0.138 C  
HETATM   12  N   UNL     1      -9.297   6.213  69.964  1.00  0.00    -0.153 N  
HETATM   13  O   UNL     1      -8.072   7.771  71.169  1.00  0.00    -0.092 OA 
HETATM   14  H   UNL     1      -9.485   5.822  69.041  1.00  0.00     0.000 HD 
BRANCH  12  15
HETATM   15  C   UNL     1      -9.912   5.663  71.098  1.00  0.00    -0.190 A  
HETATM   16  C   UNL     1     -11.070   6.265  71.624  1.00  0.00    -0.325 A  
HETATM   17  C   UNL     1     -11.631   7.558  71.116  1.00  0.00    -0.304 C  
HETATM   18  C   UNL     1     -11.651   5.690  72.768  1.00  0.00    -0.289 A  
HETATM   19  C   UNL     1     -11.115   4.535  73.343  1.00  0.00    -0.408 A  
HETATM   20  C   UNL     1      -9.988   3.939  72.794  1.00  0.00    -0.209 A  
HETATM   21  C   UNL     1      -9.368   4.493  71.671  1.00  0.00    -0.196 A  
HETATM   22  C   UNL     1      -8.159   3.816  71.083  1.00  0.00    -0.064 C  
ENDBRANCH  12  15
ENDBRANCH  10  11
ENDBRANCH   4   5
ENDBRANCH   3   4
ENDBRANCH   2   3
TORSDOF 5
ENDMDL
MODEL      217
REMARK 921   NORMALIZED FREE ENERGY PREDICTED BY IDOCK:   -2.87 KCAL/MOL
REMARK 922        TOTAL FREE ENERGY PREDICTED BY IDOCK:   -4.14 KCAL/MOL
REMARK 923 INTER-LIGAND FREE ENERGY PREDICTED BY IDOCK:   -3.79 KCAL/MOL
REMARK 924 INTRA-LIGAND FREE ENERGY PREDICTED BY IDOCK:   -0.36 KCAL/MOL
REMARK 927      BINDING AFFINITY PREDICTED BY RF-SCORE:    0.00 PKD
ROOT
HETATM    1  C   UNL     1      -8.643   4.099  64.322  1.00  0.00    -0.112 C  
HETATM    2  C   UNL     1      -7.301   4.117  65.042  1.00  0.00    -0.072 C  
ENDROOT
BRANCH   2   3
HETATM    3  C   UNL     1      -7.475   4.026  66.561  1.00  0.00    -0.084 C  
BRANCH   3   4
HETATM    4  C   UNL     1      -7.066   5.312  67.300  1.00  0.00    -0.070 C  
BRANCH   4   5
HETATM    5  N   UNL     1      -8.185   6.129  67.794  1.00  0.00    -0.116 NA 
HETATM    6  C   UNL     1      -8.950   5.506  68.893  1.00  0.00    -0.114 C  
HETATM    7  C   UNL     1      -8.322   5.589  70.289  1.00  0.00    -0.110 C  
HETATM    8  C   UNL     1      -7.808   6.983  70.633  1.00  0.00    -0.097 C  
HETATM    9  C   UNL     1      -6.959   7.538  69.495  1.00  0.00    -0.060 C  
HETATM   10  C   UNL     1      -7.727   7.500  68.168  1.00  0.00    -0.120 C  
BRANCH  10  11
HETATM   11  C   UNL     1      -8.925   8.482  68.190  1.00  0.00    -0.142 C  
HETATM   12  N   UNL     1      -8.778   9.487  69.136  1.00  0.00    -0.139 N  
HETATM   13  O   UNL     1      -9.925   8.320  67.492  1.00  0.00    -0.164 OA 
HETATM   14  H   UNL     1      -7.888   9.604  69.619  1.00  0.00     0.000 HD 
BRANCH  12  15
HETATM   15  C   UNL     1      -9.852  10.340  69.427  1.00  0.00    -0.227 A  
HETATM   16  C   UNL     1     -10.753  10.003  70.455  1.00  0.00    -0.369 A  
HETATM   17  C   UNL     1     -10.711   8.699  71.192  1.00  0.00    -0.303 C  
HETATM   18  C   UNL     1     -11.822  10.879  70.709  1.00  0.00    -0.424 A  
HETATM   19  C   UNL     1     -11.966  12.067  69.987  1.00  0.00    -0.400 A  
HETATM   20  C   UNL     1     -11.052  12.398  68.995  1.00  0.00    -0.288 A  
HETATM   21  C   UNL     1      -9.988  11.541  68.698  1.00  0.00    -0.207 A  
HETATM   22  C   UNL     1      -9.000  11.932  67.631  1.00  0.00    -0.169 C  
ENDBRANCH  12  15
ENDBRANCH  10  11
ENDBRANCH   4   5
ENDBRANCH   3   4
ENDBRANCH   2   3
TORSDOF 5
ENDMDL
MODEL      218
REMARK 921   NORMALIZED FREE ENERGY PREDICTED BY IDOCK:   -2.84 KCAL/MOL
REMARK 922        TOTAL FREE ENERGY PREDICTED BY IDOCK:   -4.11 KCAL/MOL
REMARK 923 INTER-LIGAND FREE ENERGY PREDICTED BY IDOCK:   -4.18 KCAL/MOL
REMARK 924 INTRA-LIGAND FREE ENERGY PREDICTED BY IDOCK:    0.07 KCAL/MOL
REMARK 927      BINDING AFFINITY PREDICTED BY RF-SCORE:    0.00 PKD
ROOT
HETATM    1  C   UNL     1      -7.784  14.588  68.693  1.00  0.00    -0.137 C  
HETATM    2  C   UNL     1      -7.413  13.227  68.120  1.00  0.00    -0.128 C  
ENDROOT
BRANCH   2   3
HETATM    3  C   UNL     1      -8.545  12.211  68.297  1.00  0.00    -0.175 C  
BRANCH   3   4
HETATM    4  C   UNL     1      -8.065  10.751  68.272  1.00  0.00    -0.121 C  
BRANCH   4   5
HETATM    5  N   UNL     1      -9.094   9.749  68.590  1.00  0.00    -0.128 NA 
HETATM    6  C   UNL     1     -10.226   9.725  67.641  1.00  0.00    -0.213 C  
HETATM    7  C   UNL     1      -9.983   8.999  66.314  1.00  0.00    -0.352 C  
HETATM    8  C   UNL     1      -9.319   7.637  66.488  1.00  0.00    -0.241 C  
HETATM    9  C   UNL     1      -8.111   7.743  67.411  1.00  0.00    -0.123 C  
HETATM   10  C   UNL     1      -8.495   8.391  68.747  1.00  0.00    -0.124 C  
BRANCH  10  11
HETATM   11  C   UNL     1      -9.445   7.473  69.557  1.00  0.00    -0.156 C  
HETATM   12  N   UNL     1      -8.885   7.043  70.752  1.00  0.00    -0.148 N  
HETATM   13  O   UNL     1     -10.539   7.111  69.128  1.00  0.00    -0.210 OA 
HETATM   14  H   UNL     1      -8.008   7.449  71.078  1.00  0.00     0.000 HD 
BRANCH  12  15
HETATM   15  C   UNL     1      -9.524   6.051  71.511  1.00  0.00    -0.149 A  
HETATM   16  C   UNL     1      -9.295   4.694  71.219  1.00  0.00    -0.205 A  
HETATM   17  C   UNL     1      -8.494   4.228  70.041  1.00  0.00    -0.089 C  
HETATM   18  C   UNL     1      -9.963   3.731  71.995  1.00  0.00    -0.238 A  
HETATM   19  C   UNL     1     -10.799   4.109  73.048  1.00  0.00    -0.252 A  
HETATM   20  C   UNL     1     -10.991   5.453  73.340  1.00  0.00    -0.349 A  
HETATM   21  C   UNL     1     -10.363   6.441  72.577  1.00  0.00    -0.212 A  
HETATM   22  C   UNL     1     -10.573   7.891  72.926  1.00  0.00    -0.434 C  
ENDBRANCH  12  15
ENDBRANCH  10  11
ENDBRANCH   4   5
ENDBRANCH   3   4
ENDBRANCH   2   3
TORSDOF 5
ENDMDL
MODEL      219
REMARK 921   NORMALIZED FREE ENERGY PREDICTED BY IDOCK:   -2.84 KCAL/MOL
REMARK 922        TOTAL FREE ENERGY PREDICTED BY IDOCK:   -4.11 KCAL/MOL
REMARK 923 INTER-LIGAND FREE ENERGY PREDICTED BY IDOCK:   -4.49 KCAL/MOL
REMARK 924 INTRA-LIGAND FREE ENERGY PREDICTED BY IDOCK:    0.39 KCAL/MOL
REMARK 927      BINDING AFFINITY PREDICTED BY RF-SCORE:    0.00 PKD
ROOT
HETATM    1  C   UNL     1      -5.834  12.045  68.936  1.00  0.00    -0.053 C  
HETATM    2  C   UNL     1      -7.070  12.929  68.848  1.00  0.00    -0.063 C  
ENDROOT
BRANCH   2   3
HETATM    3  C   UNL     1      -7.408  13.283  67.396  1.00  0.00    -0.125 C  
BRANCH   3   4
HETATM    4  C   UNL     1      -8.889  13.064  67.044  1.00  0.00    -0.212 C  
BRANCH   4   5
HETATM    5  N   UNL     1      -9.397  11.707  67.296  1.00  0.00    -0.167 NA 
HETATM    6  C   UNL     1     -10.728  11.442  66.715  1.00  0.00    -0.271 C  
HETATM    7  C   UNL     1     -10.764  11.135  65.214  1.00  0.00    -0.271 C  
HETATM    8  C   UNL     1      -9.711  10.120  64.784  1.00  0.00    -0.389 C  
HETATM    9  C   UNL     1      -8.345  10.493  65.347  1.00  0.00    -0.165 C  
HETATM   10  C   UNL     1      -8.408  10.674  66.869  1.00  0.00    -0.125 C  
BRANCH  10  11
HETATM   11  C   UNL     1      -8.696   9.326  67.577  1.00  0.00    -0.115 C  
HETATM   12  N   UNL     1     -10.020   9.199  67.973  1.00  0.00    -0.169 N  
HETATM   13  O   UNL     1      -7.811   8.508  67.825  1.00  0.00    -0.101 OA 
HETATM   14  H   UNL     1     -10.712   9.881  67.661  1.00  0.00     0.000 HD 
BRANCH  12  15
HETATM   15  C   UNL     1     -10.408   8.135  68.800  1.00  0.00    -0.202 A  
HETATM   16  C   UNL     1     -10.703   6.882  68.233  1.00  0.00    -0.265 A  
HETATM   17  C   UNL     1     -10.753   6.638  66.755  1.00  0.00    -0.329 C  
HETATM   18  C   UNL     1     -11.099   5.844  69.094  1.00  0.00    -0.328 A  
HETATM   19  C   UNL     1     -11.162   6.041  70.476  1.00  0.00    -0.363 A  
HETATM   20  C   UNL     1     -10.840   7.276  71.021  1.00  0.00    -0.258 A  
HETATM   21  C   UNL     1     -10.464   8.340  70.196  1.00  0.00    -0.225 A  
HETATM   22  C   UNL     1     -10.102   9.664  70.814  1.00  0.00    -0.293 C  
ENDBRANCH  12  15
ENDBRANCH  10  11
ENDBRANCH   4   5
ENDBRANCH   3   4
ENDBRANCH   2   3
TORSDOF 5
ENDMDL
MODEL      220
REMARK 921   NORMALIZED FREE ENERGY PREDICTED BY IDOCK:   -2.81 KCAL/MOL
REMARK 922        TOTAL FREE ENERGY PREDICTED BY IDOCK:   -4.06 KCAL/MOL
REMARK 923 INTER-LIGAND FREE ENERGY PREDICTED BY IDOCK:   -4.22 KCAL/MOL
REMARK 924 INTRA-LIGAND FREE ENERGY PREDICTED BY IDOCK:    0.16 KCAL/MOL
REMARK 927      BINDING AFFINITY PREDICTED BY RF-SCORE:    0.00 PKD
ROOT
HETATM    1  C   UNL     1     -10.223  11.604  63.550  1.00  0.00    -0.474 C  
HETATM    2  C   UNL     1      -9.426  10.837  64.596  1.00  0.00    -0.297 C  
ENDROOT
BRANCH   2   3
HETATM    3  C   UNL     1     -10.336  10.247  65.678  1.00  0.00    -0.232 C  
BRANCH   3   4
HETATM    4  C   UNL     1      -9.782  10.419  67.102  1.00  0.00    -0.172 C  
BRANCH   4   5
HETATM    5  N   UNL     1      -9.420   9.168  67.786  1.00  0.00    -0.139 NA 
HETATM    6  C   UNL     1      -8.030   9.132  68.284  1.00  0.00    -0.103 C  
HETATM    7  C   UNL     1      -7.759   9.882  69.593  1.00  0.00    -0.149 C  
HETATM    8  C   UNL     1      -8.790   9.588  70.677  1.00  0.00    -0.208 C  
HETATM    9  C   UNL     1     -10.203   9.721  70.122  1.00  0.00    -0.328 C  
HETATM   10  C   UNL     1     -10.389   8.849  68.875  1.00  0.00    -0.212 C  
BRANCH  10  11
HETATM   11  C   UNL     1     -10.320   7.343  69.235  1.00  0.00    -0.204 C  
HETATM   12  N   UNL     1      -9.332   6.668  68.532  1.00  0.00    -0.126 N  
HETATM   13  O   UNL     1     -11.121   6.810  70.001  1.00  0.00    -0.270 OA 
HETATM   14  H   UNL     1      -8.655   7.190  67.977  1.00  0.00     0.000 HD 
BRANCH  12  15
HETATM   15  C   UNL     1      -9.263   5.268  68.586  1.00  0.00    -0.116 A  
HETATM   16  C   UNL     1      -9.723   4.504  67.498  1.00  0.00    -0.213 A  
HETATM   17  C   UNL     1     -10.415   5.098  66.309  1.00  0.00    -0.341 C  
HETATM   18  C   UNL     1      -9.647   3.104  67.595  1.00  0.00    -0.105 A  
HETATM   19  C   UNL     1      -9.097   2.491  68.724  1.00  0.00    -0.198 A  
HETATM   20  C   UNL     1      -8.621   3.261  69.776  1.00  0.00    -0.111 A  
HETATM   21  C   UNL     1      -8.700   4.655  69.727  1.00  0.00    -0.112 A  
HETATM   22  C   UNL     1      -8.160   5.468  70.874  1.00  0.00    -0.114 C  
ENDBRANCH  12  15
ENDBRANCH  10  11
ENDBRANCH   4   5
ENDBRANCH   3   4
ENDBRANCH   2   3
TORSDOF 5
ENDMDL
MODEL      221
REMARK 921   NORMALIZED FREE ENERGY PREDICTED BY IDOCK:   -2.77 KCAL/MOL
REMARK 922        TOTAL FREE ENERGY PREDICTED BY IDOCK:   -4.02 KCAL/MOL
REMARK 923 INTER-LIGAND FREE ENERGY PREDICTED BY IDOCK:   -3.45 KCAL/MOL
REMARK 924 INTRA-LIGAND FREE ENERGY PREDICTED BY IDOCK:   -0.56 KCAL/MOL
REMARK 927      BINDING AFFINITY PREDICTED BY RF-SCORE:    0.00 PKD
ROOT
HETATM    1  C   UNL     1     -10.245   7.999  66.924  1.00  0.00    -0.385 C  
HETATM    2  C   UNL     1      -9.560   8.717  65.769  1.00  0.00    -0.190 C  
ENDROOT
BRANCH   2   3
HETATM    3  C   UNL     1     -10.146  10.115  65.547  1.00  0.00    -0.338 C  
BRANCH   3   4
HETATM    4  C   UNL     1      -9.103  11.239  65.663  1.00  0.00    -0.189 C  
BRANCH   4   5
HETATM    5  N   UNL     1      -9.348  12.210  66.740  1.00  0.00    -0.206 NA 
HETATM    6  C   UNL     1     -10.081  11.656  67.897  1.00  0.00    -0.187 C  
HETATM    7  C   UNL     1      -9.257  10.823  68.886  1.00  0.00    -0.180 C  
HETATM    8  C   UNL     1      -7.939  11.484  69.273  1.00  0.00     0.198 C  
HETATM    9  C   UNL     1      -7.193  11.960  68.033  1.00  0.00    -0.090 C  
HETATM   10  C   UNL     1      -8.081  12.868  67.172  1.00  0.00    -0.117 C  
BRANCH  10  11
HETATM   11  C   UNL     1      -8.386  14.201  67.902  1.00  0.00    -0.162 C  
HETATM   12  N   UNL     1      -9.490  14.858  67.379  1.00  0.00    -0.203 N  
HETATM   13  O   UNL     1      -7.662  14.648  68.790  1.00  0.00    -0.125 OA 
HETATM   14  H   UNL     1     -10.087  14.388  66.698  1.00  0.00     0.000 HD 
BRANCH  12  15
HETATM   15  C   UNL     1      -9.787  16.167  67.786  1.00  0.00    -0.232 A  
HETATM   16  C   UNL     1     -10.572  16.380  68.933  1.00  0.00    -0.307 A  
HETATM   17  C   UNL     1     -11.233  15.273  69.697  1.00  0.00    -0.289 C  
HETATM   18  C   UNL     1     -10.857  17.707  69.301  1.00  0.00     0.431 A  
HETATM   19  C   UNL     1     -10.345  18.781  68.570  1.00  0.00    -0.312 A  
HETATM   20  C   UNL     1      -9.548  18.553  67.456  1.00  0.00    -0.303 A  
HETATM   21  C   UNL     1      -9.261  17.248  67.045  1.00  0.00    -0.252 A  
HETATM   22  C   UNL     1      -8.379  17.028  65.845  1.00  0.00    -0.016 C  
ENDBRANCH  12  15
ENDBRANCH  10  11
ENDBRANCH   4   5
ENDBRANCH   3   4
ENDBRANCH   2   3
TORSDOF 5
ENDMDL
MODEL      222
REMARK 921   NORMALIZED FREE ENERGY PREDICTED BY IDOCK:   -2.74 KCAL/MOL
REMARK 922        TOTAL FREE ENERGY PREDICTED BY IDOCK:   -3.97 KCAL/MOL
REMARK 923 INTER-LIGAND FREE ENERGY PREDICTED BY IDOCK:   -4.16 KCAL/MOL
REMARK 924 INTRA-LIGAND FREE ENERGY PREDICTED BY IDOCK:    0.19 KCAL/MOL
REMARK 927      BINDING AFFINITY PREDICTED BY RF-SCORE:    0.00 PKD
ROOT
HETATM    1  C   UNL     1     -12.740  12.748  63.976  1.00  0.00    -0.297 C  
HETATM    2  C   UNL     1     -11.458  12.916  64.780  1.00  0.00    -0.360 C  
ENDROOT
BRANCH   2   3
HETATM    3  C   UNL     1     -11.738  13.467  66.181  1.00  0.00    -0.405 C  
BRANCH   3   4
HETATM    4  C   UNL     1     -11.425  12.464  67.305  1.00  0.00    -0.354 C  
BRANCH   4   5
HETATM    5  N   UNL     1     -10.410  11.452  66.974  1.00  0.00    -0.215 NA 
HETATM    6  C   UNL     1      -9.045  11.799  67.417  1.00  0.00    -0.175 C  
HETATM    7  C   UNL     1      -8.735  11.570  68.901  1.00  0.00     0.031 C  
HETATM    8  C   UNL     1      -9.201  10.210  69.408  1.00  0.00    -0.229 C  
HETATM    9  C   UNL     1     -10.642   9.946  68.988  1.00  0.00    -0.240 C  
HETATM   10  C   UNL     1     -10.810  10.104  67.472  1.00  0.00    -0.290 C  
BRANCH  10  11
HETATM   11  C   UNL     1     -10.041   8.996  66.709  1.00  0.00    -0.274 C  
HETATM   12  N   UNL     1      -8.960   9.490  65.992  1.00  0.00    -0.154 N  
HETATM   13  O   UNL     1     -10.416   7.825  66.689  1.00  0.00    -0.292 OA 
HETATM   14  H   UNL     1      -8.662  10.456  66.122  1.00  0.00     0.000 HD 
BRANCH  12  15
HETATM   15  C   UNL     1      -8.277   8.661  65.090  1.00  0.00    -0.151 A  
HETATM   16  C   UNL     1      -7.445   7.636  65.576  1.00  0.00    -0.077 A  
HETATM   17  C   UNL     1      -7.134   7.448  67.030  1.00  0.00    -0.084 C  
HETATM   18  C   UNL     1      -6.769   6.835  64.640  1.00  0.00    -0.042 A  
HETATM   19  C   UNL     1      -6.947   7.027  63.268  1.00  0.00    -0.054 A  
HETATM   20  C   UNL     1      -7.794   8.025  62.805  1.00  0.00    -0.140 A  
HETATM   21  C   UNL     1      -8.466   8.857  63.705  1.00  0.00    -0.145 A  
HETATM   22  C   UNL     1      -9.393   9.920  63.178  1.00  0.00    -0.217 C  
ENDBRANCH  12  15
ENDBRANCH  10  11
ENDBRANCH   4   5
ENDBRANCH   3   4
ENDBRANCH   2   3
TORSDOF 5
ENDMDL
MODEL      223
REMARK 921   NORMALIZED FREE ENERGY PREDICTED BY IDOCK:   -2.73 KCAL/MOL
REMARK 922        TOTAL FREE ENERGY PREDICTED BY IDOCK:   -3.97 KCAL/MOL
REMARK 923 INTER-LIGAND FREE ENERGY PREDICTED BY IDOCK:   -3.56 KCAL/MOL
REMARK 924 INTRA-LIGAND FREE ENERGY PREDICTED BY IDOCK:   -0.41 KCAL/MOL
REMARK 927      BINDING AFFINITY PREDICTED BY RF-SCORE:    0.00 PKD
ROOT
HETATM    1  C   UNL     1     -12.323  12.253  63.597  1.00  0.00    -0.664 C  
HETATM    2  C   UNL     1     -10.802  12.198  63.594  1.00  0.00    -0.523 C  
ENDROOT
BRANCH   2   3
HETATM    3  C   UNL     1     -10.277  11.024  64.427  1.00  0.00    -0.409 C  
BRANCH   3   4
HETATM    4  C   UNL     1      -9.308  11.452  65.542  1.00  0.00    -0.208 C  
BRANCH   4   5
HETATM    5  N   UNL     1      -8.410  10.394  66.028  1.00  0.00    -0.143 NA 
HETATM    6  C   UNL     1      -7.078  10.876  66.445  1.00  0.00    -0.133 C  
HETATM    7  C   UNL     1      -6.995  11.529  67.829  1.00  0.00    -0.078 C  
HETATM    8  C   UNL     1      -7.708  10.729  68.914  1.00  0.00    -0.129 C  
HETATM    9  C   UNL     1      -9.106  10.332  68.455  1.00  0.00    -0.138 C  
HETATM   10  C   UNL     1      -9.055   9.595  67.111  1.00  0.00    -0.134 C  
BRANCH  10  11
HETATM   11  C   UNL     1      -8.357   8.219  67.257  1.00  0.00    -0.124 C  
HETATM   12  N   UNL     1      -8.879   7.460  68.294  1.00  0.00    -0.128 N  
HETATM   13  O   UNL     1      -7.390   7.893  66.569  1.00  0.00    -0.084 OA 
HETATM   14  H   UNL     1      -9.731   7.761  68.767  1.00  0.00     0.000 HD 
BRANCH  12  15
HETATM   15  C   UNL     1      -8.236   6.278  68.692  1.00  0.00    -0.112 A  
HETATM   16  C   UNL     1      -7.296   6.314  69.738  1.00  0.00    -0.079 A  
HETATM   17  C   UNL     1      -6.832   7.583  70.386  1.00  0.00    -0.047 C  
HETATM   18  C   UNL     1      -6.666   5.111  70.100  1.00  0.00    -0.043 A  
HETATM   19  C   UNL     1      -6.991   3.910  69.465  1.00  0.00    -0.042 A  
HETATM   20  C   UNL     1      -7.942   3.888  68.454  1.00  0.00    -0.075 A  
HETATM   21  C   UNL     1      -8.574   5.067  68.050  1.00  0.00    -0.103 A  
HETATM   22  C   UNL     1      -9.615   5.013  66.964  1.00  0.00    -0.163 C  
ENDBRANCH  12  15
ENDBRANCH  10  11
ENDBRANCH   4   5
ENDBRANCH   3   4
ENDBRANCH   2   3
TORSDOF 5
ENDMDL
MODEL      224
REMARK 921   NORMALIZED FREE ENERGY PREDICTED BY IDOCK:   -2.71 KCAL/MOL
REMARK 922        TOTAL FREE ENERGY PREDICTED BY IDOCK:   -3.94 KCAL/MOL
REMARK 923 INTER-LIGAND FREE ENERGY PREDICTED BY IDOCK:   -3.51 KCAL/MOL
REMARK 924 INTRA-LIGAND FREE ENERGY PREDICTED BY IDOCK:   -0.43 KCAL/MOL
REMARK 927      BINDING AFFINITY PREDICTED BY RF-SCORE:    0.00 PKD
ROOT
HETATM    1  C   UNL     1      -8.672   9.531  62.586  1.00  0.00    -0.233 C  
HETATM    2  C   UNL     1      -9.097  10.988  62.457  1.00  0.00    -0.362 C  
ENDROOT
BRANCH   2   3
HETATM    3  C   UNL     1     -10.366  11.279  63.264  1.00  0.00    -0.406 C  
BRANCH   3   4
HETATM    4  C   UNL     1     -10.397  10.572  64.629  1.00  0.00    -0.220 C  
BRANCH   4   5
HETATM    5  N   UNL     1      -9.806  11.334  65.740  1.00  0.00    -0.221 NA 
HETATM    6  C   UNL     1      -9.858  12.800  65.563  1.00  0.00    -0.156 C  
HETATM    7  C   UNL     1     -11.201  13.472  65.866  1.00  0.00    -0.310 C  
HETATM    8  C   UNL     1     -11.823  13.006  67.178  1.00  0.00    -0.431 C  
HETATM    9  C   UNL     1     -11.814  11.485  67.264  1.00  0.00    -0.061 C  
HETATM   10  C   UNL     1     -10.401  10.930  67.047  1.00  0.00    -0.231 C  
BRANCH  10  11
HETATM   11  C   UNL     1      -9.462  11.329  68.214  1.00  0.00    -0.190 C  
HETATM   12  N   UNL     1      -8.119  11.260  67.870  1.00  0.00    -0.116 N  
HETATM   13  O   UNL     1      -9.882  11.593  69.340  1.00  0.00     0.189 OA 
HETATM   14  H   UNL     1      -7.850  11.112  66.898  1.00  0.00     0.000 HD 
BRANCH  12  15
HETATM   15  C   UNL     1      -7.133  11.393  68.858  1.00  0.00    -0.109 A  
HETATM   16  C   UNL     1      -6.725  12.675  69.269  1.00  0.00    -0.054 A  
HETATM   17  C   UNL     1      -7.197  13.938  68.616  1.00  0.00    -0.108 C  
HETATM   18  C   UNL     1      -5.726  12.766  70.253  1.00  0.00    -0.165 A  
HETATM   19  C   UNL     1      -5.180  11.617  70.832  1.00  0.00    -0.134 A  
HETATM   20  C   UNL     1      -5.614  10.360  70.434  1.00  0.00    -0.073 A  
HETATM   21  C   UNL     1      -6.590  10.228  69.442  1.00  0.00    -0.058 A  
HETATM   22  C   UNL     1      -7.057   8.853  69.043  1.00  0.00    -0.064 C  
ENDBRANCH  12  15
ENDBRANCH  10  11
ENDBRANCH   4   5
ENDBRANCH   3   4
ENDBRANCH   2   3
TORSDOF 5
ENDMDL
MODEL      225
REMARK 921   NORMALIZED FREE ENERGY PREDICTED BY IDOCK:   -2.69 KCAL/MOL
REMARK 922        TOTAL FREE ENERGY PREDICTED BY IDOCK:   -3.91 KCAL/MOL
REMARK 923 INTER-LIGAND FREE ENERGY PREDICTED BY IDOCK:   -3.66 KCAL/MOL
REMARK 924 INTRA-LIGAND FREE ENERGY PREDICTED BY IDOCK:   -0.25 KCAL/MOL
REMARK 927      BINDING AFFINITY PREDICTED BY RF-SCORE:    0.00 PKD
ROOT
HETATM    1  C   UNL     1     -11.230  15.148  68.071  1.00  0.00    -0.329 C  
HETATM    2  C   UNL     1     -10.258  13.976  68.092  1.00  0.00    -0.243 C  
ENDROOT
BRANCH   2   3
HETATM    3  C   UNL     1     -10.780  12.794  67.270  1.00  0.00    -0.256 C  
BRANCH   3   4
HETATM    4  C   UNL     1     -10.954  11.508  68.093  1.00  0.00    -0.228 C  
BRANCH   4   5
HETATM    5  N   UNL     1     -10.087  10.389  67.695  1.00  0.00    -0.180 NA 
HETATM    6  C   UNL     1      -9.184  10.696  66.567  1.00  0.00    -0.166 C  
HETATM    7  C   UNL     1      -7.925  11.502  66.907  1.00  0.00    -0.164 C  
HETATM    8  C   UNL     1      -7.190  10.976  68.136  1.00  0.00    -0.083 C  
HETATM    9  C   UNL     1      -8.163  10.757  69.289  1.00  0.00    -0.087 C  
HETATM   10  C   UNL     1      -9.327   9.854  68.862  1.00  0.00    -0.170 C  
BRANCH  10  11
HETATM   11  C   UNL     1      -8.835   8.413  68.571  1.00  0.00    -0.136 C  
HETATM   12  N   UNL     1      -9.761   7.663  67.861  1.00  0.00    -0.144 N  
HETATM   13  O   UNL     1      -7.769   7.978  69.006  1.00  0.00    -0.096 OA 
HETATM   14  H   UNL     1     -10.586   8.114  67.465  1.00  0.00     0.000 HD 
BRANCH  12  15
HETATM   15  C   UNL     1      -9.565   6.285  67.687  1.00  0.00    -0.114 A  
HETATM   16  C   UNL     1      -8.909   5.814  66.535  1.00  0.00    -0.126 A  
HETATM   17  C   UNL     1      -8.509   6.699  65.394  1.00  0.00    -0.112 C  
HETATM   18  C   UNL     1      -8.742   4.425  66.391  1.00  0.00    -0.112 A  
HETATM   19  C   UNL     1      -9.182   3.543  67.381  1.00  0.00    -0.226 A  
HETATM   20  C   UNL     1      -9.801   4.027  68.525  1.00  0.00    -0.044 A  
HETATM   21  C   UNL     1     -10.006   5.399  68.694  1.00  0.00    -0.232 A  
HETATM   22  C   UNL     1     -10.664   5.900  69.952  1.00  0.00    -0.406 C  
ENDBRANCH  12  15
ENDBRANCH  10  11
ENDBRANCH   4   5
ENDBRANCH   3   4
ENDBRANCH   2   3
TORSDOF 5
ENDMDL
MODEL      226
REMARK 921   NORMALIZED FREE ENERGY PREDICTED BY IDOCK:   -2.67 KCAL/MOL
REMARK 922        TOTAL FREE ENERGY PREDICTED BY IDOCK:   -3.89 KCAL/MOL
REMARK 923 INTER-LIGAND FREE ENERGY PREDICTED BY IDOCK:   -3.79 KCAL/MOL
REMARK 924 INTRA-LIGAND FREE ENERGY PREDICTED BY IDOCK:   -0.10 KCAL/MOL
REMARK 927      BINDING AFFINITY PREDICTED BY RF-SCORE:    0.00 PKD
ROOT
HETATM    1  C   UNL     1      -5.439  12.436  70.813  1.00  0.00    -0.168 C  
HETATM    2  C   UNL     1      -6.223  11.508  69.896  1.00  0.00    -0.147 C  
ENDROOT
BRANCH   2   3
HETATM    3  C   UNL     1      -7.090  12.292  68.906  1.00  0.00    -0.088 C  
BRANCH   3   4
HETATM    4  C   UNL     1      -7.993  11.396  68.043  1.00  0.00    -0.127 C  
BRANCH   4   5
HETATM    5  N   UNL     1      -8.641  10.287  68.760  1.00  0.00    -0.130 NA 
HETATM    6  C   UNL     1     -10.097  10.451  68.939  1.00  0.00    -0.201 C  
HETATM    7  C   UNL     1     -10.971  10.124  67.723  1.00  0.00    -0.338 C  
HETATM    8  C   UNL     1     -10.596   8.808  67.051  1.00  0.00    -0.283 C  
HETATM    9  C   UNL     1      -9.091   8.734  66.819  1.00  0.00    -0.180 C  
HETATM   10  C   UNL     1      -8.322   8.975  68.124  1.00  0.00    -0.121 C  
BRANCH  10  11
HETATM   11  C   UNL     1      -8.555   7.817  69.129  1.00  0.00    -0.138 C  
HETATM   12  N   UNL     1      -9.201   8.232  70.285  1.00  0.00    -0.153 N  
HETATM   13  O   UNL     1      -8.129   6.680  68.936  1.00  0.00    -0.113 OA 
HETATM   14  H   UNL     1      -9.596   9.171  70.338  1.00  0.00     0.000 HD 
BRANCH  12  15
HETATM   15  C   UNL     1      -9.313   7.361  71.379  1.00  0.00    -0.142 A  
HETATM   16  C   UNL     1      -8.361   7.415  72.413  1.00  0.00    -0.123 A  
HETATM   17  C   UNL     1      -7.135   8.275  72.361  1.00  0.00    -0.117 C  
HETATM   18  C   UNL     1      -8.501   6.518  73.486  1.00  0.00    -0.129 A  
HETATM   19  C   UNL     1      -9.575   5.625  73.541  1.00  0.00    -0.140 A  
HETATM   20  C   UNL     1     -10.521   5.606  72.526  1.00  0.00    -0.255 A  
HETATM   21  C   UNL     1     -10.404   6.466  71.430  1.00  0.00    -0.240 A  
HETATM   22  C   UNL     1     -11.453   6.438  70.352  1.00  0.00    -0.458 C  
ENDBRANCH  12  15
ENDBRANCH  10  11
ENDBRANCH   4   5
ENDBRANCH   3   4
ENDBRANCH   2   3
TORSDOF 5
ENDMDL
MODEL      227
REMARK 921   NORMALIZED FREE ENERGY PREDICTED BY IDOCK:   -2.67 KCAL/MOL
REMARK 922        TOTAL FREE ENERGY PREDICTED BY IDOCK:   -3.89 KCAL/MOL
REMARK 923 INTER-LIGAND FREE ENERGY PREDICTED BY IDOCK:   -3.59 KCAL/MOL
REMARK 924 INTRA-LIGAND FREE ENERGY PREDICTED BY IDOCK:   -0.31 KCAL/MOL
REMARK 927      BINDING AFFINITY PREDICTED BY RF-SCORE:    0.00 PKD
ROOT
HETATM    1  C   UNL     1      -9.313  15.131  66.324  1.00  0.00    -0.348 C  
HETATM    2  C   UNL     1      -9.382  14.259  67.571  1.00  0.00    -0.199 C  
ENDROOT
BRANCH   2   3
HETATM    3  C   UNL     1      -7.989  13.812  68.024  1.00  0.00    -0.156 C  
BRANCH   3   4
HETATM    4  C   UNL     1      -7.555  12.464  67.424  1.00  0.00    -0.160 C  
BRANCH   4   5
HETATM    5  N   UNL     1      -8.326  11.299  67.885  1.00  0.00    -0.127 NA 
HETATM    6  C   UNL     1      -9.275  10.769  66.886  1.00  0.00    -0.156 C  
HETATM    7  C   UNL     1      -8.678   9.889  65.783  1.00  0.00    -0.157 C  
HETATM    8  C   UNL     1      -7.716   8.832  66.314  1.00  0.00    -0.098 C  
HETATM    9  C   UNL     1      -6.711   9.455  67.276  1.00  0.00    -0.075 C  
HETATM   10  C   UNL     1      -7.426  10.224  68.394  1.00  0.00    -0.090 C  
BRANCH  10  11
HETATM   11  C   UNL     1      -8.208   9.258  69.321  1.00  0.00    -0.108 C  
HETATM   12  N   UNL     1      -7.946   7.923  69.048  1.00  0.00    -0.120 N  
HETATM   13  O   UNL     1      -9.029   9.655  70.146  1.00  0.00    -0.218 OA 
HETATM   14  H   UNL     1      -7.194   7.672  68.406  1.00  0.00     0.000 HD 
BRANCH  12  15
HETATM   15  C   UNL     1      -8.714   6.918  69.653  1.00  0.00    -0.141 A  
HETATM   16  C   UNL     1      -9.904   6.485  69.041  1.00  0.00    -0.153 A  
HETATM   17  C   UNL     1     -10.484   7.131  67.819  1.00  0.00    -0.284 C  
HETATM   18  C   UNL     1     -10.652   5.484  69.685  1.00  0.00    -0.375 A  
HETATM   19  C   UNL     1     -10.207   4.911  70.879  1.00  0.00    -0.272 A  
HETATM   20  C   UNL     1      -9.016   5.330  71.455  1.00  0.00    -0.156 A  
HETATM   21  C   UNL     1      -8.256   6.339  70.857  1.00  0.00    -0.126 A  
HETATM   22  C   UNL     1      -6.958   6.763  71.492  1.00  0.00    -0.067 C  
ENDBRANCH  12  15
ENDBRANCH  10  11
ENDBRANCH   4   5
ENDBRANCH   3   4
ENDBRANCH   2   3
TORSDOF 5
ENDMDL
MODEL      228
REMARK 921   NORMALIZED FREE ENERGY PREDICTED BY IDOCK:   -2.64 KCAL/MOL
REMARK 922        TOTAL FREE ENERGY PREDICTED BY IDOCK:   -3.84 KCAL/MOL
REMARK 923 INTER-LIGAND FREE ENERGY PREDICTED BY IDOCK:   -3.46 KCAL/MOL
REMARK 924 INTRA-LIGAND FREE ENERGY PREDICTED BY IDOCK:   -0.38 KCAL/MOL
REMARK 927      BINDING AFFINITY PREDICTED BY RF-SCORE:    0.00 PKD
ROOT
HETATM    1  C   UNL     1      -6.639  12.381  67.327  1.00  0.00    -0.136 C  
HETATM    2  C   UNL     1      -6.079  11.184  66.570  1.00  0.00    -0.144 C  
ENDROOT
BRANCH   2   3
HETATM    3  C   UNL     1      -7.195  10.304  65.999  1.00  0.00    -0.128 C  
BRANCH   3   4
HETATM    4  C   UNL     1      -6.847   8.806  65.990  1.00  0.00    -0.073 C  
BRANCH   4   5
HETATM    5  N   UNL     1      -7.769   7.947  66.749  1.00  0.00    -0.097 NA 
HETATM    6  C   UNL     1      -8.550   7.013  65.913  1.00  0.00    -0.145 C  
HETATM    7  C   UNL     1      -7.820   5.750  65.444  1.00  0.00    -0.107 C  
HETATM    8  C   UNL     1      -7.050   5.053  66.560  1.00  0.00    -0.069 C  
HETATM    9  C   UNL     1      -6.201   6.055  67.333  1.00  0.00    -0.033 C  
HETATM   10  C   UNL     1      -7.056   7.223  67.841  1.00  0.00    -0.085 C  
BRANCH  10  11
HETATM   11  C   UNL     1      -8.062   6.747  68.920  1.00  0.00    -0.120 C  
HETATM   12  N   UNL     1      -8.963   7.737  69.288  1.00  0.00    -0.139 N  
HETATM   13  O   UNL     1      -7.997   5.634  69.439  1.00  0.00    -0.096 OA 
HETATM   14  H   UNL     1      -9.008   8.607  68.757  1.00  0.00     0.000 HD 
BRANCH  12  15
HETATM   15  C   UNL     1      -9.810   7.543  70.388  1.00  0.00    -0.183 A  
HETATM   16  C   UNL     1      -9.408   7.978  71.664  1.00  0.00    -0.208 A  
HETATM   17  C   UNL     1      -8.047   8.536  71.954  1.00  0.00    -0.185 C  
HETATM   18  C   UNL     1     -10.281   7.755  72.743  1.00  0.00    -0.360 A  
HETATM   19  C   UNL     1     -11.525   7.151  72.548  1.00  0.00    -0.297 A  
HETATM   20  C   UNL     1     -11.918   6.754  71.277  1.00  0.00    -0.414 A  
HETATM   21  C   UNL     1     -11.069   6.937  70.183  1.00  0.00    -0.344 A  
HETATM   22  C   UNL     1     -11.526   6.514  68.812  1.00  0.00    -0.099 C  
ENDBRANCH  12  15
ENDBRANCH  10  11
ENDBRANCH   4   5
ENDBRANCH   3   4
ENDBRANCH   2   3
TORSDOF 5
ENDMDL
MODEL      229
REMARK 921   NORMALIZED FREE ENERGY PREDICTED BY IDOCK:   -2.62 KCAL/MOL
REMARK 922        TOTAL FREE ENERGY PREDICTED BY IDOCK:   -3.83 KCAL/MOL
REMARK 923 INTER-LIGAND FREE ENERGY PREDICTED BY IDOCK:   -3.41 KCAL/MOL
REMARK 924 INTRA-LIGAND FREE ENERGY PREDICTED BY IDOCK:   -0.42 KCAL/MOL
REMARK 927      BINDING AFFINITY PREDICTED BY RF-SCORE:    0.00 PKD
ROOT
HETATM    1  C   UNL     1     -10.748  11.398  66.888  1.00  0.00    -0.308 C  
HETATM    2  C   UNL     1      -9.563  10.473  67.132  1.00  0.00    -0.194 C  
ENDROOT
BRANCH   2   3
HETATM    3  C   UNL     1      -9.971   9.231  67.929  1.00  0.00    -0.228 C  
BRANCH   3   4
HETATM    4  C   UNL     1      -9.118   9.008  69.190  1.00  0.00    -0.140 C  
BRANCH   4   5
HETATM    5  N   UNL     1      -8.791   7.605  69.482  1.00  0.00    -0.139 NA 
HETATM    6  C   UNL     1      -7.948   6.955  68.458  1.00  0.00    -0.120 C  
HETATM    7  C   UNL     1      -6.450   7.275  68.510  1.00  0.00    -0.040 C  
HETATM    8  C   UNL     1      -5.865   7.181  69.915  1.00  0.00    -0.023 C  
HETATM    9  C   UNL     1      -6.735   7.938  70.911  1.00  0.00    -0.037 C  
HETATM   10  C   UNL     1      -8.191   7.462  70.841  1.00  0.00    -0.114 C  
BRANCH  10  11
HETATM   11  C   UNL     1      -8.323   6.000  71.339  1.00  0.00    -0.127 C  
HETATM   12  N   UNL     1      -9.487   5.387  70.900  1.00  0.00    -0.162 N  
HETATM   13  O   UNL     1      -7.510   5.489  72.108  1.00  0.00    -0.094 OA 
HETATM   14  H   UNL     1     -10.071   5.844  70.201  1.00  0.00     0.000 HD 
BRANCH  12  15
HETATM   15  C   UNL     1      -9.862   4.138  71.417  1.00  0.00    -0.184 A  
HETATM   16  C   UNL     1     -10.608   4.071  72.608  1.00  0.00    -0.186 A  
HETATM   17  C   UNL     1     -10.928   5.270  73.448  1.00  0.00    -0.372 C  
HETATM   18  C   UNL     1     -10.954   2.800  73.100  1.00  0.00    -0.214 A  
HETATM   19  C   UNL     1     -10.599   1.640  72.407  1.00  0.00    -0.199 A  
HETATM   20  C   UNL     1      -9.887   1.726  71.218  1.00  0.00    -0.169 A  
HETATM   21  C   UNL     1      -9.505   2.970  70.709  1.00  0.00    -0.228 A  
HETATM   22  C   UNL     1      -8.750   3.036  69.408  1.00  0.00    -0.131 C  
ENDBRANCH  12  15
ENDBRANCH  10  11
ENDBRANCH   4   5
ENDBRANCH   3   4
ENDBRANCH   2   3
TORSDOF 5
ENDMDL
MODEL      230
REMARK 921   NORMALIZED FREE ENERGY PREDICTED BY IDOCK:   -2.58 KCAL/MOL
REMARK 922        TOTAL FREE ENERGY PREDICTED BY IDOCK:   -3.77 KCAL/MOL
REMARK 923 INTER-LIGAND FREE ENERGY PREDICTED BY IDOCK:   -3.63 KCAL/MOL
REMARK 924 INTRA-LIGAND FREE ENERGY PREDICTED BY IDOCK:   -0.14 KCAL/MOL
REMARK 927      BINDING AFFINITY PREDICTED BY RF-SCORE:    0.00 PKD
ROOT
HETATM    1  C   UNL     1      -7.815  16.109  68.328  1.00  0.00    -0.153 C  
HETATM    2  C   UNL     1      -6.484  15.390  68.157  1.00  0.00    -0.133 C  
ENDROOT
BRANCH   2   3
HETATM    3  C   UNL     1      -6.676  13.950  67.673  1.00  0.00    -0.189 C  
BRANCH   3   4
HETATM    4  C   UNL     1      -6.937  12.953  68.815  1.00  0.00    -0.103 C  
BRANCH   4   5
HETATM    5  N   UNL     1      -7.399  11.623  68.388  1.00  0.00    -0.089 NA 
HETATM    6  C   UNL     1      -7.437  11.437  66.923  1.00  0.00    -0.147 C  
HETATM    7  C   UNL     1      -6.095  11.148  66.242  1.00  0.00    -0.117 C  
HETATM    8  C   UNL     1      -5.276  10.081  66.959  1.00  0.00    -0.041 C  
HETATM    9  C   UNL     1      -5.206  10.372  68.453  1.00  0.00    -0.034 C  
HETATM   10  C   UNL     1      -6.610  10.541  69.047  1.00  0.00    -0.060 C  
BRANCH  10  11
HETATM   11  C   UNL     1      -7.393   9.204  69.012  1.00  0.00    -0.073 C  
HETATM   12  N   UNL     1      -8.767   9.384  69.092  1.00  0.00    -0.136 N  
HETATM   13  O   UNL     1      -6.831   8.110  68.999  1.00  0.00    -0.057 OA 
HETATM   14  H   UNL     1      -9.162  10.321  69.018  1.00  0.00     0.000 HD 
BRANCH  12  15
HETATM   15  C   UNL     1      -9.611   8.279  69.274  1.00  0.00    -0.164 A  
HETATM   16  C   UNL     1     -10.184   7.647  68.155  1.00  0.00    -0.236 A  
HETATM   17  C   UNL     1     -10.048   8.166  66.756  1.00  0.00    -0.365 C  
HETATM   18  C   UNL     1     -11.033   6.550  68.380  1.00  0.00    -0.358 A  
HETATM   19  C   UNL     1     -11.273   6.080  69.674  1.00  0.00    -0.428 A  
HETATM   20  C   UNL     1     -10.677   6.698  70.765  1.00  0.00    -0.282 A  
HETATM   21  C   UNL     1      -9.844   7.806  70.584  1.00  0.00    -0.182 A  
HETATM   22  C   UNL     1      -9.195   8.447  71.781  1.00  0.00    -0.287 C  
ENDBRANCH  12  15
ENDBRANCH  10  11
ENDBRANCH   4   5
ENDBRANCH   3   4
ENDBRANCH   2   3
TORSDOF 5
ENDMDL
MODEL      231
REMARK 921   NORMALIZED FREE ENERGY PREDICTED BY IDOCK:   -2.57 KCAL/MOL
REMARK 922        TOTAL FREE ENERGY PREDICTED BY IDOCK:   -3.75 KCAL/MOL
REMARK 923 INTER-LIGAND FREE ENERGY PREDICTED BY IDOCK:   -3.55 KCAL/MOL
REMARK 924 INTRA-LIGAND FREE ENERGY PREDICTED BY IDOCK:   -0.20 KCAL/MOL
REMARK 927      BINDING AFFINITY PREDICTED BY RF-SCORE:    0.00 PKD
ROOT
HETATM    1  C   UNL     1      -5.645  11.107  70.570  1.00  0.00    -0.135 C  
HETATM    2  C   UNL     1      -6.290   9.808  70.107  1.00  0.00    -0.076 C  
ENDROOT
BRANCH   2   3
HETATM    3  C   UNL     1      -7.189  10.028  68.886  1.00  0.00    -0.077 C  
BRANCH   3   4
HETATM    4  C   UNL     1      -7.986   8.777  68.482  1.00  0.00    -0.112 C  
BRANCH   4   5
HETATM    5  N   UNL     1      -8.463   7.952  69.602  1.00  0.00    -0.131 NA 
HETATM    6  C   UNL     1      -9.673   8.477  70.267  1.00  0.00    -0.171 C  
HETATM    7  C   UNL     1     -11.005   8.214  69.557  1.00  0.00    -0.056 C  
HETATM    8  C   UNL     1     -11.159   6.772  69.086  1.00  0.00    -0.270 C  
HETATM    9  C   UNL     1      -9.913   6.316  68.337  1.00  0.00    -0.156 C  
HETATM   10  C   UNL     1      -8.653   6.533  69.185  1.00  0.00    -0.129 C  
BRANCH  10  11
HETATM   11  C   UNL     1      -8.649   5.600  70.423  1.00  0.00    -0.132 C  
HETATM   12  N   UNL     1      -9.810   4.848  70.532  1.00  0.00    -0.209 N  
HETATM   13  O   UNL     1      -7.740   5.605  71.250  1.00  0.00    -0.103 OA 
HETATM   14  H   UNL     1     -10.483   4.837  69.765  1.00  0.00     0.000 HD 
BRANCH  12  15
HETATM   15  C   UNL     1     -10.059   4.103  71.694  1.00  0.00    -0.128 A  
HETATM   16  C   UNL     1      -9.660   2.755  71.757  1.00  0.00    -0.218 A  
HETATM   17  C   UNL     1      -9.086   2.010  70.591  1.00  0.00    -0.161 C  
HETATM   18  C   UNL     1      -9.938   2.040  72.935  1.00  0.00    -0.176 A  
HETATM   19  C   UNL     1     -10.558   2.659  74.023  1.00  0.00    -0.245 A  
HETATM   20  C   UNL     1     -10.919   3.998  73.953  1.00  0.00    -0.289 A  
HETATM   21  C   UNL     1     -10.681   4.737  72.791  1.00  0.00    -0.282 A  
HETATM   22  C   UNL     1     -11.065   6.192  72.748  1.00  0.00    -0.294 C  
ENDBRANCH  12  15
ENDBRANCH  10  11
ENDBRANCH   4   5
ENDBRANCH   3   4
ENDBRANCH   2   3
TORSDOF 5
ENDMDL
MODEL      232
REMARK 921   NORMALIZED FREE ENERGY PREDICTED BY IDOCK:   -2.54 KCAL/MOL
REMARK 922        TOTAL FREE ENERGY PREDICTED BY IDOCK:   -3.71 KCAL/MOL
REMARK 923 INTER-LIGAND FREE ENERGY PREDICTED BY IDOCK:   -4.44 KCAL/MOL
REMARK 924 INTRA-LIGAND FREE ENERGY PREDICTED BY IDOCK:    0.72 KCAL/MOL
REMARK 927      BINDING AFFINITY PREDICTED BY RF-SCORE:    0.00 PKD
ROOT
HETATM    1  C   UNL     1      -9.187  17.366  66.822  1.00  0.00    -0.274 C  
HETATM    2  C   UNL     1      -9.048  16.098  65.990  1.00  0.00    -0.354 C  
ENDROOT
BRANCH   2   3
HETATM    3  C   UNL     1     -10.399  15.637  65.434  1.00  0.00    -0.421 C  
BRANCH   3   4
HETATM    4  C   UNL     1     -10.563  14.108  65.422  1.00  0.00    -0.346 C  
BRANCH   4   5
HETATM    5  N   UNL     1      -9.825  13.393  66.474  1.00  0.00    -0.279 NA 
HETATM    6  C   UNL     1     -10.393  13.553  67.828  1.00  0.00    -0.241 C  
HETATM    7  C   UNL     1     -11.618  12.693  68.155  1.00  0.00    -0.386 C  
HETATM    8  C   UNL     1     -11.453  11.233  67.745  1.00  0.00    -0.350 C  
HETATM    9  C   UNL     1     -10.942  11.133  66.313  1.00  0.00    -0.227 C  
HETATM   10  C   UNL     1      -9.657  11.950  66.130  1.00  0.00    -0.234 C  
BRANCH  10  11
HETATM   11  C   UNL     1      -8.486  11.335  66.937  1.00  0.00    -0.152 C  
HETATM   12  N   UNL     1      -8.626  11.515  68.306  1.00  0.00    -0.155 N  
HETATM   13  O   UNL     1      -7.509  10.820  66.396  1.00  0.00    -0.131 OA 
HETATM   14  H   UNL     1      -9.500  11.877  68.686  1.00  0.00     0.000 HD 
BRANCH  12  15
HETATM   15  C   UNL     1      -7.565  11.198  69.168  1.00  0.00    -0.098 A  
HETATM   16  C   UNL     1      -6.586  12.167  69.455  1.00  0.00    -0.090 A  
HETATM   17  C   UNL     1      -6.531  13.506  68.785  1.00  0.00    -0.098 C  
HETATM   18  C   UNL     1      -5.534  11.807  70.314  1.00  0.00    -0.128 A  
HETATM   19  C   UNL     1      -5.482  10.538  70.895  1.00  0.00    -0.093 A  
HETATM   20  C   UNL     1      -6.472   9.603  70.624  1.00  0.00    -0.105 A  
HETATM   21  C   UNL     1      -7.523   9.915  69.756  1.00  0.00    -0.140 A  
HETATM   22  C   UNL     1      -8.594   8.891  69.493  1.00  0.00    -0.134 C  
ENDBRANCH  12  15
ENDBRANCH  10  11
ENDBRANCH   4   5
ENDBRANCH   3   4
ENDBRANCH   2   3
TORSDOF 5
ENDMDL
MODEL      233
REMARK 921   NORMALIZED FREE ENERGY PREDICTED BY IDOCK:   -2.51 KCAL/MOL
REMARK 922        TOTAL FREE ENERGY PREDICTED BY IDOCK:   -3.68 KCAL/MOL
REMARK 923 INTER-LIGAND FREE ENERGY PREDICTED BY IDOCK:   -3.44 KCAL/MOL
REMARK 924 INTRA-LIGAND FREE ENERGY PREDICTED BY IDOCK:   -0.24 KCAL/MOL
REMARK 927      BINDING AFFINITY PREDICTED BY RF-SCORE:    0.00 PKD
ROOT
HETATM    1  C   UNL     1      -5.681  12.367  70.484  1.00  0.00    -0.162 C  
HETATM    2  C   UNL     1      -6.601  11.674  69.489  1.00  0.00    -0.111 C  
ENDROOT
BRANCH   2   3
HETATM    3  C   UNL     1      -7.036  12.621  68.366  1.00  0.00    -0.094 C  
BRANCH   3   4
HETATM    4  C   UNL     1      -7.417  11.893  67.066  1.00  0.00    -0.126 C  
BRANCH   4   5
HETATM    5  N   UNL     1      -8.235  10.684  67.245  1.00  0.00    -0.116 NA 
HETATM    6  C   UNL     1      -9.635  10.830  66.798  1.00  0.00    -0.172 C  
HETATM    7  C   UNL     1      -9.880  10.726  65.289  1.00  0.00    -0.329 C  
HETATM    8  C   UNL     1      -9.167   9.541  64.647  1.00  0.00    -0.247 C  
HETATM    9  C   UNL     1      -7.707   9.492  65.082  1.00  0.00    -0.112 C  
HETATM   10  C   UNL     1      -7.590   9.498  66.611  1.00  0.00    -0.097 C  
BRANCH  10  11
HETATM   11  C   UNL     1      -8.155   8.187  67.217  1.00  0.00    -0.121 C  
HETATM   12  N   UNL     1      -8.831   8.396  68.410  1.00  0.00    -0.139 N  
HETATM   13  O   UNL     1      -7.941   7.083  66.718  1.00  0.00    -0.105 OA 
HETATM   14  H   UNL     1      -9.037   9.346  68.719  1.00  0.00     0.000 HD 
BRANCH  12  15
HETATM   15  C   UNL     1      -9.232   7.302  69.192  1.00  0.00    -0.139 A  
HETATM   16  C   UNL     1      -8.507   6.971  70.351  1.00  0.00    -0.141 A  
HETATM   17  C   UNL     1      -7.231   7.649  70.748  1.00  0.00    -0.062 C  
HETATM   18  C   UNL     1      -8.934   5.861  71.101  1.00  0.00    -0.145 A  
HETATM   19  C   UNL     1     -10.064   5.132  70.726  1.00  0.00    -0.303 A  
HETATM   20  C   UNL     1     -10.784   5.490  69.594  1.00  0.00    -0.349 A  
HETATM   21  C   UNL     1     -10.379   6.573  68.810  1.00  0.00    -0.220 A  
HETATM   22  C   UNL     1     -11.187   6.953  67.598  1.00  0.00    -0.153 C  
ENDBRANCH  12  15
ENDBRANCH  10  11
ENDBRANCH   4   5
ENDBRANCH   3   4
ENDBRANCH   2   3
TORSDOF 5
ENDMDL
MODEL      234
REMARK 921   NORMALIZED FREE ENERGY PREDICTED BY IDOCK:   -2.50 KCAL/MOL
REMARK 922        TOTAL FREE ENERGY PREDICTED BY IDOCK:   -3.67 KCAL/MOL
REMARK 923 INTER-LIGAND FREE ENERGY PREDICTED BY IDOCK:   -3.62 KCAL/MOL
REMARK 924 INTRA-LIGAND FREE ENERGY PREDICTED BY IDOCK:   -0.04 KCAL/MOL
REMARK 927      BINDING AFFINITY PREDICTED BY RF-SCORE:    0.00 PKD
ROOT
HETATM    1  C   UNL     1     -11.366  11.829  63.874  1.00  0.00    -0.494 C  
HETATM    2  C   UNL     1     -10.365  10.988  64.655  1.00  0.00    -0.410 C  
ENDROOT
BRANCH   2   3
HETATM    3  C   UNL     1      -9.796  11.754  65.852  1.00  0.00    -0.265 C  
BRANCH   3   4
HETATM    4  C   UNL     1      -9.964  11.010  67.188  1.00  0.00    -0.187 C  
BRANCH   4   5
HETATM    5  N   UNL     1      -9.017   9.907  67.412  1.00  0.00    -0.135 NA 
HETATM    6  C   UNL     1      -8.167  10.074  68.608  1.00  0.00    -0.111 C  
HETATM    7  C   UNL     1      -8.817   9.738  69.954  1.00  0.00    -0.248 C  
HETATM    8  C   UNL     1      -9.577   8.417  69.940  1.00  0.00    -0.171 C  
HETATM    9  C   UNL     1     -10.497   8.340  68.728  1.00  0.00    -0.200 C  
HETATM   10  C   UNL     1      -9.718   8.590  67.431  1.00  0.00    -0.170 C  
BRANCH  10  11
HETATM   11  C   UNL     1      -8.716   7.441  67.153  1.00  0.00    -0.121 C  
HETATM   12  N   UNL     1      -8.697   7.056  65.820  1.00  0.00    -0.254 N  
HETATM   13  O   UNL     1      -8.080   6.889  68.049  1.00  0.00    -0.113 OA 
HETATM   14  H   UNL     1      -9.191   7.613  65.122  1.00  0.00     0.000 HD 
BRANCH  12  15
HETATM   15  C   UNL     1      -7.999   5.903  65.431  1.00  0.00    -0.120 A  
HETATM   16  C   UNL     1      -8.656   4.659  65.424  1.00  0.00    -0.130 A  
HETATM   17  C   UNL     1     -10.049   4.460  65.938  1.00  0.00    -0.262 C  
HETATM   18  C   UNL     1      -7.918   3.526  65.038  1.00  0.00    -0.090 A  
HETATM   19  C   UNL     1      -6.584   3.638  64.639  1.00  0.00    -0.043 A  
HETATM   20  C   UNL     1      -5.960   4.878  64.625  1.00  0.00    -0.021 A  
HETATM   21  C   UNL     1      -6.653   6.025  65.023  1.00  0.00    -0.043 A  
HETATM   22  C   UNL     1      -5.959   7.360  64.981  1.00  0.00    -0.038 C  
ENDBRANCH  12  15
ENDBRANCH  10  11
ENDBRANCH   4   5
ENDBRANCH   3   4
ENDBRANCH   2   3
TORSDOF 5
ENDMDL
MODEL      235
REMARK 921   NORMALIZED FREE ENERGY PREDICTED BY IDOCK:   -2.48 KCAL/MOL
REMARK 922        TOTAL FREE ENERGY PREDICTED BY IDOCK:   -3.64 KCAL/MOL
REMARK 923 INTER-LIGAND FREE ENERGY PREDICTED BY IDOCK:   -3.56 KCAL/MOL
REMARK 924 INTRA-LIGAND FREE ENERGY PREDICTED BY IDOCK:   -0.09 KCAL/MOL
REMARK 927      BINDING AFFINITY PREDICTED BY RF-SCORE:    0.00 PKD
ROOT
HETATM    1  C   UNL     1      -6.589   9.894  65.761  1.00  0.00    -0.094 C  
HETATM    2  C   UNL     1      -7.833  10.758  65.917  1.00  0.00    -0.131 C  
ENDROOT
BRANCH   2   3
HETATM    3  C   UNL     1      -8.847  10.120  66.872  1.00  0.00    -0.142 C  
BRANCH   3   4
HETATM    4  C   UNL     1      -8.544  10.393  68.355  1.00  0.00    -0.128 C  
BRANCH   4   5
HETATM    5  N   UNL     1      -8.586   9.210  69.227  1.00  0.00    -0.133 NA 
HETATM    6  C   UNL     1      -7.902   8.024  68.672  1.00  0.00    -0.118 C  
HETATM    7  C   UNL     1      -6.374   8.007  68.787  1.00  0.00    -0.044 C  
HETATM    8  C   UNL     1      -5.873   8.392  70.175  1.00  0.00    -0.024 C  
HETATM    9  C   UNL     1      -6.555   9.666  70.658  1.00  0.00    -0.114 C  
HETATM   10  C   UNL     1      -8.081   9.530  70.595  1.00  0.00    -0.113 C  
BRANCH  10  11
HETATM   11  C   UNL     1      -8.589   8.481  71.617  1.00  0.00    -0.187 C  
HETATM   12  N   UNL     1      -9.112   7.349  71.009  1.00  0.00    -0.152 N  
HETATM   13  O   UNL     1      -8.593   8.689  72.829  1.00  0.00    -0.394 OA 
HETATM   14  H   UNL     1      -9.000   7.212  70.005  1.00  0.00     0.000 HD 
BRANCH  12  15
HETATM   15  C   UNL     1      -9.794   6.391  71.775  1.00  0.00    -0.162 A  
HETATM   16  C   UNL     1      -9.097   5.281  72.285  1.00  0.00    -0.149 A  
HETATM   17  C   UNL     1      -7.667   4.980  71.951  1.00  0.00    -0.107 C  
HETATM   18  C   UNL     1      -9.818   4.338  73.038  1.00  0.00    -0.177 A  
HETATM   19  C   UNL     1     -11.178   4.518  73.302  1.00  0.00    -0.388 A  
HETATM   20  C   UNL     1     -11.844   5.634  72.815  1.00  0.00    -0.164 A  
HETATM   21  C   UNL     1     -11.167   6.583  72.043  1.00  0.00    -0.312 A  
HETATM   22  C   UNL     1     -11.907   7.794  71.542  1.00  0.00    -0.324 C  
ENDBRANCH  12  15
ENDBRANCH  10  11
ENDBRANCH   4   5
ENDBRANCH   3   4
ENDBRANCH   2   3
TORSDOF 5
ENDMDL
MODEL      236
REMARK 921   NORMALIZED FREE ENERGY PREDICTED BY IDOCK:   -2.39 KCAL/MOL
REMARK 922        TOTAL FREE ENERGY PREDICTED BY IDOCK:   -3.53 KCAL/MOL
REMARK 923 INTER-LIGAND FREE ENERGY PREDICTED BY IDOCK:   -3.31 KCAL/MOL
REMARK 924 INTRA-LIGAND FREE ENERGY PREDICTED BY IDOCK:   -0.22 KCAL/MOL
REMARK 927      BINDING AFFINITY PREDICTED BY RF-SCORE:    0.00 PKD
ROOT
HETATM    1  C   UNL     1     -11.324  11.868  63.973  1.00  0.00    -0.475 C  
HETATM    2  C   UNL     1     -10.326  10.997  64.724  1.00  0.00    -0.389 C  
ENDROOT
BRANCH   2   3
HETATM    3  C   UNL     1      -9.577  11.794  65.797  1.00  0.00    -0.253 C  
BRANCH   3   4
HETATM    4  C   UNL     1      -9.607  11.128  67.183  1.00  0.00    -0.173 C  
BRANCH   4   5
HETATM    5  N   UNL     1      -8.841   9.877  67.291  1.00  0.00    -0.132 NA 
HETATM    6  C   UNL     1      -7.467   9.962  66.756  1.00  0.00    -0.095 C  
HETATM    7  C   UNL     1      -6.427  10.633  67.659  1.00  0.00    -0.057 C  
HETATM    8  C   UNL     1      -6.478  10.138  69.101  1.00  0.00    -0.049 C  
HETATM    9  C   UNL     1      -7.910  10.152  69.623  1.00  0.00    -0.181 C  
HETATM   10  C   UNL     1      -8.841   9.365  68.692  1.00  0.00    -0.132 C  
BRANCH  10  11
HETATM   11  C   UNL     1      -8.500   7.853  68.714  1.00  0.00    -0.128 C  
HETATM   12  N   UNL     1      -8.465   7.292  67.445  1.00  0.00    -0.119 N  
HETATM   13  O   UNL     1      -8.362   7.222  69.761  1.00  0.00    -0.131 OA 
HETATM   14  H   UNL     1      -8.509   7.893  66.622  1.00  0.00     0.000 HD 
BRANCH  12  15
HETATM   15  C   UNL     1      -8.369   5.901  67.294  1.00  0.00    -0.105 A  
HETATM   16  C   UNL     1      -7.115   5.309  67.058  1.00  0.00    -0.070 A  
HETATM   17  C   UNL     1      -5.862   6.099  66.828  1.00  0.00    -0.020 C  
HETATM   18  C   UNL     1      -7.063   3.914  66.900  1.00  0.00    -0.063 A  
HETATM   19  C   UNL     1      -8.217   3.134  67.011  1.00  0.00    -0.084 A  
HETATM   20  C   UNL     1      -9.442   3.732  67.272  1.00  0.00    -0.238 A  
HETATM   21  C   UNL     1      -9.539   5.119  67.412  1.00  0.00    -0.154 A  
HETATM   22  C   UNL     1     -10.877   5.741  67.713  1.00  0.00    -0.259 C  
ENDBRANCH  12  15
ENDBRANCH  10  11
ENDBRANCH   4   5
ENDBRANCH   3   4
ENDBRANCH   2   3
TORSDOF 5
ENDMDL
MODEL      237
REMARK 921   NORMALIZED FREE ENERGY PREDICTED BY IDOCK:   -2.32 KCAL/MOL
REMARK 922        TOTAL FREE ENERGY PREDICTED BY IDOCK:   -3.43 KCAL/MOL
REMARK 923 INTER-LIGAND FREE ENERGY PREDICTED BY IDOCK:   -3.02 KCAL/MOL
REMARK 924 INTRA-LIGAND FREE ENERGY PREDICTED BY IDOCK:   -0.41 KCAL/MOL
REMARK 927      BINDING AFFINITY PREDICTED BY RF-SCORE:    0.00 PKD
ROOT
HETATM    1  C   UNL     1      -7.189  12.220  68.044  1.00  0.00    -0.102 C  
HETATM    2  C   UNL     1      -8.271  11.337  68.651  1.00  0.00    -0.146 C  
ENDROOT
BRANCH   2   3
HETATM    3  C   UNL     1      -8.696  10.223  67.690  1.00  0.00    -0.121 C  
BRANCH   3   4
HETATM    4  C   UNL     1      -7.645   9.110  67.543  1.00  0.00    -0.088 C  
BRANCH   4   5
HETATM    5  N   UNL     1      -7.913   7.891  68.320  1.00  0.00    -0.120 NA 
HETATM    6  C   UNL     1      -8.127   6.683  67.497  1.00  0.00    -0.118 C  
HETATM    7  C   UNL     1      -6.867   6.008  66.944  1.00  0.00    -0.063 C  
HETATM    8  C   UNL     1      -5.773   5.832  67.991  1.00  0.00    -0.012 C  
HETATM    9  C   UNL     1      -5.542   7.133  68.750  1.00  0.00    -0.018 C  
HETATM   10  C   UNL     1      -6.853   7.661  69.346  1.00  0.00    -0.048 C  
BRANCH  10  11
HETATM   11  C   UNL     1      -7.376   6.720  70.461  1.00  0.00    -0.081 C  
HETATM   12  N   UNL     1      -8.686   6.996  70.825  1.00  0.00    -0.147 N  
HETATM   13  O   UNL     1      -6.661   5.882  71.007  1.00  0.00    -0.042 OA 
HETATM   14  H   UNL     1      -9.241   7.650  70.273  1.00  0.00     0.000 HD 
BRANCH  12  15
HETATM   15  C   UNL     1      -9.249   6.377  71.951  1.00  0.00    -0.149 A  
HETATM   16  C   UNL     1      -9.204   7.025  73.199  1.00  0.00    -0.165 A  
HETATM   17  C   UNL     1      -8.466   8.308  73.436  1.00  0.00    -0.267 C  
HETATM   18  C   UNL     1      -9.768   6.366  74.305  1.00  0.00    -0.292 A  
HETATM   19  C   UNL     1     -10.387   5.122  74.162  1.00  0.00    -0.307 A  
HETATM   20  C   UNL     1     -10.447   4.509  72.918  1.00  0.00    -0.254 A  
HETATM   21  C   UNL     1      -9.877   5.122  71.798  1.00  0.00    -0.228 A  
HETATM   22  C   UNL     1      -9.972   4.446  70.456  1.00  0.00    -0.256 C  
ENDBRANCH  12  15
ENDBRANCH  10  11
ENDBRANCH   4   5
ENDBRANCH   3   4
ENDBRANCH   2   3
TORSDOF 5
ENDMDL
MODEL      238
REMARK 921   NORMALIZED FREE ENERGY PREDICTED BY IDOCK:   -2.29 KCAL/MOL
REMARK 922        TOTAL FREE ENERGY PREDICTED BY IDOCK:   -3.40 KCAL/MOL
REMARK 923 INTER-LIGAND FREE ENERGY PREDICTED BY IDOCK:   -3.10 KCAL/MOL
REMARK 924 INTRA-LIGAND FREE ENERGY PREDICTED BY IDOCK:   -0.30 KCAL/MOL
REMARK 927      BINDING AFFINITY PREDICTED BY RF-SCORE:    0.00 PKD
ROOT
HETATM    1  C   UNL     1      -8.104  10.222  66.492  1.00  0.00    -0.121 C  
HETATM    2  C   UNL     1      -9.128   9.384  67.246  1.00  0.00    -0.150 C  
ENDROOT
BRANCH   2   3
HETATM    3  C   UNL     1      -9.582   8.174  66.424  1.00  0.00    -0.286 C  
BRANCH   3   4
HETATM    4  C   UNL     1      -8.505   7.084  66.297  1.00  0.00    -0.134 C  
BRANCH   4   5
HETATM    5  N   UNL     1      -8.606   5.990  67.275  1.00  0.00    -0.107 NA 
HETATM    6  C   UNL     1      -8.864   4.665  66.675  1.00  0.00    -0.111 C  
HETATM    7  C   UNL     1      -7.655   3.952  66.059  1.00  0.00    -0.089 C  
HETATM    8  C   UNL     1      -6.425   3.972  66.959  1.00  0.00    -0.041 C  
HETATM    9  C   UNL     1      -6.163   5.380  67.480  1.00  0.00    -0.034 C  
HETATM   10  C   UNL     1      -7.410   5.952  68.166  1.00  0.00    -0.081 C  
BRANCH  10  11
HETATM   11  C   UNL     1      -7.732   5.177  69.469  1.00  0.00    -0.068 C  
HETATM   12  N   UNL     1      -9.093   4.979  69.653  1.00  0.00    -0.105 N  
HETATM   13  O   UNL     1      -6.863   4.856  70.279  1.00  0.00    -0.035 OA 
HETATM   14  H   UNL     1      -9.746   5.201  68.902  1.00  0.00     0.000 HD 
BRANCH  12  15
HETATM   15  C   UNL     1      -9.572   4.474  70.871  1.00  0.00    -0.180 A  
HETATM   16  C   UNL     1     -10.015   5.362  71.868  1.00  0.00    -0.233 A  
HETATM   17  C   UNL     1      -9.890   6.852  71.761  1.00  0.00    -0.170 C  
HETATM   18  C   UNL     1     -10.477   4.818  73.079  1.00  0.00    -0.258 A  
HETATM   19  C   UNL     1     -10.528   3.435  73.272  1.00  0.00    -0.260 A  
HETATM   20  C   UNL     1     -10.112   2.572  72.267  1.00  0.00    -0.227 A  
HETATM   21  C   UNL     1      -9.625   3.076  71.057  1.00  0.00    -0.224 A  
HETATM   22  C   UNL     1      -9.198   2.119  69.976  1.00  0.00    -0.183 C  
ENDBRANCH  12  15
ENDBRANCH  10  11
ENDBRANCH   4   5
ENDBRANCH   3   4
ENDBRANCH   2   3
TORSDOF 5
ENDMDL
MODEL      239
REMARK 921   NORMALIZED FREE ENERGY PREDICTED BY IDOCK:   -2.25 KCAL/MOL
REMARK 922        TOTAL FREE ENERGY PREDICTED BY IDOCK:   -3.35 KCAL/MOL
REMARK 923 INTER-LIGAND FREE ENERGY PREDICTED BY IDOCK:   -3.52 KCAL/MOL
REMARK 924 INTRA-LIGAND FREE ENERGY PREDICTED BY IDOCK:    0.17 KCAL/MOL
REMARK 927      BINDING AFFINITY PREDICTED BY RF-SCORE:    0.00 PKD
ROOT
HETATM    1  C   UNL     1      -5.141   9.544  64.677  1.00  0.00    -0.049 C  
HETATM    2  C   UNL     1      -5.627  10.846  65.298  1.00  0.00    -0.044 C  
ENDROOT
BRANCH   2   3
HETATM    3  C   UNL     1      -6.705  10.598  66.358  1.00  0.00    -0.124 C  
BRANCH   3   4
HETATM    4  C   UNL     1      -8.112  10.410  65.766  1.00  0.00    -0.155 C  
BRANCH   4   5
HETATM    5  N   UNL     1      -9.050  11.512  66.024  1.00  0.00    -0.210 NA 
HETATM    6  C   UNL     1      -9.067  12.550  64.973  1.00  0.00     0.782 C  
HETATM    7  C   UNL     1      -9.864  12.219  63.706  1.00  0.00    -0.204 C  
HETATM    8  C   UNL     1     -11.245  11.642  64.000  1.00  0.00    -0.448 C  
HETATM    9  C   UNL     1     -11.150  10.522  65.029  1.00  0.00     0.623 C  
HETATM   10  C   UNL     1     -10.425  10.998  66.294  1.00  0.00    -0.254 C  
BRANCH  10  11
HETATM   11  C   UNL     1     -11.262  12.064  67.047  1.00  0.00    -0.320 C  
HETATM   12  N   UNL     1     -10.485  12.885  67.852  1.00  0.00    -0.219 N  
HETATM   13  O   UNL     1     -12.489  12.104  66.986  1.00  0.00    -0.107 OA 
HETATM   14  H   UNL     1      -9.468  12.845  67.789  1.00  0.00     0.000 HD 
BRANCH  12  15
HETATM   15  C   UNL     1     -11.098  13.769  68.752  1.00  0.00    -0.266 A  
HETATM   16  C   UNL     1     -11.798  13.261  69.862  1.00  0.00    -0.380 A  
HETATM   17  C   UNL     1     -12.045  11.800  70.082  1.00  0.00    -0.398 C  
HETATM   18  C   UNL     1     -12.407  14.180  70.734  1.00  0.00    -0.439 A  
HETATM   19  C   UNL     1     -12.290  15.556  70.526  1.00  0.00    -0.461 A  
HETATM   20  C   UNL     1     -11.571  16.041  69.441  1.00  0.00    -0.320 A  
HETATM   21  C   UNL     1     -10.970  15.159  68.538  1.00  0.00    -0.263 A  
HETATM   22  C   UNL     1     -10.181  15.710  67.381  1.00  0.00    -0.264 C  
ENDBRANCH  12  15
ENDBRANCH  10  11
ENDBRANCH   4   5
ENDBRANCH   3   4
ENDBRANCH   2   3
TORSDOF 5
ENDMDL
MODEL      240
REMARK 921   NORMALIZED FREE ENERGY PREDICTED BY IDOCK:   -2.23 KCAL/MOL
REMARK 922        TOTAL FREE ENERGY PREDICTED BY IDOCK:   -3.31 KCAL/MOL
REMARK 923 INTER-LIGAND FREE ENERGY PREDICTED BY IDOCK:   -3.01 KCAL/MOL
REMARK 924 INTRA-LIGAND FREE ENERGY PREDICTED BY IDOCK:   -0.30 KCAL/MOL
REMARK 927      BINDING AFFINITY PREDICTED BY RF-SCORE:    0.00 PKD
ROOT
HETATM    1  C   UNL     1      -5.562  12.462  70.657  1.00  0.00    -0.168 C  
HETATM    2  C   UNL     1      -6.550  11.887  69.652  1.00  0.00    -0.062 C  
ENDROOT
BRANCH   2   3
HETATM    3  C   UNL     1      -7.252  12.990  68.854  1.00  0.00    -0.047 C  
BRANCH   3   4
HETATM    4  C   UNL     1      -7.597  12.576  67.414  1.00  0.00    -0.156 C  
BRANCH   4   5
HETATM    5  N   UNL     1      -8.354  11.322  67.289  1.00  0.00    -0.140 NA 
HETATM    6  C   UNL     1      -9.551  11.249  68.152  1.00  0.00    -0.186 C  
HETATM    7  C   UNL     1     -10.790  12.002  67.657  1.00  0.00    -0.273 C  
HETATM    8  C   UNL     1     -11.098  11.748  66.186  1.00  0.00    -0.358 C  
HETATM    9  C   UNL     1      -9.843  11.917  65.338  1.00  0.00    -0.258 C  
HETATM   10  C   UNL     1      -8.701  11.040  65.866  1.00  0.00    -0.178 C  
BRANCH  10  11
HETATM   11  C   UNL     1      -9.022   9.535  65.675  1.00  0.00    -0.183 C  
HETATM   12  N   UNL     1      -8.489   8.742  66.681  1.00  0.00    -0.107 N  
HETATM   13  O   UNL     1      -9.616   9.107  64.687  1.00  0.00     0.111 OA 
HETATM   14  H   UNL     1      -8.080   9.175  67.509  1.00  0.00     0.000 HD 
BRANCH  12  15
HETATM   15  C   UNL     1      -8.513   7.344  66.561  1.00  0.00    -0.128 A  
HETATM   16  C   UNL     1      -7.485   6.687  65.860  1.00  0.00    -0.081 A  
HETATM   17  C   UNL     1      -6.408   7.408  65.108  1.00  0.00    -0.038 C  
HETATM   18  C   UNL     1      -7.551   5.287  65.752  1.00  0.00    -0.083 A  
HETATM   19  C   UNL     1      -8.586   4.568  66.354  1.00  0.00    -0.112 A  
HETATM   20  C   UNL     1      -9.577   5.230  67.066  1.00  0.00    -0.150 A  
HETATM   21  C   UNL     1      -9.559   6.624  67.176  1.00  0.00    -0.168 A  
HETATM   22  C   UNL     1     -10.635   7.317  67.970  1.00  0.00    -0.247 C  
ENDBRANCH  12  15
ENDBRANCH  10  11
ENDBRANCH   4   5
ENDBRANCH   3   4
ENDBRANCH   2   3
TORSDOF 5
ENDMDL
MODEL      241
REMARK 921   NORMALIZED FREE ENERGY PREDICTED BY IDOCK:   -2.22 KCAL/MOL
REMARK 922        TOTAL FREE ENERGY PREDICTED BY IDOCK:   -3.31 KCAL/MOL
REMARK 923 INTER-LIGAND FREE ENERGY PREDICTED BY IDOCK:   -3.08 KCAL/MOL
REMARK 924 INTRA-LIGAND FREE ENERGY PREDICTED BY IDOCK:   -0.23 KCAL/MOL
REMARK 927      BINDING AFFINITY PREDICTED BY RF-SCORE:    0.00 PKD
ROOT
HETATM    1  C   UNL     1      -6.520  10.658  66.478  1.00  0.00    -0.106 C  
HETATM    2  C   UNL     1      -7.913  11.018  66.976  1.00  0.00    -0.137 C  
ENDROOT
BRANCH   2   3
HETATM    3  C   UNL     1      -8.672   9.783  67.470  1.00  0.00    -0.125 C  
BRANCH   3   4
HETATM    4  C   UNL     1      -8.272   9.348  68.890  1.00  0.00    -0.111 C  
BRANCH   4   5
HETATM    5  N   UNL     1      -8.455   7.918  69.180  1.00  0.00    -0.136 NA 
HETATM    6  C   UNL     1      -7.280   7.082  68.862  1.00  0.00    -0.091 C  
HETATM    7  C   UNL     1      -6.137   7.103  69.883  1.00  0.00    -0.027 C  
HETATM    8  C   UNL     1      -6.615   6.942  71.322  1.00  0.00    -0.049 C  
HETATM    9  C   UNL     1      -7.773   7.888  71.612  1.00  0.00    -0.098 C  
HETATM   10  C   UNL     1      -8.901   7.706  70.588  1.00  0.00    -0.145 C  
BRANCH  10  11
HETATM   11  C   UNL     1      -9.570   6.315  70.739  1.00  0.00    -0.176 C  
HETATM   12  N   UNL     1      -8.990   5.547  71.739  1.00  0.00    -0.136 N  
HETATM   13  O   UNL     1     -10.461   5.926  69.986  1.00  0.00    -0.218 OA 
HETATM   14  H   UNL     1      -8.311   5.966  72.374  1.00  0.00     0.000 HD 
BRANCH  12  15
HETATM   15  C   UNL     1      -9.338   4.195  71.877  1.00  0.00    -0.132 A  
HETATM   16  C   UNL     1      -8.669   3.222  71.113  1.00  0.00    -0.125 A  
HETATM   17  C   UNL     1      -7.674   3.554  70.043  1.00  0.00    -0.047 C  
HETATM   18  C   UNL     1      -9.054   1.879  71.272  1.00  0.00    -0.149 A  
HETATM   19  C   UNL     1     -10.046   1.519  72.188  1.00  0.00    -0.213 A  
HETATM   20  C   UNL     1     -10.675   2.490  72.955  1.00  0.00    -0.235 A  
HETATM   21  C   UNL     1     -10.336   3.839  72.809  1.00  0.00    -0.238 A  
HETATM   22  C   UNL     1     -11.020   4.870  73.666  1.00  0.00    -0.387 C  
ENDBRANCH  12  15
ENDBRANCH  10  11
ENDBRANCH   4   5
ENDBRANCH   3   4
ENDBRANCH   2   3
TORSDOF 5
ENDMDL
MODEL      242
REMARK 921   NORMALIZED FREE ENERGY PREDICTED BY IDOCK:   -2.16 KCAL/MOL
REMARK 922        TOTAL FREE ENERGY PREDICTED BY IDOCK:   -3.23 KCAL/MOL
REMARK 923 INTER-LIGAND FREE ENERGY PREDICTED BY IDOCK:   -3.50 KCAL/MOL
REMARK 924 INTRA-LIGAND FREE ENERGY PREDICTED BY IDOCK:    0.27 KCAL/MOL
REMARK 927      BINDING AFFINITY PREDICTED BY RF-SCORE:    0.00 PKD
ROOT
HETATM    1  C   UNL     1      -7.233  13.393  67.844  1.00  0.00    -0.133 C  
HETATM    2  C   UNL     1      -5.851  12.755  67.878  1.00  0.00    -0.117 C  
ENDROOT
BRANCH   2   3
HETATM    3  C   UNL     1      -5.914  11.294  68.335  1.00  0.00    -0.045 C  
BRANCH   3   4
HETATM    4  C   UNL     1      -6.056  11.138  69.859  1.00  0.00    -0.121 C  
BRANCH   4   5
HETATM    5  N   UNL     1      -7.185  10.305  70.298  1.00  0.00    -0.243 NA 
HETATM    6  C   UNL     1      -8.284  10.210  69.316  1.00  0.00    -0.156 C  
HETATM    7  C   UNL     1      -8.070   9.239  68.150  1.00  0.00    -0.107 C  
HETATM    8  C   UNL     1      -7.545   7.877  68.592  1.00  0.00    -0.101 C  
HETATM    9  C   UNL     1      -6.361   8.041  69.538  1.00  0.00    -0.034 C  
HETATM   10  C   UNL     1      -6.724   8.950  70.720  1.00  0.00    -0.059 C  
BRANCH  10  11
HETATM   11  C   UNL     1      -7.782   8.279  71.633  1.00  0.00    -0.101 C  
HETATM   12  N   UNL     1      -8.234   7.067  71.130  1.00  0.00    -0.113 N  
HETATM   13  O   UNL     1      -8.218   8.822  72.647  1.00  0.00    -0.403 OA 
HETATM   14  H   UNL     1      -7.768   6.643  70.328  1.00  0.00     0.000 HD 
BRANCH  12  15
HETATM   15  C   UNL     1      -9.331   6.425  71.723  1.00  0.00    -0.150 A  
HETATM   16  C   UNL     1      -9.115   5.420  72.683  1.00  0.00    -0.139 A  
HETATM   17  C   UNL     1      -7.757   4.889  73.030  1.00  0.00    -0.093 C  
HETATM   18  C   UNL     1     -10.240   4.793  73.246  1.00  0.00    -0.213 A  
HETATM   19  C   UNL     1     -11.534   5.182  72.889  1.00  0.00    -0.329 A  
HETATM   20  C   UNL     1     -11.728   6.196  71.961  1.00  0.00    -0.354 A  
HETATM   21  C   UNL     1     -10.635   6.828  71.362  1.00  0.00    -0.247 A  
HETATM   22  C   UNL     1     -10.873   7.938  70.373  1.00  0.00    -0.244 C  
ENDBRANCH  12  15
ENDBRANCH  10  11
ENDBRANCH   4   5
ENDBRANCH   3   4
ENDBRANCH   2   3
TORSDOF 5
ENDMDL
MODEL      243
REMARK 921   NORMALIZED FREE ENERGY PREDICTED BY IDOCK:   -2.15 KCAL/MOL
REMARK 922        TOTAL FREE ENERGY PREDICTED BY IDOCK:   -3.21 KCAL/MOL
REMARK 923 INTER-LIGAND FREE ENERGY PREDICTED BY IDOCK:   -2.83 KCAL/MOL
REMARK 924 INTRA-LIGAND FREE ENERGY PREDICTED BY IDOCK:   -0.38 KCAL/MOL
REMARK 927      BINDING AFFINITY PREDICTED BY RF-SCORE:    0.00 PKD
ROOT
HETATM    1  C   UNL     1      -6.632  12.366  67.337  1.00  0.00    -0.157 C  
HETATM    2  C   UNL     1      -5.999  11.167  66.645  1.00  0.00    -0.130 C  
ENDROOT
BRANCH   2   3
HETATM    3  C   UNL     1      -7.052  10.143  66.213  1.00  0.00    -0.110 C  
BRANCH   3   4
HETATM    4  C   UNL     1      -6.548   8.691  66.261  1.00  0.00    -0.062 C  
BRANCH   4   5
HETATM    5  N   UNL     1      -7.254   7.816  67.210  1.00  0.00    -0.088 NA 
HETATM    6  C   UNL     1      -8.029   6.733  66.572  1.00  0.00    -0.105 C  
HETATM    7  C   UNL     1      -7.230   5.513  66.102  1.00  0.00    -0.077 C  
HETATM    8  C   UNL     1      -6.241   5.006  67.145  1.00  0.00    -0.035 C  
HETATM    9  C   UNL     1      -5.415   6.158  67.706  1.00  0.00    -0.005 C  
HETATM   10  C   UNL     1      -6.321   7.274  68.240  1.00  0.00    -0.040 C  
BRANCH  10  11
HETATM   11  C   UNL     1      -7.110   6.800  69.488  1.00  0.00    -0.072 C  
HETATM   12  N   UNL     1      -8.099   7.695  69.869  1.00  0.00    -0.122 N  
HETATM   13  O   UNL     1      -6.816   5.778  70.106  1.00  0.00    -0.049 OA 
HETATM   14  H   UNL     1      -8.337   8.480  69.261  1.00  0.00     0.000 HD 
BRANCH  12  15
HETATM   15  C   UNL     1      -8.772   7.523  71.087  1.00  0.00    -0.136 A  
HETATM   16  C   UNL     1      -9.969   6.785  71.125  1.00  0.00    -0.194 A  
HETATM   17  C   UNL     1     -10.655   6.265  69.898  1.00  0.00    -0.308 C  
HETATM   18  C   UNL     1     -10.619   6.644  72.363  1.00  0.00    -0.242 A  
HETATM   19  C   UNL     1     -10.074   7.191  73.527  1.00  0.00    -0.374 A  
HETATM   20  C   UNL     1      -8.877   7.892  73.477  1.00  0.00    -0.333 A  
HETATM   21  C   UNL     1      -8.212   8.073  72.261  1.00  0.00    -0.186 A  
HETATM   22  C   UNL     1      -6.906   8.822  72.236  1.00  0.00    -0.007 C  
ENDBRANCH  12  15
ENDBRANCH  10  11
ENDBRANCH   4   5
ENDBRANCH   3   4
ENDBRANCH   2   3
TORSDOF 5
ENDMDL
MODEL      244
REMARK 921   NORMALIZED FREE ENERGY PREDICTED BY IDOCK:   -2.07 KCAL/MOL
REMARK 922        TOTAL FREE ENERGY PREDICTED BY IDOCK:   -3.11 KCAL/MOL
REMARK 923 INTER-LIGAND FREE ENERGY PREDICTED BY IDOCK:   -3.67 KCAL/MOL
REMARK 924 INTRA-LIGAND FREE ENERGY PREDICTED BY IDOCK:    0.55 KCAL/MOL
REMARK 927      BINDING AFFINITY PREDICTED BY RF-SCORE:    0.00 PKD
ROOT
HETATM    1  C   UNL     1      -9.396  15.819  67.740  1.00  0.00    -0.206 C  
HETATM    2  C   UNL     1      -8.225  14.855  67.603  1.00  0.00    -0.184 C  
ENDROOT
BRANCH   2   3
HETATM    3  C   UNL     1      -8.674  13.493  67.065  1.00  0.00    -0.197 C  
BRANCH   3   4
HETATM    4  C   UNL     1      -8.497  12.349  68.077  1.00  0.00    -0.176 C  
BRANCH   4   5
HETATM    5  N   UNL     1      -9.047  11.052  67.656  1.00  0.00    -0.144 NA 
HETATM    6  C   UNL     1     -10.502  10.915  67.869  1.00  0.00    -0.195 C  
HETATM    7  C   UNL     1     -11.407  11.592  66.834  1.00  0.00    -0.364 C  
HETATM    8  C   UNL     1     -10.984  11.314  65.395  1.00  0.00    -0.201 C  
HETATM    9  C   UNL     1      -9.489  11.552  65.219  1.00  0.00    -0.206 C  
HETATM   10  C   UNL     1      -8.681  10.744  66.242  1.00  0.00    -0.169 C  
BRANCH  10  11
HETATM   11  C   UNL     1      -8.803   9.223  65.971  1.00  0.00    -0.160 C  
HETATM   12  N   UNL     1      -8.720   8.463  67.130  1.00  0.00    -0.125 N  
HETATM   13  O   UNL     1      -8.880   8.759  64.835  1.00  0.00    -0.167 OA 
HETATM   14  H   UNL     1      -8.739   8.921  68.041  1.00  0.00     0.000 HD 
BRANCH  12  15
HETATM   15  C   UNL     1      -8.612   7.067  67.049  1.00  0.00    -0.122 A  
HETATM   16  C   UNL     1      -9.776   6.280  66.979  1.00  0.00    -0.173 A  
HETATM   17  C   UNL     1     -11.159   6.841  67.115  1.00  0.00    -0.404 C  
HETATM   18  C   UNL     1      -9.625   4.884  66.910  1.00  0.00    -0.171 A  
HETATM   19  C   UNL     1      -8.357   4.299  66.876  1.00  0.00    -0.101 A  
HETATM   20  C   UNL     1      -7.219   5.093  66.917  1.00  0.00    -0.077 A  
HETATM   21  C   UNL     1      -7.327   6.483  67.009  1.00  0.00    -0.079 A  
HETATM   22  C   UNL     1      -6.078   7.322  67.033  1.00  0.00    -0.045 C  
ENDBRANCH  12  15
ENDBRANCH  10  11
ENDBRANCH   4   5
ENDBRANCH   3   4
ENDBRANCH   2   3
TORSDOF 5
ENDMDL
MODEL      245
REMARK 921   NORMALIZED FREE ENERGY PREDICTED BY IDOCK:   -1.89 KCAL/MOL
REMARK 922        TOTAL FREE ENERGY PREDICTED BY IDOCK:   -2.88 KCAL/MOL
REMARK 923 INTER-LIGAND FREE ENERGY PREDICTED BY IDOCK:   -4.28 KCAL/MOL
REMARK 924 INTRA-LIGAND FREE ENERGY PREDICTED BY IDOCK:    1.41 KCAL/MOL
REMARK 927      BINDING AFFINITY PREDICTED BY RF-SCORE:    0.00 PKD
ROOT
HETATM    1  C   UNL     1     -12.637  12.105  63.595  1.00  0.00    -0.616 C  
HETATM    2  C   UNL     1     -12.117  12.018  65.023  1.00  0.00    -0.204 C  
ENDROOT
BRANCH   2   3
HETATM    3  C   UNL     1     -11.662  13.385  65.543  1.00  0.00    -0.366 C  
BRANCH   3   4
HETATM    4  C   UNL     1     -10.939  13.313  66.898  1.00  0.00    -0.283 C  
BRANCH   4   5
HETATM    5  N   UNL     1     -10.117  14.486  67.230  1.00  0.00    -0.246 NA 
HETATM    6  C   UNL     1      -9.288  14.979  66.112  1.00  0.00    -0.292 C  
HETATM    7  C   UNL     1     -10.006  15.829  65.058  1.00  0.00     0.108 C  
HETATM    8  C   UNL     1     -10.897  16.908  65.663  1.00  0.00    -0.082 C  
HETATM    9  C   UNL     1     -11.786  16.321  66.753  1.00  0.00     0.939 C  
HETATM   10  C   UNL     1     -10.949  15.582  67.806  1.00  0.00    -0.317 C  
BRANCH  10  11
HETATM   11  C   UNL     1     -10.063  16.571  68.605  1.00  0.00    -0.255 C  
HETATM   12  N   UNL     1      -8.862  16.850  67.968  1.00  0.00    -0.211 N  
HETATM   13  O   UNL     1     -10.375  16.985  69.721  1.00  0.00    -0.150 OA 
HETATM   14  H   UNL     1      -8.709  16.536  67.011  1.00  0.00     0.000 HD 
BRANCH  12  15
HETATM   15  C   UNL     1      -7.860  17.565  68.640  1.00  0.00    -0.272 A  
HETATM   16  C   UNL     1      -7.916  18.970  68.686  1.00  0.00    -0.387 A  
HETATM   17  C   UNL     1      -8.932  19.779  67.939  1.00  0.00    -0.390 C  
HETATM   18  C   UNL     1      -6.886  19.650  69.359  1.00  0.00    -0.377 A  
HETATM   19  C   UNL     1      -5.858  18.950  69.995  1.00  0.00    -0.262 A  
HETATM   20  C   UNL     1      -5.834  17.562  69.965  1.00  0.00    -0.234 A  
HETATM   21  C   UNL     1      -6.827  16.850  69.286  1.00  0.00    -0.228 A  
HETATM   22  C   UNL     1      -6.788  15.345  69.283  1.00  0.00    -0.157 C  
ENDBRANCH  12  15
ENDBRANCH  10  11
ENDBRANCH   4   5
ENDBRANCH   3   4
ENDBRANCH   2   3
TORSDOF 5
ENDMDL
MODEL      246
REMARK 921   NORMALIZED FREE ENERGY PREDICTED BY IDOCK:   -1.82 KCAL/MOL
REMARK 922        TOTAL FREE ENERGY PREDICTED BY IDOCK:   -2.79 KCAL/MOL
REMARK 923 INTER-LIGAND FREE ENERGY PREDICTED BY IDOCK:   -3.98 KCAL/MOL
REMARK 924 INTRA-LIGAND FREE ENERGY PREDICTED BY IDOCK:    1.19 KCAL/MOL
REMARK 927      BINDING AFFINITY PREDICTED BY RF-SCORE:    0.00 PKD
ROOT
HETATM    1  C   UNL     1     -11.125   6.555  68.562  1.00  0.00    -0.347 C  
HETATM    2  C   UNL     1     -10.689   7.162  67.236  1.00  0.00    -0.399 C  
ENDROOT
BRANCH   2   3
HETATM    3  C   UNL     1     -10.715   8.693  67.281  1.00  0.00    -0.209 C  
BRANCH   3   4
HETATM    4  C   UNL     1      -9.506   9.303  68.011  1.00  0.00    -0.137 C  
BRANCH   4   5
HETATM    5  N   UNL     1      -9.248  10.720  67.713  1.00  0.00    -0.150 NA 
HETATM    6  C   UNL     1      -9.119  11.022  66.273  1.00  0.00    -0.182 C  
HETATM    7  C   UNL     1     -10.428  11.134  65.484  1.00  0.00    -0.317 C  
HETATM    8  C   UNL     1     -11.478  11.991  66.183  1.00  0.00    -0.401 C  
HETATM    9  C   UNL     1     -11.622  11.578  67.643  1.00  0.00    -0.320 C  
HETATM   10  C   UNL     1     -10.266  11.601  68.357  1.00  0.00    -0.207 C  
BRANCH  10  11
HETATM   11  C   UNL     1      -9.727  13.049  68.480  1.00  0.00    -0.130 C  
HETATM   12  N   UNL     1      -8.685  13.310  67.602  1.00  0.00    -0.182 N  
HETATM   13  O   UNL     1     -10.138  13.837  69.331  1.00  0.00     0.155 OA 
HETATM   14  H   UNL     1      -8.453  12.636  66.872  1.00  0.00     0.000 HD 
BRANCH  12  15
HETATM   15  C   UNL     1      -7.951  14.500  67.715  1.00  0.00    -0.159 A  
HETATM   16  C   UNL     1      -6.941  14.606  68.689  1.00  0.00    -0.111 A  
HETATM   17  C   UNL     1      -6.677  13.552  69.721  1.00  0.00     0.084 C  
HETATM   18  C   UNL     1      -6.236  15.819  68.779  1.00  0.00    -0.105 A  
HETATM   19  C   UNL     1      -6.505  16.874  67.903  1.00  0.00    -0.152 A  
HETATM   20  C   UNL     1      -7.486  16.741  66.929  1.00  0.00    -0.257 A  
HETATM   21  C   UNL     1      -8.225  15.559  66.823  1.00  0.00    -0.277 A  
HETATM   22  C   UNL     1      -9.269  15.434  65.746  1.00  0.00    -0.172 C  
ENDBRANCH  12  15
ENDBRANCH  10  11
ENDBRANCH   4   5
ENDBRANCH   3   4
ENDBRANCH   2   3
TORSDOF 5
ENDMDL
MODEL      247
REMARK 921   NORMALIZED FREE ENERGY PREDICTED BY IDOCK:   -0.93 KCAL/MOL
REMARK 922        TOTAL FREE ENERGY PREDICTED BY IDOCK:   -1.64 KCAL/MOL
REMARK 923 INTER-LIGAND FREE ENERGY PREDICTED BY IDOCK:   -1.59 KCAL/MOL
REMARK 924 INTRA-LIGAND FREE ENERGY PREDICTED BY IDOCK:   -0.04 KCAL/MOL
REMARK 927      BINDING AFFINITY PREDICTED BY RF-SCORE:    0.00 PKD
ROOT
HETATM    1  C   UNL     1      -5.854  10.980  70.664  1.00  0.00    -0.105 C  
HETATM    2  C   UNL     1      -6.708   9.876  70.054  1.00  0.00    -0.100 C  
ENDROOT
BRANCH   2   3
HETATM    3  C   UNL     1      -7.487  10.373  68.833  1.00  0.00    -0.099 C  
BRANCH   3   4
HETATM    4  C   UNL     1      -8.382   9.295  68.200  1.00  0.00    -0.120 C  
BRANCH   4   5
HETATM    5  N   UNL     1      -7.760   7.970  68.062  1.00  0.00    -0.115 NA 
HETATM    6  C   UNL     1      -8.176   6.997  69.092  1.00  0.00    -0.122 C  
HETATM    7  C   UNL     1      -9.543   6.334  68.887  1.00  0.00    -0.135 C  
HETATM    8  C   UNL     1      -9.757   5.828  67.465  1.00  0.00    -0.128 C  
HETATM    9  C   UNL     1      -9.388   6.904  66.451  1.00  0.00    -0.183 C  
HETATM   10  C   UNL     1      -7.964   7.419  66.690  1.00  0.00    -0.121 C  
BRANCH  10  11
HETATM   11  C   UNL     1      -6.916   6.316  66.390  1.00  0.00    -0.067 C  
HETATM   12  N   UNL     1      -7.497   5.105  66.041  1.00  0.00    -0.081 N  
HETATM   13  O   UNL     1      -5.708   6.496  66.534  1.00  0.00    -0.013 OA 
HETATM   14  H   UNL     1      -8.500   5.054  65.864  1.00  0.00     0.000 HD 
BRANCH  12  15
HETATM   15  C   UNL     1      -6.707   3.952  65.932  1.00  0.00    -0.045 A  
HETATM   16  C   UNL     1      -6.065   3.658  64.715  1.00  0.00    -0.023 A  
HETATM   17  C   UNL     1      -6.277   4.449  63.460  1.00  0.00    -0.018 C  
HETATM   18  C   UNL     1      -5.291   2.487  64.643  1.00  0.00    -0.009 A  
HETATM   19  C   UNL     1      -5.135   1.659  65.757  1.00  0.00    -0.005 A  
HETATM   20  C   UNL     1      -5.752   1.979  66.959  1.00  0.00    -0.019 A  
HETATM   21  C   UNL     1      -6.549   3.123  67.064  1.00  0.00    -0.037 A  
HETATM   22  C   UNL     1      -7.192   3.457  68.383  1.00  0.00    -0.050 C  
ENDBRANCH  12  15
ENDBRANCH  10  11
ENDBRANCH   4   5
ENDBRANCH   3   4
ENDBRANCH   2   3
TORSDOF 5
ENDMDL
MODEL      248
REMARK 921   NORMALIZED FREE ENERGY PREDICTED BY IDOCK:    0.14 KCAL/MOL
REMARK 922        TOTAL FREE ENERGY PREDICTED BY IDOCK:   -0.25 KCAL/MOL
REMARK 923 INTER-LIGAND FREE ENERGY PREDICTED BY IDOCK:   -2.23 KCAL/MOL
REMARK 924 INTRA-LIGAND FREE ENERGY PREDICTED BY IDOCK:    1.98 KCAL/MOL
REMARK 927      BINDING AFFINITY PREDICTED BY RF-SCORE:    0.00 PKD
ROOT
HETATM    1  C   UNL     1     -12.080  15.823  64.395  1.00  0.00    -0.010 C  
HETATM    2  C   UNL     1     -10.921  15.677  65.372  1.00  0.00    -0.342 C  
ENDROOT
BRANCH   2   3
HETATM    3  C   UNL     1     -10.387  14.242  65.404  1.00  0.00    -0.391 C  
BRANCH   3   4
HETATM    4  C   UNL     1     -11.260  13.284  66.231  1.00  0.00    -0.299 C  
BRANCH   4   5
HETATM    5  N   UNL     1     -10.624  12.005  66.580  1.00  0.00    -0.226 NA 
HETATM    6  C   UNL     1     -10.404  11.106  65.430  1.00  0.00    -0.271 C  
HETATM    7  C   UNL     1      -9.194  11.422  64.544  1.00  0.00    -0.010 C  
HETATM    8  C   UNL     1      -7.923  11.696  65.341  1.00  0.00     0.865 C  
HETATM    9  C   UNL     1      -8.196  12.692  66.461  1.00  0.00     0.254 C  
HETATM   10  C   UNL     1      -9.360  12.221  67.343  1.00  0.00    -0.183 C  
BRANCH  10  11
HETATM   11  C   UNL     1      -8.978  10.941  68.130  1.00  0.00    -0.144 C  
HETATM   12  N   UNL     1      -9.566  10.888  69.386  1.00  0.00    -0.426 N  
HETATM   13  O   UNL     1      -8.172  10.117  67.700  1.00  0.00    -0.110 OA 
HETATM   14  H   UNL     1     -10.285  11.566  69.640  1.00  0.00     0.000 HD 
BRANCH  12  15
HETATM   15  C   UNL     1      -9.174   9.904  70.305  1.00  0.00    -0.068 A  
HETATM   16  C   UNL     1     -10.121   8.982  70.786  1.00  0.00    -0.303 A  
HETATM   17  C   UNL     1     -11.583   9.062  70.470  1.00  0.00    -0.209 C  
HETATM   18  C   UNL     1      -9.690   8.019  71.715  1.00  0.00    -0.233 A  
HETATM   19  C   UNL     1      -8.355   7.956  72.119  1.00  0.00    -0.168 A  
HETATM   20  C   UNL     1      -7.427   8.856  71.612  1.00  0.00    -0.054 A  
HETATM   21  C   UNL     1      -7.821   9.844  70.705  1.00  0.00     0.174 A  
HETATM   22  C   UNL     1      -6.792  10.796  70.156  1.00  0.00    -0.074 C  
ENDBRANCH  12  15
ENDBRANCH  10  11
ENDBRANCH   4   5
ENDBRANCH   3   4
ENDBRANCH   2   3
TORSDOF 5
ENDMDL
MODEL      249
REMARK 921   NORMALIZED FREE ENERGY PREDICTED BY IDOCK:    4.79 KCAL/MOL
REMARK 922        TOTAL FREE ENERGY PREDICTED BY IDOCK:    5.76 KCAL/MOL
REMARK 923 INTER-LIGAND FREE ENERGY PREDICTED BY IDOCK:    3.13 KCAL/MOL
REMARK 924 INTRA-LIGAND FREE ENERGY PREDICTED BY IDOCK:    2.62 KCAL/MOL
REMARK 927      BINDING AFFINITY PREDICTED BY RF-SCORE:    0.00 PKD
ROOT
HETATM    1  C   UNL     1      -9.647  13.575  68.137  1.00  0.00    -0.215 C  
HETATM    2  C   UNL     1     -10.870  13.132  68.928  1.00  0.00    -0.240 C  
ENDROOT
BRANCH   2   3
HETATM    3  C   UNL     1     -12.029  12.742  68.005  1.00  0.00    -0.315 C  
BRANCH   3   4
HETATM    4  C   UNL     1     -12.116  13.607  66.737  1.00  0.00    -0.399 C  
BRANCH   4   5
HETATM    5  N   UNL     1     -11.083  14.647  66.619  1.00  0.00    -0.327 NA 
HETATM    6  C   UNL     1     -10.459  14.731  65.282  1.00  0.00    -0.404 C  
HETATM    7  C   UNL     1     -11.265  15.462  64.202  1.00  0.00     0.127 C  
HETATM    8  C   UNL     1     -11.838  16.792  64.679  1.00  0.00     1.074 C  
HETATM    9  C   UNL     1     -12.539  16.624  66.022  1.00  0.00     4.473 C  
HETATM   10  C   UNL     1     -11.604  15.977  67.052  1.00  0.00     0.435 C  
BRANCH  10  11
HETATM   11  C   UNL     1     -10.432  16.925  67.412  1.00  0.00    -0.310 C  
HETATM   12  N   UNL     1     -10.356  18.028  66.573  1.00  0.00    -0.376 N  
HETATM   13  O   UNL     1      -9.620  16.664  68.298  1.00  0.00    -0.222 OA 
HETATM   14  H   UNL     1     -11.111  18.219  65.914  1.00  0.00     0.000 HD 
BRANCH  12  15
HETATM   15  C   UNL     1      -9.244  18.879  66.630  1.00  0.00    -0.330 A  
HETATM   16  C   UNL     1      -9.375  20.162  67.192  1.00  0.00    -0.521 A  
HETATM   17  C   UNL     1     -10.687  20.740  67.630  1.00  0.00     0.787 C  
HETATM   18  C   UNL     1      -8.239  20.990  67.220  1.00  0.00    -0.030 A  
HETATM   19  C   UNL     1      -7.009  20.538  66.737  1.00  0.00    -0.330 A  
HETATM   20  C   UNL     1      -6.890  19.259  66.212  1.00  0.00    -0.231 A  
HETATM   21  C   UNL     1      -8.002  18.414  66.145  1.00  0.00    -0.217 A  
HETATM   22  C   UNL     1      -7.843  17.024  65.588  1.00  0.00     0.704 C  
ENDBRANCH  12  15
ENDBRANCH  10  11
ENDBRANCH   4   5
ENDBRANCH   3   4
ENDBRANCH   2   3
TORSDOF 5
ENDMDL
