MODEL        1
REMARK 921   NORMALIZED FREE ENERGY PREDICTED BY IDOCK:   -5.62 KCAL/MOL
REMARK 922        TOTAL FREE ENERGY PREDICTED BY IDOCK:   -7.07 KCAL/MOL
REMARK 923 INTER-LIGAND FREE ENERGY PREDICTED BY IDOCK:   -6.61 KCAL/MOL
REMARK 924 INTRA-LIGAND FREE ENERGY PREDICTED BY IDOCK:   -0.47 KCAL/MOL
REMARK 927      BINDING AFFINITY PREDICTED BY RF-SCORE:    0.00 PKD
ROOT
HETATM    1  C   UNL     1      -8.125  16.273  66.270  1.00  0.00    -0.267 C  
HETATM    2  C   UNL     1      -9.448  16.993  66.553  1.00  0.00    -0.276 C  
ENDROOT
BRANCH   2   3
HETATM    3  C   UNL     1     -10.524  16.383  65.618  1.00  0.00    -0.347 C  
HETATM    4  O   UNL     1     -10.984  17.002  64.656  1.00  0.00    -0.968 OA 
BRANCH   3   5
HETATM    5  C   UNL     1     -11.019  14.981  65.828  1.00  0.00    -0.351 A  
HETATM    6  C   UNL     1     -11.433  14.264  64.691  1.00  0.00    -0.389 A  
HETATM    7  C   UNL     1     -11.963  12.982  64.820  1.00  0.00    -0.395 A  
HETATM    8  C   UNL     1     -12.096  12.398  66.077  1.00  0.00    -0.327 A  
HETATM    9 CL   UNL     1     -12.464  12.119  63.419  1.00  0.00    -0.677 Cl 
HETATM   10  C   UNL     1     -11.659  13.087  67.207  1.00  0.00    -0.409 A  
HETATM   11  C   UNL     1     -11.106  14.368  67.084  1.00  0.00    -0.318 A  
ENDBRANCH   3   5
ENDBRANCH   2   3
BRANCH   2  12
HETATM   12  N   UNL     1      -9.348  18.455  66.325  1.00  0.00    -0.454 NA 
HETATM   13  H   UNL     1      -9.366  18.834  65.378  1.00  0.00     0.000 HD 
HETATM   14  C   UNL     1      -9.221  19.355  67.491  1.00  0.00    -0.308 C  
HETATM   15  C   UNL     1      -7.774  19.410  68.008  1.00  0.00    -0.331 C  
HETATM   16  C   UNL     1     -10.183  19.017  68.637  1.00  0.00    -0.379 C  
HETATM   17  C   UNL     1      -9.563  20.779  66.990  1.00  0.00    -0.411 C  
ENDBRANCH   2  12
TORSDOF 3
ENDMDL
MODEL        2
REMARK 921   NORMALIZED FREE ENERGY PREDICTED BY IDOCK:   -5.50 KCAL/MOL
REMARK 922        TOTAL FREE ENERGY PREDICTED BY IDOCK:   -6.93 KCAL/MOL
REMARK 923 INTER-LIGAND FREE ENERGY PREDICTED BY IDOCK:   -6.67 KCAL/MOL
REMARK 924 INTRA-LIGAND FREE ENERGY PREDICTED BY IDOCK:   -0.26 KCAL/MOL
REMARK 927      BINDING AFFINITY PREDICTED BY RF-SCORE:    0.00 PKD
ROOT
HETATM    1  C   UNL     1      -9.620  15.236  67.012  1.00  0.00    -0.233 C  
HETATM    2  C   UNL     1     -10.297  16.479  66.424  1.00  0.00    -0.311 C  
ENDROOT
BRANCH   2   3
HETATM    3  C   UNL     1     -11.021  16.048  65.122  1.00  0.00    -0.348 C  
HETATM    4  O   UNL     1     -11.291  16.850  64.225  1.00  0.00    -1.202 OA 
BRANCH   3   5
HETATM    5  C   UNL     1     -11.386  14.611  64.886  1.00  0.00    -0.403 A  
HETATM    6  C   UNL     1     -10.445  13.804  64.223  1.00  0.00    -0.088 A  
HETATM    7  C   UNL     1     -10.744  12.479  63.914  1.00  0.00    -0.437 A  
HETATM    8  C   UNL     1     -11.981  11.939  64.253  1.00  0.00    -0.353 A  
HETATM    9 CL   UNL     1      -9.579  11.507  63.103  1.00  0.00    -0.383 Cl 
HETATM   10  C   UNL     1     -12.910  12.720  64.940  1.00  0.00    -0.357 A  
HETATM   11  C   UNL     1     -12.609  14.047  65.271  1.00  0.00    -0.495 A  
ENDBRANCH   3   5
ENDBRANCH   2   3
BRANCH   2  12
HETATM   12  N   UNL     1      -9.323  17.557  66.128  1.00  0.00    -0.478 NA 
HETATM   13  H   UNL     1      -8.663  17.462  65.356  1.00  0.00     0.000 HD 
HETATM   14  C   UNL     1      -9.322  18.774  66.969  1.00  0.00    -0.297 C  
HETATM   15  C   UNL     1      -8.564  18.549  68.287  1.00  0.00    -0.341 C  
HETATM   16  C   UNL     1     -10.725  19.328  67.250  1.00  0.00    -0.594 C  
HETATM   17  C   UNL     1      -8.535  19.852  66.187  1.00  0.00    -0.350 C  
ENDBRANCH   2  12
TORSDOF 3
ENDMDL
MODEL        3
REMARK 921   NORMALIZED FREE ENERGY PREDICTED BY IDOCK:   -5.47 KCAL/MOL
REMARK 922        TOTAL FREE ENERGY PREDICTED BY IDOCK:   -6.89 KCAL/MOL
REMARK 923 INTER-LIGAND FREE ENERGY PREDICTED BY IDOCK:   -6.59 KCAL/MOL
REMARK 924 INTRA-LIGAND FREE ENERGY PREDICTED BY IDOCK:   -0.31 KCAL/MOL
REMARK 927      BINDING AFFINITY PREDICTED BY RF-SCORE:    0.00 PKD
ROOT
HETATM    1  C   UNL     1      -8.957  15.973  69.092  1.00  0.00    -0.252 C  
HETATM    2  C   UNL     1     -10.307  16.696  69.017  1.00  0.00    -0.317 C  
ENDROOT
BRANCH   2   3
HETATM    3  C   UNL     1     -11.421  15.621  69.113  1.00  0.00    -0.359 C  
HETATM    4  O   UNL     1     -11.881  15.062  68.115  1.00  0.00    -0.334 OA 
BRANCH   3   5
HETATM    5  C   UNL     1     -11.955  15.186  70.447  1.00  0.00    -0.364 A  
HETATM    6  C   UNL     1     -12.350  13.843  70.579  1.00  0.00    -0.439 A  
HETATM    7  C   UNL     1     -12.915  13.387  71.769  1.00  0.00    -0.342 A  
HETATM    8  C   UNL     1     -13.101  14.258  72.839  1.00  0.00    -0.589 A  
HETATM    9 CL   UNL     1     -13.392  11.741  71.913  1.00  0.00    -0.503 Cl 
HETATM   10  C   UNL     1     -12.684  15.584  72.729  1.00  0.00    -0.532 A  
HETATM   11  C   UNL     1     -12.097  16.044  71.544  1.00  0.00    -0.513 A  
ENDBRANCH   3   5
ENDBRANCH   2   3
BRANCH   2  12
HETATM   12  N   UNL     1     -10.456  17.469  67.761  1.00  0.00    -0.369 NA 
HETATM   13  H   UNL     1     -10.951  17.071  66.962  1.00  0.00     0.000 HD 
HETATM   14  C   UNL     1      -9.877  18.828  67.682  1.00  0.00    -0.324 C  
HETATM   15  C   UNL     1      -8.369  18.784  67.390  1.00  0.00    -0.280 C  
HETATM   16  C   UNL     1     -10.154  19.687  68.923  1.00  0.00    -0.491 C  
HETATM   17  C   UNL     1     -10.540  19.522  66.468  1.00  0.00    -0.579 C  
ENDBRANCH   2  12
TORSDOF 3
ENDMDL
MODEL        4
REMARK 921   NORMALIZED FREE ENERGY PREDICTED BY IDOCK:   -5.46 KCAL/MOL
REMARK 922        TOTAL FREE ENERGY PREDICTED BY IDOCK:   -6.88 KCAL/MOL
REMARK 923 INTER-LIGAND FREE ENERGY PREDICTED BY IDOCK:   -6.36 KCAL/MOL
REMARK 924 INTRA-LIGAND FREE ENERGY PREDICTED BY IDOCK:   -0.52 KCAL/MOL
REMARK 927      BINDING AFFINITY PREDICTED BY RF-SCORE:    0.00 PKD
ROOT
HETATM    1  C   UNL     1     -10.020  10.657  66.793  1.00  0.00    -0.254 C  
HETATM    2  C   UNL     1     -10.802  11.976  66.785  1.00  0.00    -0.266 C  
ENDROOT
BRANCH   2   3
HETATM    3  C   UNL     1     -11.688  12.003  68.058  1.00  0.00    -0.331 C  
HETATM    4  O   UNL     1     -12.278  11.000  68.468  1.00  0.00    -0.582 OA 
BRANCH   3   5
HETATM    5  C   UNL     1     -11.826  13.258  68.871  1.00  0.00    -0.367 A  
HETATM    6  C   UNL     1     -12.277  13.123  70.196  1.00  0.00    -0.360 A  
HETATM    7  C   UNL     1     -12.489  14.251  70.987  1.00  0.00    -0.362 A  
HETATM    8  C   UNL     1     -12.264  15.524  70.473  1.00  0.00    -0.444 A  
HETATM    9 CL   UNL     1     -13.041  14.067  72.606  1.00  0.00    -0.551 Cl 
HETATM   10  C   UNL     1     -11.787  15.667  69.171  1.00  0.00    -0.378 A  
HETATM   11  C   UNL     1     -11.551  14.538  68.376  1.00  0.00    -0.356 A  
ENDBRANCH   3   5
ENDBRANCH   2   3
BRANCH   2  12
HETATM   12  N   UNL     1     -11.648  12.116  65.576  1.00  0.00    -0.360 NA 
HETATM   13  H   UNL     1     -12.573  11.688  65.538  1.00  0.00     0.000 HD 
HETATM   14  C   UNL     1     -11.130  12.885  64.423  1.00  0.00    -0.361 C  
HETATM   15  C   UNL     1     -10.171  12.043  63.567  1.00  0.00    -0.477 C  
HETATM   16  C   UNL     1     -10.467  14.211  64.818  1.00  0.00    -0.432 C  
HETATM   17  C   UNL     1     -12.348  13.213  63.527  1.00  0.00    -0.478 C  
ENDBRANCH   2  12
TORSDOF 3
ENDMDL
MODEL        5
REMARK 921   NORMALIZED FREE ENERGY PREDICTED BY IDOCK:   -5.43 KCAL/MOL
REMARK 922        TOTAL FREE ENERGY PREDICTED BY IDOCK:   -6.84 KCAL/MOL
REMARK 923 INTER-LIGAND FREE ENERGY PREDICTED BY IDOCK:   -6.97 KCAL/MOL
REMARK 924 INTRA-LIGAND FREE ENERGY PREDICTED BY IDOCK:    0.12 KCAL/MOL
REMARK 927      BINDING AFFINITY PREDICTED BY RF-SCORE:    0.00 PKD
ROOT
HETATM    1  C   UNL     1     -12.774  14.332  65.384  1.00  0.00    -0.385 C  
HETATM    2  C   UNL     1     -11.259  14.507  65.229  1.00  0.00    -0.352 C  
ENDROOT
BRANCH   2   3
HETATM    3  C   UNL     1     -10.985  16.012  64.971  1.00  0.00    -0.380 C  
HETATM    4  O   UNL     1     -11.556  16.638  64.075  1.00  0.00    -1.197 OA 
BRANCH   3   5
HETATM    5  C   UNL     1     -10.034  16.781  65.842  1.00  0.00    -0.299 A  
HETATM    6  C   UNL     1     -10.398  18.090  66.200  1.00  0.00    -0.368 A  
HETATM    7  C   UNL     1      -9.534  18.882  66.953  1.00  0.00    -0.317 A  
HETATM    8  C   UNL     1      -8.296  18.389  67.354  1.00  0.00    -0.256 A  
HETATM    9 CL   UNL     1      -9.997  20.482  67.383  1.00  0.00    -0.571 Cl 
HETATM   10  C   UNL     1      -7.938  17.081  67.031  1.00  0.00    -0.234 A  
HETATM   11  C   UNL     1      -8.809  16.271  66.292  1.00  0.00    -0.367 A  
ENDBRANCH   3   5
ENDBRANCH   2   3
BRANCH   2  12
HETATM   12  N   UNL     1     -10.714  13.695  64.115  1.00  0.00    -0.561 NA 
HETATM   13  H   UNL     1     -10.196  14.138  63.355  1.00  0.00     0.000 HD 
HETATM   14  C   UNL     1     -10.932  12.232  64.121  1.00  0.00    -0.363 C  
HETATM   15  C   UNL     1     -12.333  11.868  63.605  1.00  0.00    -0.591 C  
HETATM   16  C   UNL     1     -10.680  11.578  65.486  1.00  0.00    -0.328 C  
HETATM   17  C   UNL     1      -9.923  11.630  63.114  1.00  0.00    -0.400 C  
ENDBRANCH   2  12
TORSDOF 3
ENDMDL
MODEL        6
REMARK 921   NORMALIZED FREE ENERGY PREDICTED BY IDOCK:   -5.37 KCAL/MOL
REMARK 922        TOTAL FREE ENERGY PREDICTED BY IDOCK:   -6.78 KCAL/MOL
REMARK 923 INTER-LIGAND FREE ENERGY PREDICTED BY IDOCK:   -6.29 KCAL/MOL
REMARK 924 INTRA-LIGAND FREE ENERGY PREDICTED BY IDOCK:   -0.49 KCAL/MOL
REMARK 927      BINDING AFFINITY PREDICTED BY RF-SCORE:    0.00 PKD
ROOT
HETATM    1  C   UNL     1     -12.054  11.556  69.636  1.00  0.00    -0.363 C  
HETATM    2  C   UNL     1     -11.994  13.083  69.522  1.00  0.00    -0.289 C  
ENDROOT
BRANCH   2   3
HETATM    3  C   UNL     1     -10.982  13.430  68.398  1.00  0.00    -0.267 C  
HETATM    4  O   UNL     1      -9.849  13.853  68.644  1.00  0.00    -0.224 OA 
BRANCH   3   5
HETATM    5  C   UNL     1     -11.335  13.220  66.954  1.00  0.00    -0.351 A  
HETATM    6  C   UNL     1     -10.716  12.150  66.286  1.00  0.00    -0.296 A  
HETATM    7  C   UNL     1     -10.948  11.936  64.928  1.00  0.00    -0.313 A  
HETATM    8  C   UNL     1     -11.792  12.784  64.217  1.00  0.00    -0.460 A  
HETATM    9 CL   UNL     1     -10.181  10.622  64.126  1.00  0.00    -0.408 Cl 
HETATM   10  C   UNL     1     -12.437  13.829  64.877  1.00  0.00    -0.420 A  
HETATM   11  C   UNL     1     -12.224  14.038  66.246  1.00  0.00    -0.493 A  
ENDBRANCH   3   5
ENDBRANCH   2   3
BRANCH   2  12
HETATM   12  N   UNL     1     -11.578  13.722  70.794  1.00  0.00    -0.484 NA 
HETATM   13  H   UNL     1     -10.617  13.637  71.126  1.00  0.00     0.000 HD 
HETATM   14  C   UNL     1     -12.577  14.485  71.573  1.00  0.00    -0.348 C  
HETATM   15  C   UNL     1     -13.466  13.556  72.414  1.00  0.00    -0.685 C  
HETATM   16  C   UNL     1     -13.442  15.419  70.717  1.00  0.00    -0.324 C  
HETATM   17  C   UNL     1     -11.783  15.359  72.573  1.00  0.00    -0.564 C  
ENDBRANCH   2  12
TORSDOF 3
ENDMDL
MODEL        7
REMARK 921   NORMALIZED FREE ENERGY PREDICTED BY IDOCK:   -5.37 KCAL/MOL
REMARK 922        TOTAL FREE ENERGY PREDICTED BY IDOCK:   -6.78 KCAL/MOL
REMARK 923 INTER-LIGAND FREE ENERGY PREDICTED BY IDOCK:   -6.32 KCAL/MOL
REMARK 924 INTRA-LIGAND FREE ENERGY PREDICTED BY IDOCK:   -0.46 KCAL/MOL
REMARK 927      BINDING AFFINITY PREDICTED BY RF-SCORE:    0.00 PKD
ROOT
HETATM    1  C   UNL     1      -9.212  12.943  68.103  1.00  0.00    -0.212 C  
HETATM    2  C   UNL     1     -10.602  12.975  67.457  1.00  0.00    -0.230 C  
ENDROOT
BRANCH   2   3
HETATM    3  C   UNL     1     -11.457  11.868  68.127  1.00  0.00    -0.320 C  
HETATM    4  O   UNL     1     -11.690  10.793  67.570  1.00  0.00    -0.510 OA 
BRANCH   3   5
HETATM    5  C   UNL     1     -12.002  12.052  69.514  1.00  0.00    -0.346 A  
HETATM    6  C   UNL     1     -12.360  10.895  70.227  1.00  0.00    -0.412 A  
HETATM    7  C   UNL     1     -12.931  10.995  71.494  1.00  0.00    -0.448 A  
HETATM    8  C   UNL     1     -13.161  12.243  72.066  1.00  0.00    -0.508 A  
HETATM    9 CL   UNL     1     -13.363   9.568  72.353  1.00  0.00    -0.506 Cl 
HETATM   10  C   UNL     1     -12.781  13.396  71.381  1.00  0.00    -0.411 A  
HETATM   11  C   UNL     1     -12.187  13.303  70.116  1.00  0.00    -0.376 A  
ENDBRANCH   3   5
ENDBRANCH   2   3
BRANCH   2  12
HETATM   12  N   UNL     1     -10.541  12.752  65.992  1.00  0.00    -0.265 NA 
HETATM   13  H   UNL     1      -9.952  12.015  65.604  1.00  0.00     0.000 HD 
HETATM   14  C   UNL     1     -11.348  13.615  65.102  1.00  0.00    -0.309 C  
HETATM   15  C   UNL     1     -10.662  14.967  64.851  1.00  0.00    -0.426 C  
HETATM   16  C   UNL     1     -12.786  13.830  65.592  1.00  0.00    -0.523 C  
HETATM   17  C   UNL     1     -11.417  12.895  63.734  1.00  0.00    -0.519 C  
ENDBRANCH   2  12
TORSDOF 3
ENDMDL
MODEL        8
REMARK 921   NORMALIZED FREE ENERGY PREDICTED BY IDOCK:   -5.36 KCAL/MOL
REMARK 922        TOTAL FREE ENERGY PREDICTED BY IDOCK:   -6.77 KCAL/MOL
REMARK 923 INTER-LIGAND FREE ENERGY PREDICTED BY IDOCK:   -6.51 KCAL/MOL
REMARK 924 INTRA-LIGAND FREE ENERGY PREDICTED BY IDOCK:   -0.26 KCAL/MOL
REMARK 927      BINDING AFFINITY PREDICTED BY RF-SCORE:    0.00 PKD
ROOT
HETATM    1  C   UNL     1      -8.457  16.078  66.228  1.00  0.00    -0.337 C  
HETATM    2  C   UNL     1      -9.805  16.790  66.391  1.00  0.00    -0.297 C  
ENDROOT
BRANCH   2   3
HETATM    3  C   UNL     1     -10.786  16.178  65.357  1.00  0.00    -0.307 C  
HETATM    4  O   UNL     1     -11.141  16.791  64.348  1.00  0.00    -1.072 OA 
BRANCH   3   5
HETATM    5  C   UNL     1     -11.312  14.782  65.529  1.00  0.00    -0.343 A  
HETATM    6  C   UNL     1     -11.333  14.254  66.832  1.00  0.00    -0.354 A  
HETATM    7  C   UNL     1     -11.749  12.943  67.056  1.00  0.00    -0.385 A  
HETATM    8  C   UNL     1     -12.141  12.137  65.991  1.00  0.00    -0.101 A  
HETATM    9 CL   UNL     1     -11.769  12.315  68.657  1.00  0.00    -0.357 Cl 
HETATM   10  C   UNL     1     -12.154  12.661  64.699  1.00  0.00    -0.484 A  
HETATM   11  C   UNL     1     -11.757  13.984  64.468  1.00  0.00    -0.428 A  
ENDBRANCH   3   5
ENDBRANCH   2   3
BRANCH   2  12
HETATM   12  N   UNL     1      -9.693  18.253  66.180  1.00  0.00    -0.507 NA 
HETATM   13  H   UNL     1      -9.841  18.655  65.254  1.00  0.00     0.000 HD 
HETATM   14  C   UNL     1      -9.364  19.120  67.331  1.00  0.00    -0.304 C  
HETATM   15  C   UNL     1      -7.856  19.121  67.625  1.00  0.00    -0.284 C  
HETATM   16  C   UNL     1     -10.154  18.782  68.602  1.00  0.00    -0.432 C  
HETATM   17  C   UNL     1      -9.732  20.565  66.916  1.00  0.00    -0.516 C  
ENDBRANCH   2  12
TORSDOF 3
ENDMDL
MODEL        9
REMARK 921   NORMALIZED FREE ENERGY PREDICTED BY IDOCK:   -5.36 KCAL/MOL
REMARK 922        TOTAL FREE ENERGY PREDICTED BY IDOCK:   -6.76 KCAL/MOL
REMARK 923 INTER-LIGAND FREE ENERGY PREDICTED BY IDOCK:   -6.18 KCAL/MOL
REMARK 924 INTRA-LIGAND FREE ENERGY PREDICTED BY IDOCK:   -0.58 KCAL/MOL
REMARK 927      BINDING AFFINITY PREDICTED BY RF-SCORE:    0.00 PKD
ROOT
HETATM    1  C   UNL     1      -9.193  12.314  67.623  1.00  0.00    -0.183 C  
HETATM    2  C   UNL     1     -10.715  12.305  67.436  1.00  0.00    -0.230 C  
ENDROOT
BRANCH   2   3
HETATM    3  C   UNL     1     -11.309  11.320  68.476  1.00  0.00    -0.276 C  
HETATM    4  O   UNL     1     -11.188  10.097  68.365  1.00  0.00    -0.244 OA 
BRANCH   3   5
HETATM    5  C   UNL     1     -12.023  11.827  69.695  1.00  0.00    -0.378 A  
HETATM    6  C   UNL     1     -12.161  13.220  69.832  1.00  0.00    -0.377 A  
HETATM    7  C   UNL     1     -12.756  13.762  70.969  1.00  0.00    -0.343 A  
HETATM    8  C   UNL     1     -13.216  12.932  71.987  1.00  0.00    -0.549 A  
HETATM    9 CL   UNL     1     -12.916  15.468  71.118  1.00  0.00    -0.533 Cl 
HETATM   10  C   UNL     1     -13.113  11.548  71.848  1.00  0.00    -0.492 A  
HETATM   11  C   UNL     1     -12.534  10.995  70.699  1.00  0.00    -0.465 A  
ENDBRANCH   3   5
ENDBRANCH   2   3
BRANCH   2  12
HETATM   12  N   UNL     1     -11.107  11.893  66.067  1.00  0.00    -0.314 NA 
HETATM   13  H   UNL     1     -10.988  10.927  65.762  1.00  0.00     0.000 HD 
HETATM   14  C   UNL     1     -11.672  12.905  65.148  1.00  0.00    -0.349 C  
HETATM   15  C   UNL     1     -10.570  13.757  64.499  1.00  0.00    -0.405 C  
HETATM   16  C   UNL     1     -12.727  13.807  65.801  1.00  0.00    -0.494 C  
HETATM   17  C   UNL     1     -12.360  12.126  64.002  1.00  0.00    -0.550 C  
ENDBRANCH   2  12
TORSDOF 3
ENDMDL
MODEL       10
REMARK 921   NORMALIZED FREE ENERGY PREDICTED BY IDOCK:   -5.31 KCAL/MOL
REMARK 922        TOTAL FREE ENERGY PREDICTED BY IDOCK:   -6.71 KCAL/MOL
REMARK 923 INTER-LIGAND FREE ENERGY PREDICTED BY IDOCK:   -6.07 KCAL/MOL
REMARK 924 INTRA-LIGAND FREE ENERGY PREDICTED BY IDOCK:   -0.64 KCAL/MOL
REMARK 927      BINDING AFFINITY PREDICTED BY RF-SCORE:    0.00 PKD
ROOT
HETATM    1  C   UNL     1     -12.143  14.025  69.513  1.00  0.00    -0.397 C  
HETATM    2  C   UNL     1     -11.661  14.015  68.058  1.00  0.00    -0.337 C  
ENDROOT
BRANCH   2   3
HETATM    3  C   UNL     1     -11.842  12.573  67.514  1.00  0.00    -0.323 C  
HETATM    4  O   UNL     1     -12.149  11.630  68.247  1.00  0.00    -0.552 OA 
BRANCH   3   5
HETATM    5  C   UNL     1     -11.690  12.279  66.050  1.00  0.00    -0.451 A  
HETATM    6  C   UNL     1     -10.691  11.364  65.674  1.00  0.00    -0.301 A  
HETATM    7  C   UNL     1     -10.452  11.093  64.328  1.00  0.00    -0.362 A  
HETATM    8  C   UNL     1     -11.196  11.731  63.339  1.00  0.00    -0.440 A  
HETATM    9 CL   UNL     1      -9.226   9.971  63.886  1.00  0.00    -0.299 Cl 
HETATM   10  C   UNL     1     -12.211  12.615  63.702  1.00  0.00    -0.624 A  
HETATM   11  C   UNL     1     -12.470  12.877  65.053  1.00  0.00    -0.553 A  
ENDBRANCH   3   5
ENDBRANCH   2   3
BRANCH   2  12
HETATM   12  N   UNL     1     -10.242  14.428  67.936  1.00  0.00    -0.230 NA 
HETATM   13  H   UNL     1      -9.505  13.888  68.390  1.00  0.00     0.000 HD 
HETATM   14  C   UNL     1      -9.912  15.635  67.148  1.00  0.00    -0.240 C  
HETATM   15  C   UNL     1     -10.141  16.920  67.959  1.00  0.00    -0.293 C  
HETATM   16  C   UNL     1     -10.650  15.713  65.806  1.00  0.00    -0.374 C  
HETATM   17  C   UNL     1      -8.395  15.567  66.850  1.00  0.00    -0.290 C  
ENDBRANCH   2  12
TORSDOF 3
ENDMDL
MODEL       11
REMARK 921   NORMALIZED FREE ENERGY PREDICTED BY IDOCK:   -5.30 KCAL/MOL
REMARK 922        TOTAL FREE ENERGY PREDICTED BY IDOCK:   -6.70 KCAL/MOL
REMARK 923 INTER-LIGAND FREE ENERGY PREDICTED BY IDOCK:   -6.27 KCAL/MOL
REMARK 924 INTRA-LIGAND FREE ENERGY PREDICTED BY IDOCK:   -0.43 KCAL/MOL
REMARK 927      BINDING AFFINITY PREDICTED BY RF-SCORE:    0.00 PKD
ROOT
HETATM    1  C   UNL     1     -10.932   9.723  69.597  1.00  0.00    -0.269 C  
HETATM    2  C   UNL     1     -11.416  11.170  69.444  1.00  0.00    -0.298 C  
ENDROOT
BRANCH   2   3
HETATM    3  C   UNL     1     -12.454  11.438  70.565  1.00  0.00    -0.293 C  
HETATM    4  O   UNL     1     -13.083  10.527  71.108  1.00  0.00    -0.376 OA 
BRANCH   3   5
HETATM    5  C   UNL     1     -12.703  12.832  71.064  1.00  0.00    -0.331 A  
HETATM    6  C   UNL     1     -11.966  13.873  70.473  1.00  0.00    -0.384 A  
HETATM    7  C   UNL     1     -12.100  15.182  70.931  1.00  0.00    -0.334 A  
HETATM    8  C   UNL     1     -12.960  15.474  71.985  1.00  0.00    -0.517 A  
HETATM    9 CL   UNL     1     -11.190  16.443  70.195  1.00  0.00    -0.332 Cl 
HETATM   10  C   UNL     1     -13.720  14.455  72.558  1.00  0.00    -0.589 A  
HETATM   11  C   UNL     1     -13.606  13.140  72.089  1.00  0.00    -0.637 A  
ENDBRANCH   3   5
ENDBRANCH   2   3
BRANCH   2  12
HETATM   12  N   UNL     1     -12.028  11.416  68.116  1.00  0.00    -0.630 NA 
HETATM   13  H   UNL     1     -13.019  11.233  67.961  1.00  0.00     0.000 HD 
HETATM   14  C   UNL     1     -11.179  11.932  67.020  1.00  0.00    -0.323 C  
HETATM   15  C   UNL     1     -10.367  10.809  66.357  1.00  0.00    -0.306 C  
HETATM   16  C   UNL     1     -10.253  13.078  67.448  1.00  0.00    -0.231 C  
HETATM   17  C   UNL     1     -12.140  12.480  65.938  1.00  0.00    -0.420 C  
ENDBRANCH   2  12
TORSDOF 3
ENDMDL
MODEL       12
REMARK 921   NORMALIZED FREE ENERGY PREDICTED BY IDOCK:   -5.29 KCAL/MOL
REMARK 922        TOTAL FREE ENERGY PREDICTED BY IDOCK:   -6.69 KCAL/MOL
REMARK 923 INTER-LIGAND FREE ENERGY PREDICTED BY IDOCK:   -6.31 KCAL/MOL
REMARK 924 INTRA-LIGAND FREE ENERGY PREDICTED BY IDOCK:   -0.38 KCAL/MOL
REMARK 927      BINDING AFFINITY PREDICTED BY RF-SCORE:    0.00 PKD
ROOT
HETATM    1  C   UNL     1     -10.893  15.489  67.749  1.00  0.00    -0.309 C  
HETATM    2  C   UNL     1     -10.716  15.184  66.257  1.00  0.00    -0.320 C  
ENDROOT
BRANCH   2   3
HETATM    3  C   UNL     1     -10.636  16.540  65.508  1.00  0.00    -0.295 C  
HETATM    4  O   UNL     1     -11.176  16.717  64.413  1.00  0.00    -1.112 OA 
BRANCH   3   5
HETATM    5  C   UNL     1      -9.925  17.714  66.116  1.00  0.00    -0.281 A  
HETATM    6  C   UNL     1      -8.578  17.537  66.479  1.00  0.00    -0.293 A  
HETATM    7  C   UNL     1      -7.876  18.564  67.107  1.00  0.00    -0.230 A  
HETATM    8  C   UNL     1      -8.502  19.775  67.389  1.00  0.00    -0.360 A  
HETATM    9 CL   UNL     1      -6.229  18.330  67.544  1.00  0.00    -0.180 Cl 
HETATM   10  C   UNL     1      -9.827  19.972  67.004  1.00  0.00    -0.566 A  
HETATM   11  C   UNL     1     -10.533  18.952  66.354  1.00  0.00    -0.505 A  
ENDBRANCH   3   5
ENDBRANCH   2   3
BRANCH   2  12
HETATM   12  N   UNL     1     -11.833  14.372  65.717  1.00  0.00    -0.369 NA 
HETATM   13  H   UNL     1     -12.766  14.772  65.623  1.00  0.00     0.000 HD 
HETATM   14  C   UNL     1     -11.572  12.972  65.317  1.00  0.00    -0.328 C  
HETATM   15  C   UNL     1     -11.568  12.029  66.530  1.00  0.00    -0.384 C  
HETATM   16  C   UNL     1     -10.285  12.795  64.500  1.00  0.00    -0.333 C  
HETATM   17  C   UNL     1     -12.761  12.539  64.426  1.00  0.00    -0.447 C  
ENDBRANCH   2  12
TORSDOF 3
ENDMDL
MODEL       13
REMARK 921   NORMALIZED FREE ENERGY PREDICTED BY IDOCK:   -5.28 KCAL/MOL
REMARK 922        TOTAL FREE ENERGY PREDICTED BY IDOCK:   -6.68 KCAL/MOL
REMARK 923 INTER-LIGAND FREE ENERGY PREDICTED BY IDOCK:   -6.11 KCAL/MOL
REMARK 924 INTRA-LIGAND FREE ENERGY PREDICTED BY IDOCK:   -0.57 KCAL/MOL
REMARK 927      BINDING AFFINITY PREDICTED BY RF-SCORE:    0.00 PKD
ROOT
HETATM    1  C   UNL     1      -9.921  17.570  66.592  1.00  0.00    -0.314 C  
HETATM    2  C   UNL     1     -10.279  16.080  66.539  1.00  0.00    -0.293 C  
ENDROOT
BRANCH   2   3
HETATM    3  C   UNL     1     -10.945  15.807  65.164  1.00  0.00    -0.382 C  
HETATM    4  O   UNL     1     -11.300  16.719  64.415  1.00  0.00    -1.089 OA 
BRANCH   3   5
HETATM    5  C   UNL     1     -11.143  14.402  64.672  1.00  0.00    -0.363 A  
HETATM    6  C   UNL     1     -10.106  13.482  64.907  1.00  0.00    -0.280 A  
HETATM    7  C   UNL     1     -10.195  12.179  64.422  1.00  0.00    -0.306 A  
HETATM    8  C   UNL     1     -11.310  11.774  63.692  1.00  0.00    -0.525 A  
HETATM    9 CL   UNL     1      -8.918  11.066  64.719  1.00  0.00    -0.149 Cl 
HETATM   10  C   UNL     1     -12.358  12.669  63.481  1.00  0.00    -0.591 A  
HETATM   11  C   UNL     1     -12.284  13.974  63.983  1.00  0.00    -0.395 A  
ENDBRANCH   3   5
ENDBRANCH   2   3
BRANCH   2  12
HETATM   12  N   UNL     1     -11.199  15.687  67.634  1.00  0.00    -0.309 NA 
HETATM   13  H   UNL     1     -12.176  15.978  67.619  1.00  0.00     0.000 HD 
HETATM   14  C   UNL     1     -10.677  14.868  68.748  1.00  0.00    -0.252 C  
HETATM   15  C   UNL     1      -9.930  15.727  69.781  1.00  0.00    -0.250 C  
HETATM   16  C   UNL     1      -9.795  13.698  68.291  1.00  0.00    -0.232 C  
HETATM   17  C   UNL     1     -11.907  14.275  69.476  1.00  0.00    -0.378 C  
ENDBRANCH   2  12
TORSDOF 3
ENDMDL
MODEL       14
REMARK 921   NORMALIZED FREE ENERGY PREDICTED BY IDOCK:   -5.28 KCAL/MOL
REMARK 922        TOTAL FREE ENERGY PREDICTED BY IDOCK:   -6.67 KCAL/MOL
REMARK 923 INTER-LIGAND FREE ENERGY PREDICTED BY IDOCK:   -6.11 KCAL/MOL
REMARK 924 INTRA-LIGAND FREE ENERGY PREDICTED BY IDOCK:   -0.56 KCAL/MOL
REMARK 927      BINDING AFFINITY PREDICTED BY RF-SCORE:    0.00 PKD
ROOT
HETATM    1  C   UNL     1     -10.718  17.377  67.946  1.00  0.00    -0.351 C  
HETATM    2  C   UNL     1     -10.973  15.868  68.027  1.00  0.00    -0.336 C  
ENDROOT
BRANCH   2   3
HETATM    3  C   UNL     1     -10.476  15.381  69.413  1.00  0.00    -0.257 C  
HETATM    4  O   UNL     1      -9.283  15.403  69.727  1.00  0.00    -0.247 OA 
BRANCH   3   5
HETATM    5  C   UNL     1     -11.447  14.900  70.452  1.00  0.00    -0.312 A  
HETATM    6  C   UNL     1     -11.462  15.575  71.685  1.00  0.00    -0.496 A  
HETATM    7  C   UNL     1     -12.293  15.142  72.717  1.00  0.00    -0.385 A  
HETATM    8  C   UNL     1     -13.113  14.031  72.541  1.00  0.00    -0.547 A  
HETATM    9 CL   UNL     1     -12.298  15.980  74.219  1.00  0.00    -0.703 Cl 
HETATM   10  C   UNL     1     -13.129  13.374  71.312  1.00  0.00    -0.317 A  
HETATM   11  C   UNL     1     -12.312  13.816  70.264  1.00  0.00    -0.407 A  
ENDBRANCH   3   5
ENDBRANCH   2   3
BRANCH   2  12
HETATM   12  N   UNL     1     -10.275  15.126  66.949  1.00  0.00    -0.256 NA 
HETATM   13  H   UNL     1      -9.262  15.005  66.975  1.00  0.00     0.000 HD 
HETATM   14  C   UNL     1     -11.070  14.563  65.836  1.00  0.00    -0.327 C  
HETATM   15  C   UNL     1     -11.405  15.631  64.784  1.00  0.00    -0.348 C  
HETATM   16  C   UNL     1     -12.347  13.846  66.293  1.00  0.00    -0.489 C  
HETATM   17  C   UNL     1     -10.168  13.520  65.133  1.00  0.00    -0.334 C  
ENDBRANCH   2  12
TORSDOF 3
ENDMDL
MODEL       15
REMARK 921   NORMALIZED FREE ENERGY PREDICTED BY IDOCK:   -5.25 KCAL/MOL
REMARK 922        TOTAL FREE ENERGY PREDICTED BY IDOCK:   -6.64 KCAL/MOL
REMARK 923 INTER-LIGAND FREE ENERGY PREDICTED BY IDOCK:   -6.05 KCAL/MOL
REMARK 924 INTRA-LIGAND FREE ENERGY PREDICTED BY IDOCK:   -0.59 KCAL/MOL
REMARK 927      BINDING AFFINITY PREDICTED BY RF-SCORE:    0.00 PKD
ROOT
HETATM    1  C   UNL     1      -8.907  11.938  68.023  1.00  0.00    -0.177 C  
HETATM    2  C   UNL     1     -10.086  12.911  67.913  1.00  0.00    -0.232 C  
ENDROOT
BRANCH   2   3
HETATM    3  C   UNL     1     -11.376  12.129  68.275  1.00  0.00    -0.289 C  
HETATM    4  O   UNL     1     -11.914  11.350  67.485  1.00  0.00    -0.626 OA 
BRANCH   3   5
HETATM    5  C   UNL     1     -11.999  12.261  69.635  1.00  0.00    -0.347 A  
HETATM    6  C   UNL     1     -12.394  11.078  70.284  1.00  0.00    -0.410 A  
HETATM    7  C   UNL     1     -13.036  11.131  71.519  1.00  0.00    -0.437 A  
HETATM    8  C   UNL     1     -13.301  12.357  72.123  1.00  0.00    -0.508 A  
HETATM    9 CL   UNL     1     -13.512   9.673  72.298  1.00  0.00    -0.518 Cl 
HETATM   10  C   UNL     1     -12.885  13.535  71.503  1.00  0.00    -0.440 A  
HETATM   11  C   UNL     1     -12.220  13.488  70.272  1.00  0.00    -0.417 A  
ENDBRANCH   3   5
ENDBRANCH   2   3
BRANCH   2  12
HETATM   12  N   UNL     1     -10.209  13.489  66.553  1.00  0.00    -0.277 NA 
HETATM   13  H   UNL     1     -10.320  12.882  65.741  1.00  0.00     0.000 HD 
HETATM   14  C   UNL     1     -10.166  14.958  66.392  1.00  0.00    -0.284 C  
HETATM   15  C   UNL     1      -8.723  15.487  66.408  1.00  0.00    -0.333 C  
HETATM   16  C   UNL     1     -11.022  15.714  67.416  1.00  0.00    -0.293 C  
HETATM   17  C   UNL     1     -10.732  15.265  64.985  1.00  0.00    -0.461 C  
ENDBRANCH   2  12
TORSDOF 3
ENDMDL
MODEL       16
REMARK 921   NORMALIZED FREE ENERGY PREDICTED BY IDOCK:   -5.21 KCAL/MOL
REMARK 922        TOTAL FREE ENERGY PREDICTED BY IDOCK:   -6.59 KCAL/MOL
REMARK 923 INTER-LIGAND FREE ENERGY PREDICTED BY IDOCK:   -6.00 KCAL/MOL
REMARK 924 INTRA-LIGAND FREE ENERGY PREDICTED BY IDOCK:   -0.59 KCAL/MOL
REMARK 927      BINDING AFFINITY PREDICTED BY RF-SCORE:    0.00 PKD
ROOT
HETATM    1  C   UNL     1     -11.379   7.994  72.805  1.00  0.00    -0.439 C  
HETATM    2  C   UNL     1     -11.479   8.550  71.380  1.00  0.00    -0.287 C  
ENDROOT
BRANCH   2   3
HETATM    3  C   UNL     1     -12.699   9.507  71.334  1.00  0.00    -0.358 C  
HETATM    4  O   UNL     1     -13.837   9.133  71.628  1.00  0.00    -0.380 OA 
BRANCH   3   5
HETATM    5  C   UNL     1     -12.528  10.953  70.968  1.00  0.00    -0.514 A  
HETATM    6  C   UNL     1     -13.046  11.911  71.857  1.00  0.00    -0.474 A  
HETATM    7  C   UNL     1     -12.979  13.268  71.550  1.00  0.00    -0.337 A  
HETATM    8  C   UNL     1     -12.405  13.692  70.354  1.00  0.00    -0.415 A  
HETATM    9 CL   UNL     1     -13.617  14.427  72.649  1.00  0.00    -0.584 Cl 
HETATM   10  C   UNL     1     -11.860  12.752  69.480  1.00  0.00    -0.379 A  
HETATM   11  C   UNL     1     -11.905  11.388  69.792  1.00  0.00    -0.435 A  
ENDBRANCH   3   5
ENDBRANCH   2   3
BRANCH   2  12
HETATM   12  N   UNL     1     -11.640   7.475  70.371  1.00  0.00    -0.453 NA 
HETATM   13  H   UNL     1     -12.519   6.961  70.298  1.00  0.00     0.000 HD 
HETATM   14  C   UNL     1     -10.508   7.158  69.474  1.00  0.00    -0.225 C  
HETATM   15  C   UNL     1      -9.474   6.256  70.165  1.00  0.00    -0.172 C  
HETATM   16  C   UNL     1      -9.824   8.399  68.887  1.00  0.00    -0.184 C  
HETATM   17  C   UNL     1     -11.092   6.339  68.298  1.00  0.00    -0.364 C  
ENDBRANCH   2  12
TORSDOF 3
ENDMDL
MODEL       17
REMARK 921   NORMALIZED FREE ENERGY PREDICTED BY IDOCK:   -5.19 KCAL/MOL
REMARK 922        TOTAL FREE ENERGY PREDICTED BY IDOCK:   -6.57 KCAL/MOL
REMARK 923 INTER-LIGAND FREE ENERGY PREDICTED BY IDOCK:   -5.86 KCAL/MOL
REMARK 924 INTRA-LIGAND FREE ENERGY PREDICTED BY IDOCK:   -0.71 KCAL/MOL
REMARK 927      BINDING AFFINITY PREDICTED BY RF-SCORE:    0.00 PKD
ROOT
HETATM    1  C   UNL     1     -12.534  14.410  64.770  1.00  0.00    -0.371 C  
HETATM    2  C   UNL     1     -11.442  14.800  65.772  1.00  0.00    -0.322 C  
ENDROOT
BRANCH   2   3
HETATM    3  C   UNL     1     -10.860  16.167  65.324  1.00  0.00    -0.336 C  
HETATM    4  O   UNL     1     -11.222  16.724  64.284  1.00  0.00    -1.163 OA 
BRANCH   3   5
HETATM    5  C   UNL     1      -9.855  16.890  66.172  1.00  0.00    -0.318 A  
HETATM    6  C   UNL     1     -10.341  17.861  67.066  1.00  0.00    -0.366 A  
HETATM    7  C   UNL     1      -9.459  18.615  67.837  1.00  0.00    -0.303 A  
HETATM    8  C   UNL     1      -8.085  18.421  67.728  1.00  0.00    -0.264 A  
HETATM    9 CL   UNL     1     -10.072  19.797  68.926  1.00  0.00    -0.534 Cl 
HETATM   10  C   UNL     1      -7.594  17.439  66.868  1.00  0.00    -0.253 A  
HETATM   11  C   UNL     1      -8.475  16.663  66.105  1.00  0.00    -0.308 A  
ENDBRANCH   3   5
ENDBRANCH   2   3
BRANCH   2  12
HETATM   12  N   UNL     1     -10.361  13.788  65.842  1.00  0.00    -0.301 NA 
HETATM   13  H   UNL     1      -9.807  13.564  65.016  1.00  0.00     0.000 HD 
HETATM   14  C   UNL     1     -10.098  13.108  67.129  1.00  0.00    -0.242 C  
HETATM   15  C   UNL     1     -11.090  11.960  67.375  1.00  0.00    -0.336 C  
HETATM   16  C   UNL     1     -10.075  14.058  68.333  1.00  0.00    -0.236 C  
HETATM   17  C   UNL     1      -8.698  12.461  67.010  1.00  0.00    -0.207 C  
ENDBRANCH   2  12
TORSDOF 3
ENDMDL
MODEL       18
REMARK 921   NORMALIZED FREE ENERGY PREDICTED BY IDOCK:   -5.19 KCAL/MOL
REMARK 922        TOTAL FREE ENERGY PREDICTED BY IDOCK:   -6.57 KCAL/MOL
REMARK 923 INTER-LIGAND FREE ENERGY PREDICTED BY IDOCK:   -5.87 KCAL/MOL
REMARK 924 INTRA-LIGAND FREE ENERGY PREDICTED BY IDOCK:   -0.70 KCAL/MOL
REMARK 927      BINDING AFFINITY PREDICTED BY RF-SCORE:    0.00 PKD
ROOT
HETATM    1  C   UNL     1     -11.942  12.202  63.639  1.00  0.00    -0.628 C  
HETATM    2  C   UNL     1     -11.681  12.230  65.149  1.00  0.00    -0.361 C  
ENDROOT
BRANCH   2   3
HETATM    3  C   UNL     1     -12.296  13.540  65.707  1.00  0.00    -0.468 C  
HETATM    4  O   UNL     1     -13.280  14.075  65.189  1.00  0.00    -0.768 OA 
BRANCH   3   5
HETATM    5  C   UNL     1     -11.736  14.189  66.939  1.00  0.00    -0.437 A  
HETATM    6  C   UNL     1     -12.126  13.661  68.183  1.00  0.00    -0.310 A  
HETATM    7  C   UNL     1     -11.695  14.254  69.368  1.00  0.00    -0.316 A  
HETATM    8  C   UNL     1     -10.878  15.381  69.335  1.00  0.00    -0.263 A  
HETATM    9 CL   UNL     1     -12.182  13.594  70.880  1.00  0.00    -0.431 Cl 
HETATM   10  C   UNL     1     -10.460  15.893  68.107  1.00  0.00    -0.270 A  
HETATM   11  C   UNL     1     -10.872  15.291  66.913  1.00  0.00    -0.317 A  
ENDBRANCH   3   5
ENDBRANCH   2   3
BRANCH   2  12
HETATM   12  N   UNL     1     -10.234  12.175  65.467  1.00  0.00    -0.259 NA 
HETATM   13  H   UNL     1      -9.624  12.962  65.243  1.00  0.00     0.000 HD 
HETATM   14  C   UNL     1      -9.687  10.962  66.112  1.00  0.00    -0.210 C  
HETATM   15  C   UNL     1      -9.432   9.844  65.089  1.00  0.00    -0.338 C  
HETATM   16  C   UNL     1     -10.550  10.439  67.268  1.00  0.00    -0.322 C  
HETATM   17  C   UNL     1      -8.307  11.353  66.691  1.00  0.00    -0.172 C  
ENDBRANCH   2  12
TORSDOF 3
ENDMDL
MODEL       19
REMARK 921   NORMALIZED FREE ENERGY PREDICTED BY IDOCK:   -5.18 KCAL/MOL
REMARK 922        TOTAL FREE ENERGY PREDICTED BY IDOCK:   -6.56 KCAL/MOL
REMARK 923 INTER-LIGAND FREE ENERGY PREDICTED BY IDOCK:   -6.15 KCAL/MOL
REMARK 924 INTRA-LIGAND FREE ENERGY PREDICTED BY IDOCK:   -0.41 KCAL/MOL
REMARK 927      BINDING AFFINITY PREDICTED BY RF-SCORE:    0.00 PKD
ROOT
HETATM    1  C   UNL     1     -10.465  16.062  68.961  1.00  0.00    -0.246 C  
HETATM    2  C   UNL     1     -11.365  14.919  69.441  1.00  0.00    -0.290 C  
ENDROOT
BRANCH   2   3
HETATM    3  C   UNL     1     -11.690  14.030  68.212  1.00  0.00    -0.357 C  
HETATM    4  O   UNL     1     -12.137  14.499  67.163  1.00  0.00    -0.397 OA 
BRANCH   3   5
HETATM    5  C   UNL     1     -11.429  12.552  68.243  1.00  0.00    -0.355 A  
HETATM    6  C   UNL     1     -11.645  11.881  69.459  1.00  0.00    -0.394 A  
HETATM    7  C   UNL     1     -11.361  10.522  69.576  1.00  0.00    -0.278 A  
HETATM    8  C   UNL     1     -10.853   9.813  68.491  1.00  0.00    -0.227 A  
HETATM    9 CL   UNL     1     -11.632   9.717  71.072  1.00  0.00    -0.420 Cl 
HETATM   10  C   UNL     1     -10.665  10.461  67.271  1.00  0.00    -0.331 A  
HETATM   11  C   UNL     1     -10.967  11.822  67.140  1.00  0.00    -0.326 A  
ENDBRANCH   3   5
ENDBRANCH   2   3
BRANCH   2  12
HETATM   12  N   UNL     1     -12.621  15.417  70.053  1.00  0.00    -0.607 NA 
HETATM   13  H   UNL     1     -13.306  15.921  69.491  1.00  0.00     0.000 HD 
HETATM   14  C   UNL     1     -12.864  15.170  71.491  1.00  0.00    -0.369 C  
HETATM   15  C   UNL     1     -12.118  16.184  72.372  1.00  0.00    -0.630 C  
HETATM   16  C   UNL     1     -12.538  13.738  71.933  1.00  0.00    -0.284 C  
HETATM   17  C   UNL     1     -14.375  15.407  71.730  1.00  0.00    -0.639 C  
ENDBRANCH   2  12
TORSDOF 3
ENDMDL
MODEL       20
REMARK 921   NORMALIZED FREE ENERGY PREDICTED BY IDOCK:   -5.16 KCAL/MOL
REMARK 922        TOTAL FREE ENERGY PREDICTED BY IDOCK:   -6.53 KCAL/MOL
REMARK 923 INTER-LIGAND FREE ENERGY PREDICTED BY IDOCK:   -6.02 KCAL/MOL
REMARK 924 INTRA-LIGAND FREE ENERGY PREDICTED BY IDOCK:   -0.52 KCAL/MOL
REMARK 927      BINDING AFFINITY PREDICTED BY RF-SCORE:    0.00 PKD
ROOT
HETATM    1  C   UNL     1     -10.021  10.580  67.125  1.00  0.00    -0.234 C  
HETATM    2  C   UNL     1     -10.769  11.916  67.047  1.00  0.00    -0.240 C  
ENDROOT
BRANCH   2   3
HETATM    3  C   UNL     1     -11.651  12.034  68.318  1.00  0.00    -0.334 C  
HETATM    4  O   UNL     1     -12.259  11.069  68.787  1.00  0.00    -0.546 OA 
BRANCH   3   5
HETATM    5  C   UNL     1     -11.763  13.336  69.058  1.00  0.00    -0.368 A  
HETATM    6  C   UNL     1     -11.309  14.494  68.402  1.00  0.00    -0.311 A  
HETATM    7  C   UNL     1     -11.323  15.726  69.053  1.00  0.00    -0.354 A  
HETATM    8  C   UNL     1     -11.781  15.823  70.364  1.00  0.00    -0.390 A  
HETATM    9 CL   UNL     1     -10.764  17.132  68.236  1.00  0.00    -0.375 Cl 
HETATM   10  C   UNL     1     -12.263  14.687  71.013  1.00  0.00    -0.399 A  
HETATM   11  C   UNL     1     -12.271  13.450  70.357  1.00  0.00    -0.415 A  
ENDBRANCH   3   5
ENDBRANCH   2   3
BRANCH   2  12
HETATM   12  N   UNL     1     -11.615  12.013  65.833  1.00  0.00    -0.409 NA 
HETATM   13  H   UNL     1     -12.548  11.601  65.818  1.00  0.00     0.000 HD 
HETATM   14  C   UNL     1     -11.084  12.714  64.644  1.00  0.00    -0.313 C  
HETATM   15  C   UNL     1     -10.143  11.813  63.830  1.00  0.00    -0.421 C  
HETATM   16  C   UNL     1     -10.395  14.045  64.972  1.00  0.00    -0.432 C  
HETATM   17  C   UNL     1     -12.297  13.021  63.734  1.00  0.00    -0.477 C  
ENDBRANCH   2  12
TORSDOF 3
ENDMDL
MODEL       21
REMARK 921   NORMALIZED FREE ENERGY PREDICTED BY IDOCK:   -5.15 KCAL/MOL
REMARK 922        TOTAL FREE ENERGY PREDICTED BY IDOCK:   -6.52 KCAL/MOL
REMARK 923 INTER-LIGAND FREE ENERGY PREDICTED BY IDOCK:   -6.00 KCAL/MOL
REMARK 924 INTRA-LIGAND FREE ENERGY PREDICTED BY IDOCK:   -0.51 KCAL/MOL
REMARK 927      BINDING AFFINITY PREDICTED BY RF-SCORE:    0.00 PKD
ROOT
HETATM    1  C   UNL     1     -10.821  16.981  67.808  1.00  0.00    -0.269 C  
HETATM    2  C   UNL     1     -11.238  15.513  67.666  1.00  0.00    -0.291 C  
ENDROOT
BRANCH   2   3
HETATM    3  C   UNL     1     -10.844  14.783  68.977  1.00  0.00    -0.245 C  
HETATM    4  O   UNL     1      -9.692  14.401  69.193  1.00  0.00    -0.134 OA 
BRANCH   3   5
HETATM    5  C   UNL     1     -11.856  14.553  70.062  1.00  0.00    -0.372 A  
HETATM    6  C   UNL     1     -12.059  13.229  70.487  1.00  0.00    -0.391 A  
HETATM    7  C   UNL     1     -13.028  12.935  71.445  1.00  0.00    -0.270 A  
HETATM    8  C   UNL     1     -13.811  13.950  71.987  1.00  0.00    -0.588 A  
HETATM    9 CL   UNL     1     -13.263  11.309  71.953  1.00  0.00    -0.566 Cl 
HETATM   10  C   UNL     1     -13.596  15.271  71.597  1.00  0.00    -0.586 A  
HETATM   11  C   UNL     1     -12.610  15.576  70.650  1.00  0.00    -0.493 A  
ENDBRANCH   3   5
ENDBRANCH   2   3
BRANCH   2  12
HETATM   12  N   UNL     1     -10.587  14.857  66.506  1.00  0.00    -0.299 NA 
HETATM   13  H   UNL     1      -9.576  14.721  66.488  1.00  0.00     0.000 HD 
HETATM   14  C   UNL     1     -11.426  14.405  65.375  1.00  0.00    -0.344 C  
HETATM   15  C   UNL     1     -11.775  15.565  64.430  1.00  0.00    -0.243 C  
HETATM   16  C   UNL     1     -12.700  13.670  65.809  1.00  0.00    -0.470 C  
HETATM   17  C   UNL     1     -10.564  13.414  64.555  1.00  0.00    -0.441 C  
ENDBRANCH   2  12
TORSDOF 3
ENDMDL
MODEL       22
REMARK 921   NORMALIZED FREE ENERGY PREDICTED BY IDOCK:   -5.14 KCAL/MOL
REMARK 922        TOTAL FREE ENERGY PREDICTED BY IDOCK:   -6.51 KCAL/MOL
REMARK 923 INTER-LIGAND FREE ENERGY PREDICTED BY IDOCK:   -5.95 KCAL/MOL
REMARK 924 INTRA-LIGAND FREE ENERGY PREDICTED BY IDOCK:   -0.56 KCAL/MOL
REMARK 927      BINDING AFFINITY PREDICTED BY RF-SCORE:    0.00 PKD
ROOT
HETATM    1  C   UNL     1      -8.449  15.829  69.240  1.00  0.00    -0.258 C  
HETATM    2  C   UNL     1      -9.608  16.793  68.964  1.00  0.00    -0.230 C  
ENDROOT
BRANCH   2   3
HETATM    3  C   UNL     1     -10.885  15.941  68.740  1.00  0.00    -0.284 C  
HETATM    4  O   UNL     1     -11.359  15.753  67.616  1.00  0.00    -0.297 OA 
BRANCH   3   5
HETATM    5  C   UNL     1     -11.572  15.268  69.892  1.00  0.00    -0.335 A  
HETATM    6  C   UNL     1     -11.694  15.998  71.088  1.00  0.00    -0.487 A  
HETATM    7  C   UNL     1     -12.264  15.413  72.217  1.00  0.00    -0.391 A  
HETATM    8  C   UNL     1     -12.713  14.096  72.177  1.00  0.00    -0.379 A  
HETATM    9 CL   UNL     1     -12.405  16.321  73.671  1.00  0.00    -0.626 Cl 
HETATM   10  C   UNL     1     -12.626  13.374  70.987  1.00  0.00    -0.425 A  
HETATM   11  C   UNL     1     -12.074  13.962  69.843  1.00  0.00    -0.406 A  
ENDBRANCH   3   5
ENDBRANCH   2   3
BRANCH   2  12
HETATM   12  N   UNL     1      -9.354  17.647  67.779  1.00  0.00    -0.252 NA 
HETATM   13  H   UNL     1      -9.302  17.236  66.846  1.00  0.00     0.000 HD 
HETATM   14  C   UNL     1      -9.177  19.103  67.969  1.00  0.00    -0.313 C  
HETATM   15  C   UNL     1      -7.752  19.444  68.430  1.00  0.00    -0.363 C  
HETATM   16  C   UNL     1     -10.208  19.729  68.917  1.00  0.00    -0.418 C  
HETATM   17  C   UNL     1      -9.358  19.755  66.577  1.00  0.00    -0.486 C  
ENDBRANCH   2  12
TORSDOF 3
ENDMDL
MODEL       23
REMARK 921   NORMALIZED FREE ENERGY PREDICTED BY IDOCK:   -5.11 KCAL/MOL
REMARK 922        TOTAL FREE ENERGY PREDICTED BY IDOCK:   -6.48 KCAL/MOL
REMARK 923 INTER-LIGAND FREE ENERGY PREDICTED BY IDOCK:   -5.75 KCAL/MOL
REMARK 924 INTRA-LIGAND FREE ENERGY PREDICTED BY IDOCK:   -0.73 KCAL/MOL
REMARK 927      BINDING AFFINITY PREDICTED BY RF-SCORE:    0.00 PKD
ROOT
HETATM    1  C   UNL     1     -12.002  13.488  69.914  1.00  0.00    -0.416 C  
HETATM    2  C   UNL     1     -11.341  14.277  68.778  1.00  0.00    -0.275 C  
ENDROOT
BRANCH   2   3
HETATM    3  C   UNL     1     -11.137  15.733  69.275  1.00  0.00    -0.297 C  
HETATM    4  O   UNL     1     -11.704  16.168  70.280  1.00  0.00    -0.316 OA 
BRANCH   3   5
HETATM    5  C   UNL     1     -10.197  16.663  68.564  1.00  0.00    -0.282 A  
HETATM    6  C   UNL     1     -10.759  17.604  67.685  1.00  0.00    -0.318 A  
HETATM    7  C   UNL     1      -9.942  18.455  66.944  1.00  0.00    -0.353 A  
HETATM    8  C   UNL     1      -8.557  18.378  67.061  1.00  0.00    -0.264 A  
HETATM    9 CL   UNL     1     -10.647  19.602  65.873  1.00  0.00    -0.606 Cl 
HETATM   10  C   UNL     1      -7.989  17.470  67.954  1.00  0.00    -0.227 A  
HETATM   11  C   UNL     1      -8.806  16.625  68.716  1.00  0.00    -0.264 A  
ENDBRANCH   3   5
ENDBRANCH   2   3
BRANCH   2  12
HETATM   12  N   UNL     1     -12.162  14.273  67.544  1.00  0.00    -0.598 NA 
HETATM   13  H   UNL     1     -13.116  14.634  67.555  1.00  0.00     0.000 HD 
HETATM   14  C   UNL     1     -11.577  13.737  66.296  1.00  0.00    -0.350 C  
HETATM   15  C   UNL     1     -11.640  12.202  66.256  1.00  0.00    -0.424 C  
HETATM   16  C   UNL     1     -10.145  14.219  66.031  1.00  0.00    -0.333 C  
HETATM   17  C   UNL     1     -12.468  14.244  65.136  1.00  0.00    -0.423 C  
ENDBRANCH   2  12
TORSDOF 3
ENDMDL
MODEL       24
REMARK 921   NORMALIZED FREE ENERGY PREDICTED BY IDOCK:   -5.11 KCAL/MOL
REMARK 922        TOTAL FREE ENERGY PREDICTED BY IDOCK:   -6.48 KCAL/MOL
REMARK 923 INTER-LIGAND FREE ENERGY PREDICTED BY IDOCK:   -5.90 KCAL/MOL
REMARK 924 INTRA-LIGAND FREE ENERGY PREDICTED BY IDOCK:   -0.57 KCAL/MOL
REMARK 927      BINDING AFFINITY PREDICTED BY RF-SCORE:    0.00 PKD
ROOT
HETATM    1  C   UNL     1     -12.097  14.352  66.436  1.00  0.00    -0.390 C  
HETATM    2  C   UNL     1     -11.602  13.468  67.587  1.00  0.00    -0.339 C  
ENDROOT
BRANCH   2   3
HETATM    3  C   UNL     1     -11.483  14.363  68.848  1.00  0.00    -0.289 C  
HETATM    4  O   UNL     1     -10.798  15.389  68.863  1.00  0.00    -0.231 OA 
BRANCH   3   5
HETATM    5  C   UNL     1     -12.243  14.032  70.100  1.00  0.00    -0.425 A  
HETATM    6  C   UNL     1     -12.283  12.683  70.495  1.00  0.00    -0.383 A  
HETATM    7  C   UNL     1     -13.023  12.296  71.610  1.00  0.00    -0.311 A  
HETATM    8  C   UNL     1     -13.738  13.239  72.342  1.00  0.00    -0.678 A  
HETATM    9 CL   UNL     1     -13.060  10.641  72.079  1.00  0.00    -0.578 Cl 
HETATM   10  C   UNL     1     -13.680  14.583  71.978  1.00  0.00    -0.528 A  
HETATM   11  C   UNL     1     -12.922  14.983  70.871  1.00  0.00    -0.463 A  
ENDBRANCH   3   5
ENDBRANCH   2   3
BRANCH   2  12
HETATM   12  N   UNL     1     -10.292  12.842  67.285  1.00  0.00    -0.233 NA 
HETATM   13  H   UNL     1      -9.430  13.383  67.356  1.00  0.00     0.000 HD 
HETATM   14  C   UNL     1     -10.254  11.420  66.879  1.00  0.00    -0.219 C  
HETATM   15  C   UNL     1     -10.598  11.248  65.391  1.00  0.00    -0.312 C  
HETATM   16  C   UNL     1     -11.141  10.511  67.739  1.00  0.00    -0.382 C  
HETATM   17  C   UNL     1      -8.789  10.951  67.050  1.00  0.00    -0.141 C  
ENDBRANCH   2  12
TORSDOF 3
ENDMDL
MODEL       25
REMARK 921   NORMALIZED FREE ENERGY PREDICTED BY IDOCK:   -5.11 KCAL/MOL
REMARK 922        TOTAL FREE ENERGY PREDICTED BY IDOCK:   -6.47 KCAL/MOL
REMARK 923 INTER-LIGAND FREE ENERGY PREDICTED BY IDOCK:   -5.80 KCAL/MOL
REMARK 924 INTRA-LIGAND FREE ENERGY PREDICTED BY IDOCK:   -0.67 KCAL/MOL
REMARK 927      BINDING AFFINITY PREDICTED BY RF-SCORE:    0.00 PKD
ROOT
HETATM    1  C   UNL     1     -11.987  15.173  64.654  1.00  0.00    -0.301 C  
HETATM    2  C   UNL     1     -11.589  14.260  65.819  1.00  0.00    -0.346 C  
ENDROOT
BRANCH   2   3
HETATM    3  C   UNL     1     -12.059  12.823  65.472  1.00  0.00    -0.465 C  
HETATM    4  O   UNL     1     -13.097  12.607  64.841  1.00  0.00    -0.850 OA 
BRANCH   3   5
HETATM    5  C   UNL     1     -11.234  11.630  65.859  1.00  0.00    -0.296 A  
HETATM    6  C   UNL     1     -10.434  11.045  64.861  1.00  0.00    -0.371 A  
HETATM    7  C   UNL     1      -9.693   9.897  65.134  1.00  0.00    -0.306 A  
HETATM    8  C   UNL     1      -9.740   9.311  66.396  1.00  0.00    -0.325 A  
HETATM    9 CL   UNL     1      -8.719   9.195  63.901  1.00  0.00    -0.191 Cl 
HETATM   10  C   UNL     1     -10.505   9.901  67.401  1.00  0.00    -0.325 A  
HETATM   11  C   UNL     1     -11.237  11.066  67.141  1.00  0.00    -0.290 A  
ENDBRANCH   3   5
ENDBRANCH   2   3
BRANCH   2  12
HETATM   12  N   UNL     1     -12.194  14.695  67.101  1.00  0.00    -0.506 NA 
HETATM   13  H   UNL     1     -13.204  14.658  67.236  1.00  0.00     0.000 HD 
HETATM   14  C   UNL     1     -11.310  15.184  68.181  1.00  0.00    -0.335 C  
HETATM   15  C   UNL     1     -10.902  16.649  67.959  1.00  0.00    -0.337 C  
HETATM   16  C   UNL     1     -10.066  14.313  68.399  1.00  0.00    -0.243 C  
HETATM   17  C   UNL     1     -12.144  15.151  69.484  1.00  0.00    -0.316 C  
ENDBRANCH   2  12
TORSDOF 3
ENDMDL
MODEL       26
REMARK 921   NORMALIZED FREE ENERGY PREDICTED BY IDOCK:   -5.09 KCAL/MOL
REMARK 922        TOTAL FREE ENERGY PREDICTED BY IDOCK:   -6.45 KCAL/MOL
REMARK 923 INTER-LIGAND FREE ENERGY PREDICTED BY IDOCK:   -5.87 KCAL/MOL
REMARK 924 INTRA-LIGAND FREE ENERGY PREDICTED BY IDOCK:   -0.58 KCAL/MOL
REMARK 927      BINDING AFFINITY PREDICTED BY RF-SCORE:    0.00 PKD
ROOT
HETATM    1  C   UNL     1     -10.782  16.067  65.801  1.00  0.00    -0.310 C  
HETATM    2  C   UNL     1     -11.170  14.833  66.623  1.00  0.00    -0.346 C  
ENDROOT
BRANCH   2   3
HETATM    3  C   UNL     1     -11.969  13.882  65.694  1.00  0.00    -0.392 C  
HETATM    4  O   UNL     1     -13.163  14.060  65.444  1.00  0.00    -0.761 OA 
BRANCH   3   5
HETATM    5  C   UNL     1     -11.296  12.720  65.022  1.00  0.00    -0.344 A  
HETATM    6  C   UNL     1     -10.904  11.641  65.834  1.00  0.00    -0.339 A  
HETATM    7  C   UNL     1     -10.218  10.559  65.288  1.00  0.00    -0.282 A  
HETATM    8  C   UNL     1      -9.905  10.536  63.931  1.00  0.00    -0.373 A  
HETATM    9 CL   UNL     1      -9.747   9.247  66.296  1.00  0.00    -0.315 Cl 
HETATM   10  C   UNL     1     -10.316  11.586  63.111  1.00  0.00    -0.376 A  
HETATM   11  C   UNL     1     -11.025  12.667  63.650  1.00  0.00    -0.464 A  
ENDBRANCH   3   5
ENDBRANCH   2   3
BRANCH   2  12
HETATM   12  N   UNL     1     -11.987  15.187  67.809  1.00  0.00    -0.430 NA 
HETATM   13  H   UNL     1     -12.838  15.739  67.706  1.00  0.00     0.000 HD 
HETATM   14  C   UNL     1     -11.549  14.726  69.144  1.00  0.00    -0.303 C  
HETATM   15  C   UNL     1     -10.450  15.631  69.722  1.00  0.00    -0.312 C  
HETATM   16  C   UNL     1     -11.100  13.259  69.172  1.00  0.00    -0.259 C  
HETATM   17  C   UNL     1     -12.772  14.864  70.083  1.00  0.00    -0.262 C  
ENDBRANCH   2  12
TORSDOF 3
ENDMDL
MODEL       27
REMARK 921   NORMALIZED FREE ENERGY PREDICTED BY IDOCK:   -5.08 KCAL/MOL
REMARK 922        TOTAL FREE ENERGY PREDICTED BY IDOCK:   -6.44 KCAL/MOL
REMARK 923 INTER-LIGAND FREE ENERGY PREDICTED BY IDOCK:   -5.71 KCAL/MOL
REMARK 924 INTRA-LIGAND FREE ENERGY PREDICTED BY IDOCK:   -0.73 KCAL/MOL
REMARK 927      BINDING AFFINITY PREDICTED BY RF-SCORE:    0.00 PKD
ROOT
HETATM    1  C   UNL     1     -11.936  12.193  63.644  1.00  0.00    -0.628 C  
HETATM    2  C   UNL     1     -11.706  12.194  65.160  1.00  0.00    -0.310 C  
ENDROOT
BRANCH   2   3
HETATM    3  C   UNL     1     -12.308  13.507  65.725  1.00  0.00    -0.468 C  
HETATM    4  O   UNL     1     -13.250  14.085  65.178  1.00  0.00    -0.768 OA 
BRANCH   3   5
HETATM    5  C   UNL     1     -11.786  14.105  66.999  1.00  0.00    -0.458 A  
HETATM    6  C   UNL     1     -11.028  15.285  66.897  1.00  0.00    -0.315 A  
HETATM    7  C   UNL     1     -10.459  15.859  68.032  1.00  0.00    -0.274 A  
HETATM    8  C   UNL     1     -10.630  15.267  69.281  1.00  0.00    -0.256 A  
HETATM    9 CL   UNL     1      -9.534  17.302  67.889  1.00  0.00    -0.261 Cl 
HETATM   10  C   UNL     1     -11.407  14.116  69.398  1.00  0.00    -0.318 A  
HETATM   11  C   UNL     1     -11.998  13.544  68.264  1.00  0.00    -0.377 A  
ENDBRANCH   3   5
ENDBRANCH   2   3
BRANCH   2  12
HETATM   12  N   UNL     1     -10.267  12.106  65.506  1.00  0.00    -0.259 NA 
HETATM   13  H   UNL     1      -9.641  12.890  65.321  1.00  0.00     0.000 HD 
HETATM   14  C   UNL     1      -9.753  10.864  66.123  1.00  0.00    -0.210 C  
HETATM   15  C   UNL     1      -9.492   9.775  65.070  1.00  0.00    -0.337 C  
HETATM   16  C   UNL     1     -10.648  10.317  67.243  1.00  0.00    -0.324 C  
HETATM   17  C   UNL     1      -8.379  11.214  66.744  1.00  0.00    -0.152 C  
ENDBRANCH   2  12
TORSDOF 3
ENDMDL
MODEL       28
REMARK 921   NORMALIZED FREE ENERGY PREDICTED BY IDOCK:   -5.08 KCAL/MOL
REMARK 922        TOTAL FREE ENERGY PREDICTED BY IDOCK:   -6.44 KCAL/MOL
REMARK 923 INTER-LIGAND FREE ENERGY PREDICTED BY IDOCK:   -5.82 KCAL/MOL
REMARK 924 INTRA-LIGAND FREE ENERGY PREDICTED BY IDOCK:   -0.62 KCAL/MOL
REMARK 927      BINDING AFFINITY PREDICTED BY RF-SCORE:    0.00 PKD
ROOT
HETATM    1  C   UNL     1     -12.131  13.356  70.238  1.00  0.00    -0.419 C  
HETATM    2  C   UNL     1     -11.535  13.406  68.827  1.00  0.00    -0.305 C  
ENDROOT
BRANCH   2   3
HETATM    3  C   UNL     1     -11.712  12.001  68.193  1.00  0.00    -0.333 C  
HETATM    4  O   UNL     1     -12.236  11.067  68.805  1.00  0.00    -0.546 OA 
BRANCH   3   5
HETATM    5  C   UNL     1     -11.286  11.737  66.778  1.00  0.00    -0.388 A  
HETATM    6  C   UNL     1     -11.845  12.545  65.772  1.00  0.00    -0.494 A  
HETATM    7  C   UNL     1     -11.543  12.313  64.431  1.00  0.00    -0.360 A  
HETATM    8  C   UNL     1     -10.689  11.275  64.071  1.00  0.00    -0.444 A  
HETATM    9 CL   UNL     1     -12.237  13.312  63.214  1.00  0.00    -0.536 Cl 
HETATM   10  C   UNL     1     -10.104  10.488  65.063  1.00  0.00    -0.390 A  
HETATM   11  C   UNL     1     -10.386  10.728  66.413  1.00  0.00    -0.306 A  
ENDBRANCH   3   5
ENDBRANCH   2   3
BRANCH   2  12
HETATM   12  N   UNL     1     -10.100  13.779  68.840  1.00  0.00    -0.408 NA 
HETATM   13  H   UNL     1      -9.404  13.148  69.239  1.00  0.00     0.000 HD 
HETATM   14  C   UNL     1      -9.692  15.079  68.266  1.00  0.00    -0.215 C  
HETATM   15  C   UNL     1      -9.926  16.232  69.255  1.00  0.00    -0.259 C  
HETATM   16  C   UNL     1     -10.354  15.391  66.918  1.00  0.00    -0.277 C  
HETATM   17  C   UNL     1      -8.164  15.000  68.035  1.00  0.00    -0.138 C  
ENDBRANCH   2  12
TORSDOF 3
ENDMDL
MODEL       29
REMARK 921   NORMALIZED FREE ENERGY PREDICTED BY IDOCK:   -5.07 KCAL/MOL
REMARK 922        TOTAL FREE ENERGY PREDICTED BY IDOCK:   -6.42 KCAL/MOL
REMARK 923 INTER-LIGAND FREE ENERGY PREDICTED BY IDOCK:   -5.88 KCAL/MOL
REMARK 924 INTRA-LIGAND FREE ENERGY PREDICTED BY IDOCK:   -0.55 KCAL/MOL
REMARK 927      BINDING AFFINITY PREDICTED BY RF-SCORE:    0.00 PKD
ROOT
HETATM    1  C   UNL     1     -10.648  16.199  68.278  1.00  0.00    -0.288 C  
HETATM    2  C   UNL     1     -11.414  14.986  68.817  1.00  0.00    -0.319 C  
ENDROOT
BRANCH   2   3
HETATM    3  C   UNL     1     -11.808  14.103  67.605  1.00  0.00    -0.392 C  
HETATM    4  O   UNL     1     -12.485  14.537  66.669  1.00  0.00    -0.281 OA 
BRANCH   3   5
HETATM    5  C   UNL     1     -11.337  12.681  67.504  1.00  0.00    -0.361 A  
HETATM    6  C   UNL     1     -10.519  12.346  66.411  1.00  0.00    -0.267 A  
HETATM    7  C   UNL     1     -10.098  11.031  66.220  1.00  0.00    -0.235 A  
HETATM    8  C   UNL     1     -10.488  10.032  67.108  1.00  0.00    -0.305 A  
HETATM    9 CL   UNL     1      -9.099  10.639  64.877  1.00  0.00    -0.216 Cl 
HETATM   10  C   UNL     1     -11.272  10.359  68.213  1.00  0.00    -0.330 A  
HETATM   11  C   UNL     1     -11.682  11.681  68.422  1.00  0.00    -0.374 A  
ENDBRANCH   3   5
ENDBRANCH   2   3
BRANCH   2  12
HETATM   12  N   UNL     1     -12.628  15.382  69.571  1.00  0.00    -0.614 NA 
HETATM   13  H   UNL     1     -13.377  15.900  69.112  1.00  0.00     0.000 HD 
HETATM   14  C   UNL     1     -12.736  15.016  71.000  1.00  0.00    -0.366 C  
HETATM   15  C   UNL     1     -11.951  15.988  71.894  1.00  0.00    -0.606 C  
HETATM   16  C   UNL     1     -12.322  13.568  71.297  1.00  0.00    -0.325 C  
HETATM   17  C   UNL     1     -14.227  15.169  71.385  1.00  0.00    -0.597 C  
ENDBRANCH   2  12
TORSDOF 3
ENDMDL
MODEL       30
REMARK 921   NORMALIZED FREE ENERGY PREDICTED BY IDOCK:   -5.06 KCAL/MOL
REMARK 922        TOTAL FREE ENERGY PREDICTED BY IDOCK:   -6.42 KCAL/MOL
REMARK 923 INTER-LIGAND FREE ENERGY PREDICTED BY IDOCK:   -5.90 KCAL/MOL
REMARK 924 INTRA-LIGAND FREE ENERGY PREDICTED BY IDOCK:   -0.51 KCAL/MOL
REMARK 927      BINDING AFFINITY PREDICTED BY RF-SCORE:    0.00 PKD
ROOT
HETATM    1  C   UNL     1     -11.041   8.530  72.133  1.00  0.00    -0.436 C  
HETATM    2  C   UNL     1     -11.244   9.642  71.097  1.00  0.00    -0.384 C  
ENDROOT
BRANCH   2   3
HETATM    3  C   UNL     1     -12.601  10.328  71.406  1.00  0.00    -0.434 C  
HETATM    4  O   UNL     1     -13.589   9.690  71.776  1.00  0.00    -0.379 OA 
BRANCH   3   5
HETATM    5  C   UNL     1     -12.748  11.819  71.307  1.00  0.00    -0.420 A  
HETATM    6  C   UNL     1     -12.147  12.457  70.207  1.00  0.00    -0.377 A  
HETATM    7  C   UNL     1     -12.189  13.844  70.086  1.00  0.00    -0.358 A  
HETATM    8  C   UNL     1     -12.821  14.617  71.057  1.00  0.00    -0.414 A  
HETATM    9 CL   UNL     1     -11.449  14.607  68.734  1.00  0.00    -0.303 Cl 
HETATM   10  C   UNL     1     -13.448  13.992  72.135  1.00  0.00    -0.567 A  
HETATM   11  C   UNL     1     -13.427  12.597  72.252  1.00  0.00    -0.541 A  
ENDBRANCH   3   5
ENDBRANCH   2   3
BRANCH   2  12
HETATM   12  N   UNL     1     -11.246   9.119  69.710  1.00  0.00    -0.420 NA 
HETATM   13  H   UNL     1     -12.091   8.708  69.312  1.00  0.00     0.000 HD 
HETATM   14  C   UNL     1     -10.003   9.200  68.912  1.00  0.00    -0.180 C  
HETATM   15  C   UNL     1      -9.030   8.063  69.263  1.00  0.00    -0.148 C  
HETATM   16  C   UNL     1      -9.295  10.557  69.014  1.00  0.00    -0.205 C  
HETATM   17  C   UNL     1     -10.412   8.989  67.435  1.00  0.00    -0.338 C  
ENDBRANCH   2  12
TORSDOF 3
ENDMDL
MODEL       31
REMARK 921   NORMALIZED FREE ENERGY PREDICTED BY IDOCK:   -5.05 KCAL/MOL
REMARK 922        TOTAL FREE ENERGY PREDICTED BY IDOCK:   -6.40 KCAL/MOL
REMARK 923 INTER-LIGAND FREE ENERGY PREDICTED BY IDOCK:   -6.10 KCAL/MOL
REMARK 924 INTRA-LIGAND FREE ENERGY PREDICTED BY IDOCK:   -0.30 KCAL/MOL
REMARK 927      BINDING AFFINITY PREDICTED BY RF-SCORE:    0.00 PKD
ROOT
HETATM    1  C   UNL     1     -11.253  16.332  64.462  1.00  0.00    -0.218 C  
HETATM    2  C   UNL     1     -10.735  15.223  65.385  1.00  0.00    -0.391 C  
ENDROOT
BRANCH   2   3
HETATM    3  C   UNL     1      -9.605  15.829  66.258  1.00  0.00    -0.313 C  
HETATM    4  O   UNL     1      -8.640  15.161  66.638  1.00  0.00    -0.263 OA 
BRANCH   3   5
HETATM    5  C   UNL     1      -9.624  17.281  66.640  1.00  0.00    -0.286 A  
HETATM    6  C   UNL     1      -8.523  18.066  66.255  1.00  0.00    -0.214 A  
HETATM    7  C   UNL     1      -8.444  19.405  66.631  1.00  0.00    -0.320 A  
HETATM    8  C   UNL     1      -9.452  19.980  67.400  1.00  0.00    -0.508 A  
HETATM    9 CL   UNL     1      -7.090  20.350  66.151  1.00  0.00    -0.290 Cl 
HETATM   10  C   UNL     1     -10.564  19.219  67.761  1.00  0.00    -0.516 A  
HETATM   11  C   UNL     1     -10.659  17.878  67.368  1.00  0.00    -0.370 A  
ENDBRANCH   3   5
ENDBRANCH   2   3
BRANCH   2  12
HETATM   12  N   UNL     1     -10.218  14.060  64.623  1.00  0.00    -0.649 NA 
HETATM   13  H   UNL     1      -9.283  14.081  64.216  1.00  0.00     0.000 HD 
HETATM   14  C   UNL     1     -11.080  12.869  64.463  1.00  0.00    -0.342 C  
HETATM   15  C   UNL     1     -12.106  13.060  63.335  1.00  0.00    -0.591 C  
HETATM   16  C   UNL     1     -11.785  12.441  65.757  1.00  0.00    -0.470 C  
HETATM   17  C   UNL     1     -10.154  11.709  64.024  1.00  0.00    -0.362 C  
ENDBRANCH   2  12
TORSDOF 3
ENDMDL
MODEL       32
REMARK 921   NORMALIZED FREE ENERGY PREDICTED BY IDOCK:   -5.02 KCAL/MOL
REMARK 922        TOTAL FREE ENERGY PREDICTED BY IDOCK:   -6.37 KCAL/MOL
REMARK 923 INTER-LIGAND FREE ENERGY PREDICTED BY IDOCK:   -5.69 KCAL/MOL
REMARK 924 INTRA-LIGAND FREE ENERGY PREDICTED BY IDOCK:   -0.67 KCAL/MOL
REMARK 927      BINDING AFFINITY PREDICTED BY RF-SCORE:    0.00 PKD
ROOT
HETATM    1  C   UNL     1     -11.461  15.863  64.404  1.00  0.00    -0.268 C  
HETATM    2  C   UNL     1     -10.915  15.047  65.582  1.00  0.00    -0.354 C  
ENDROOT
BRANCH   2   3
HETATM    3  C   UNL     1     -12.013  14.033  65.999  1.00  0.00    -0.416 C  
HETATM    4  O   UNL     1     -13.092  13.955  65.406  1.00  0.00    -0.752 OA 
BRANCH   3   5
HETATM    5  C   UNL     1     -11.781  13.069  67.126  1.00  0.00    -0.439 A  
HETATM    6  C   UNL     1     -11.353  11.772  66.790  1.00  0.00    -0.385 A  
HETATM    7  C   UNL     1     -11.180  10.808  67.781  1.00  0.00    -0.316 A  
HETATM    8  C   UNL     1     -11.435  11.115  69.114  1.00  0.00    -0.366 A  
HETATM    9 CL   UNL     1     -10.656   9.227  67.352  1.00  0.00    -0.344 Cl 
HETATM   10  C   UNL     1     -11.829  12.406  69.462  1.00  0.00    -0.368 A  
HETATM   11  C   UNL     1     -11.985  13.387  68.474  1.00  0.00    -0.363 A  
ENDBRANCH   3   5
ENDBRANCH   2   3
BRANCH   2  12
HETATM   12  N   UNL     1     -10.554  15.905  66.735  1.00  0.00    -0.317 NA 
HETATM   13  H   UNL     1     -11.253  16.503  67.176  1.00  0.00     0.000 HD 
HETATM   14  C   UNL     1      -9.163  15.882  67.237  1.00  0.00    -0.206 C  
HETATM   15  C   UNL     1      -8.239  16.765  66.383  1.00  0.00    -0.349 C  
HETATM   16  C   UNL     1      -8.579  14.469  67.367  1.00  0.00    -0.213 C  
HETATM   17  C   UNL     1      -9.192  16.513  68.650  1.00  0.00    -0.238 C  
ENDBRANCH   2  12
TORSDOF 3
ENDMDL
MODEL       33
REMARK 921   NORMALIZED FREE ENERGY PREDICTED BY IDOCK:   -5.01 KCAL/MOL
REMARK 922        TOTAL FREE ENERGY PREDICTED BY IDOCK:   -6.35 KCAL/MOL
REMARK 923 INTER-LIGAND FREE ENERGY PREDICTED BY IDOCK:   -5.74 KCAL/MOL
REMARK 924 INTRA-LIGAND FREE ENERGY PREDICTED BY IDOCK:   -0.61 KCAL/MOL
REMARK 927      BINDING AFFINITY PREDICTED BY RF-SCORE:    0.00 PKD
ROOT
HETATM    1  C   UNL     1      -9.147  14.250  68.586  1.00  0.00    -0.160 C  
HETATM    2  C   UNL     1      -9.951  15.127  67.620  1.00  0.00    -0.229 C  
ENDROOT
BRANCH   2   3
HETATM    3  C   UNL     1     -10.403  16.390  68.398  1.00  0.00    -0.282 C  
HETATM    4  O   UNL     1     -11.102  16.320  69.413  1.00  0.00    -0.311 OA 
BRANCH   3   5
HETATM    5  C   UNL     1      -9.966  17.759  67.964  1.00  0.00    -0.333 A  
HETATM    6  C   UNL     1      -8.711  18.210  68.411  1.00  0.00    -0.302 A  
HETATM    7  C   UNL     1      -8.270  19.494  68.099  1.00  0.00    -0.317 A  
HETATM    8  C   UNL     1      -9.070  20.349  67.346  1.00  0.00    -0.484 A  
HETATM    9 CL   UNL     1      -6.732  20.028  68.654  1.00  0.00    -0.344 Cl 
HETATM   10  C   UNL     1     -10.302  19.902  66.871  1.00  0.00    -0.596 A  
HETATM   11  C   UNL     1     -10.743  18.605  67.163  1.00  0.00    -0.433 A  
ENDBRANCH   3   5
ENDBRANCH   2   3
BRANCH   2  12
HETATM   12  N   UNL     1     -11.133  14.418  67.073  1.00  0.00    -0.305 NA 
HETATM   13  H   UNL     1     -11.829  14.013  67.699  1.00  0.00     0.000 HD 
HETATM   14  C   UNL     1     -11.286  14.306  65.607  1.00  0.00    -0.317 C  
HETATM   15  C   UNL     1     -10.428  13.167  65.034  1.00  0.00    -0.358 C  
HETATM   16  C   UNL     1     -11.004  15.614  64.857  1.00  0.00    -0.447 C  
HETATM   17  C   UNL     1     -12.762  13.920  65.345  1.00  0.00    -0.525 C  
ENDBRANCH   2  12
TORSDOF 3
ENDMDL
MODEL       34
REMARK 921   NORMALIZED FREE ENERGY PREDICTED BY IDOCK:   -4.99 KCAL/MOL
REMARK 922        TOTAL FREE ENERGY PREDICTED BY IDOCK:   -6.33 KCAL/MOL
REMARK 923 INTER-LIGAND FREE ENERGY PREDICTED BY IDOCK:   -5.82 KCAL/MOL
REMARK 924 INTRA-LIGAND FREE ENERGY PREDICTED BY IDOCK:   -0.51 KCAL/MOL
REMARK 927      BINDING AFFINITY PREDICTED BY RF-SCORE:    0.00 PKD
ROOT
HETATM    1  C   UNL     1     -11.380  16.073  64.623  1.00  0.00    -0.312 C  
HETATM    2  C   UNL     1     -10.995  14.744  65.284  1.00  0.00    -0.374 C  
ENDROOT
BRANCH   2   3
HETATM    3  C   UNL     1      -9.977  15.059  66.412  1.00  0.00    -0.279 C  
HETATM    4  O   UNL     1      -8.775  15.218  66.185  1.00  0.00    -0.245 OA 
BRANCH   3   5
HETATM    5  C   UNL     1     -10.432  15.226  67.833  1.00  0.00    -0.253 A  
HETATM    6  C   UNL     1     -10.973  14.099  68.476  1.00  0.00    -0.271 A  
HETATM    7  C   UNL     1     -11.474  14.198  69.773  1.00  0.00    -0.250 A  
HETATM    8  C   UNL     1     -11.449  15.417  70.445  1.00  0.00    -0.355 A  
HETATM    9 CL   UNL     1     -12.132  12.809  70.544  1.00  0.00    -0.429 Cl 
HETATM   10  C   UNL     1     -10.885  16.533  69.829  1.00  0.00    -0.302 A  
HETATM   11  C   UNL     1     -10.362  16.436  68.533  1.00  0.00    -0.270 A  
ENDBRANCH   3   5
ENDBRANCH   2   3
BRANCH   2  12
HETATM   12  N   UNL     1     -10.401  13.791  64.317  1.00  0.00    -0.697 NA 
HETATM   13  H   UNL     1      -9.686  14.099  63.658  1.00  0.00     0.000 HD 
HETATM   14  C   UNL     1     -10.862  12.385  64.322  1.00  0.00    -0.355 C  
HETATM   15  C   UNL     1     -12.186  12.222  63.559  1.00  0.00    -0.669 C  
HETATM   16  C   UNL     1     -10.978  11.781  65.727  1.00  0.00    -0.353 C  
HETATM   17  C   UNL     1      -9.802  11.570  63.543  1.00  0.00    -0.407 C  
ENDBRANCH   2  12
TORSDOF 3
ENDMDL
MODEL       35
REMARK 921   NORMALIZED FREE ENERGY PREDICTED BY IDOCK:   -4.99 KCAL/MOL
REMARK 922        TOTAL FREE ENERGY PREDICTED BY IDOCK:   -6.33 KCAL/MOL
REMARK 923 INTER-LIGAND FREE ENERGY PREDICTED BY IDOCK:   -5.69 KCAL/MOL
REMARK 924 INTRA-LIGAND FREE ENERGY PREDICTED BY IDOCK:   -0.64 KCAL/MOL
REMARK 927      BINDING AFFINITY PREDICTED BY RF-SCORE:    0.00 PKD
ROOT
HETATM    1  C   UNL     1     -11.760  15.032  64.704  1.00  0.00    -0.383 C  
HETATM    2  C   UNL     1     -11.455  14.214  65.964  1.00  0.00    -0.342 C  
ENDROOT
BRANCH   2   3
HETATM    3  C   UNL     1     -11.985  12.776  65.730  1.00  0.00    -0.449 C  
HETATM    4  O   UNL     1     -12.937  12.542  64.982  1.00  0.00    -0.779 OA 
BRANCH   3   5
HETATM    5  C   UNL     1     -11.322  11.597  66.382  1.00  0.00    -0.312 A  
HETATM    6  C   UNL     1     -11.579  11.383  67.747  1.00  0.00    -0.325 A  
HETATM    7  C   UNL     1     -10.947  10.346  68.431  1.00  0.00    -0.264 A  
HETATM    8  C   UNL     1     -10.049   9.513  67.770  1.00  0.00    -0.244 A  
HETATM    9 CL   UNL     1     -11.273  10.099  70.101  1.00  0.00    -0.347 Cl 
HETATM   10  C   UNL     1      -9.811   9.696  66.409  1.00  0.00    -0.309 A  
HETATM   11  C   UNL     1     -10.458  10.723  65.711  1.00  0.00    -0.256 A  
ENDBRANCH   3   5
ENDBRANCH   2   3
BRANCH   2  12
HETATM   12  N   UNL     1     -12.085  14.797  67.174  1.00  0.00    -0.447 NA 
HETATM   13  H   UNL     1     -13.100  14.792  67.282  1.00  0.00     0.000 HD 
HETATM   14  C   UNL     1     -11.221  15.385  68.220  1.00  0.00    -0.323 C  
HETATM   15  C   UNL     1     -10.779  16.810  67.852  1.00  0.00    -0.347 C  
HETATM   16  C   UNL     1     -10.001  14.522  68.567  1.00  0.00    -0.238 C  
HETATM   17  C   UNL     1     -12.091  15.509  69.494  1.00  0.00    -0.326 C  
ENDBRANCH   2  12
TORSDOF 3
ENDMDL
MODEL       36
REMARK 921   NORMALIZED FREE ENERGY PREDICTED BY IDOCK:   -4.99 KCAL/MOL
REMARK 922        TOTAL FREE ENERGY PREDICTED BY IDOCK:   -6.33 KCAL/MOL
REMARK 923 INTER-LIGAND FREE ENERGY PREDICTED BY IDOCK:   -5.66 KCAL/MOL
REMARK 924 INTRA-LIGAND FREE ENERGY PREDICTED BY IDOCK:   -0.66 KCAL/MOL
REMARK 927      BINDING AFFINITY PREDICTED BY RF-SCORE:    0.00 PKD
ROOT
HETATM    1  C   UNL     1     -11.425  15.926  64.222  1.00  0.00    -0.197 C  
HETATM    2  C   UNL     1     -10.913  15.103  65.409  1.00  0.00    -0.374 C  
ENDROOT
BRANCH   2   3
HETATM    3  C   UNL     1     -12.041  14.120  65.820  1.00  0.00    -0.420 C  
HETATM    4  O   UNL     1     -13.123  14.081  65.229  1.00  0.00    -0.782 OA 
BRANCH   3   5
HETATM    5  C   UNL     1     -11.837  13.140  66.938  1.00  0.00    -0.444 A  
HETATM    6  C   UNL     1     -12.157  13.566  68.239  1.00  0.00    -0.295 A  
HETATM    7  C   UNL     1     -11.932  12.730  69.331  1.00  0.00    -0.263 A  
HETATM    8  C   UNL     1     -11.380  11.465  69.148  1.00  0.00    -0.353 A  
HETATM    9 CL   UNL     1     -12.330  13.268  70.916  1.00  0.00    -0.449 Cl 
HETATM   10  C   UNL     1     -11.089  11.020  67.859  1.00  0.00    -0.347 A  
HETATM   11  C   UNL     1     -11.331  11.847  66.755  1.00  0.00    -0.393 A  
ENDBRANCH   3   5
ENDBRANCH   2   3
BRANCH   2  12
HETATM   12  N   UNL     1     -10.540  15.957  66.562  1.00  0.00    -0.309 NA 
HETATM   13  H   UNL     1     -11.230  16.572  66.995  1.00  0.00     0.000 HD 
HETATM   14  C   UNL     1      -9.154  15.905  67.075  1.00  0.00    -0.217 C  
HETATM   15  C   UNL     1      -8.204  16.763  66.224  1.00  0.00    -0.359 C  
HETATM   16  C   UNL     1      -8.603  14.480  67.214  1.00  0.00    -0.231 C  
HETATM   17  C   UNL     1      -9.180  16.542  68.485  1.00  0.00    -0.230 C  
ENDBRANCH   2  12
TORSDOF 3
ENDMDL
MODEL       37
REMARK 921   NORMALIZED FREE ENERGY PREDICTED BY IDOCK:   -4.98 KCAL/MOL
REMARK 922        TOTAL FREE ENERGY PREDICTED BY IDOCK:   -6.32 KCAL/MOL
REMARK 923 INTER-LIGAND FREE ENERGY PREDICTED BY IDOCK:   -5.69 KCAL/MOL
REMARK 924 INTRA-LIGAND FREE ENERGY PREDICTED BY IDOCK:   -0.63 KCAL/MOL
REMARK 927      BINDING AFFINITY PREDICTED BY RF-SCORE:    0.00 PKD
ROOT
HETATM    1  C   UNL     1     -10.474  13.740  68.686  1.00  0.00    -0.245 C  
HETATM    2  C   UNL     1     -11.417  13.343  69.827  1.00  0.00    -0.166 C  
ENDROOT
BRANCH   2   3
HETATM    3  C   UNL     1     -12.003  11.948  69.486  1.00  0.00    -0.292 C  
HETATM    4  O   UNL     1     -12.446  11.678  68.367  1.00  0.00    -0.261 OA 
BRANCH   3   5
HETATM    5  C   UNL     1     -12.013  10.848  70.508  1.00  0.00    -0.466 A  
HETATM    6  C   UNL     1     -10.871  10.032  70.591  1.00  0.00    -0.367 A  
HETATM    7  C   UNL     1     -10.837   8.953  71.473  1.00  0.00    -0.326 A  
HETATM    8  C   UNL     1     -11.937   8.666  72.276  1.00  0.00    -0.438 A  
HETATM    9 CL   UNL     1      -9.432   7.965  71.562  1.00  0.00    -0.174 Cl 
HETATM   10  C   UNL     1     -13.062   9.487  72.225  1.00  0.00    -0.492 A  
HETATM   11  C   UNL     1     -13.096  10.586  71.356  1.00  0.00    -0.509 A  
ENDBRANCH   3   5
ENDBRANCH   2   3
BRANCH   2  12
HETATM   12  N   UNL     1     -12.514  14.322  70.011  1.00  0.00    -0.419 NA 
HETATM   13  H   UNL     1     -13.142  14.549  69.239  1.00  0.00     0.000 HD 
HETATM   14  C   UNL     1     -12.685  14.967  71.331  1.00  0.00    -0.341 C  
HETATM   15  C   UNL     1     -11.706  16.137  71.520  1.00  0.00    -0.533 C  
HETATM   16  C   UNL     1     -12.582  13.991  72.510  1.00  0.00    -0.224 C  
HETATM   17  C   UNL     1     -14.107  15.577  71.345  1.00  0.00    -0.440 C  
ENDBRANCH   2  12
TORSDOF 3
ENDMDL
MODEL       38
REMARK 921   NORMALIZED FREE ENERGY PREDICTED BY IDOCK:   -4.93 KCAL/MOL
REMARK 922        TOTAL FREE ENERGY PREDICTED BY IDOCK:   -6.26 KCAL/MOL
REMARK 923 INTER-LIGAND FREE ENERGY PREDICTED BY IDOCK:   -6.14 KCAL/MOL
REMARK 924 INTRA-LIGAND FREE ENERGY PREDICTED BY IDOCK:   -0.11 KCAL/MOL
REMARK 927      BINDING AFFINITY PREDICTED BY RF-SCORE:    0.00 PKD
ROOT
HETATM    1  C   UNL     1     -13.534   9.644  72.071  1.00  0.00    -0.514 C  
HETATM    2  C   UNL     1     -12.214   9.881  71.328  1.00  0.00    -0.387 C  
ENDROOT
BRANCH   2   3
HETATM    3  C   UNL     1     -12.406  11.118  70.413  1.00  0.00    -0.344 C  
HETATM    4  O   UNL     1     -12.455  11.023  69.184  1.00  0.00    -0.432 OA 
BRANCH   3   5
HETATM    5  C   UNL     1     -12.585  12.488  71.000  1.00  0.00    -0.350 A  
HETATM    6  C   UNL     1     -11.862  13.543  70.415  1.00  0.00    -0.293 A  
HETATM    7  C   UNL     1     -11.932  14.828  70.949  1.00  0.00    -0.324 A  
HETATM    8  C   UNL     1     -12.713  15.082  72.073  1.00  0.00    -0.406 A  
HETATM    9 CL   UNL     1     -11.040  16.106  70.221  1.00  0.00    -0.370 Cl 
HETATM   10  C   UNL     1     -13.460  14.050  72.641  1.00  0.00    -0.650 A  
HETATM   11  C   UNL     1     -13.411  12.761  72.097  1.00  0.00    -0.593 A  
ENDBRANCH   3   5
ENDBRANCH   2   3
BRANCH   2  12
HETATM   12  N   UNL     1     -11.812   8.707  70.516  1.00  0.00    -0.474 NA 
HETATM   13  H   UNL     1     -12.379   8.407  69.723  1.00  0.00     0.000 HD 
HETATM   14  C   UNL     1     -10.577   7.977  70.875  1.00  0.00    -0.213 C  
HETATM   15  C   UNL     1     -10.814   7.001  72.037  1.00  0.00    -0.253 C  
HETATM   16  C   UNL     1      -9.388   8.895  71.185  1.00  0.00    -0.326 C  
HETATM   17  C   UNL     1     -10.201   7.115  69.646  1.00  0.00    -0.215 C  
ENDBRANCH   2  12
TORSDOF 3
ENDMDL
MODEL       39
REMARK 921   NORMALIZED FREE ENERGY PREDICTED BY IDOCK:   -4.91 KCAL/MOL
REMARK 922        TOTAL FREE ENERGY PREDICTED BY IDOCK:   -6.24 KCAL/MOL
REMARK 923 INTER-LIGAND FREE ENERGY PREDICTED BY IDOCK:   -5.56 KCAL/MOL
REMARK 924 INTRA-LIGAND FREE ENERGY PREDICTED BY IDOCK:   -0.68 KCAL/MOL
REMARK 927      BINDING AFFINITY PREDICTED BY RF-SCORE:    0.00 PKD
ROOT
HETATM    1  C   UNL     1     -11.950  15.606  69.471  1.00  0.00    -0.363 C  
HETATM    2  C   UNL     1     -11.509  15.102  68.092  1.00  0.00    -0.342 C  
ENDROOT
BRANCH   2   3
HETATM    3  C   UNL     1     -11.566  13.552  68.117  1.00  0.00    -0.333 C  
HETATM    4  O   UNL     1     -12.037  12.929  69.072  1.00  0.00    -0.267 OA 
BRANCH   3   5
HETATM    5  C   UNL     1     -11.084  12.746  66.946  1.00  0.00    -0.308 A  
HETATM    6  C   UNL     1     -11.915  12.688  65.814  1.00  0.00    -0.503 A  
HETATM    7  C   UNL     1     -11.560  11.906  64.717  1.00  0.00    -0.236 A  
HETATM    8  C   UNL     1     -10.380  11.168  64.731  1.00  0.00    -0.387 A  
HETATM    9 CL   UNL     1     -12.589  11.847  63.340  1.00  0.00    -0.674 Cl 
HETATM   10  C   UNL     1      -9.532  11.244  65.836  1.00  0.00    -0.247 A  
HETATM   11  C   UNL     1      -9.873  12.043  66.934  1.00  0.00    -0.217 A  
ENDBRANCH   3   5
ENDBRANCH   2   3
BRANCH   2  12
HETATM   12  N   UNL     1     -10.139  15.553  67.745  1.00  0.00    -0.230 NA 
HETATM   13  H   UNL     1      -9.342  15.278  68.320  1.00  0.00     0.000 HD 
HETATM   14  C   UNL     1      -9.946  16.408  66.554  1.00  0.00    -0.282 C  
HETATM   15  C   UNL     1     -10.276  17.878  66.853  1.00  0.00    -0.358 C  
HETATM   16  C   UNL     1     -10.722  15.928  65.321  1.00  0.00    -0.442 C  
HETATM   17  C   UNL     1      -8.437  16.355  66.213  1.00  0.00    -0.372 C  
ENDBRANCH   2  12
TORSDOF 3
ENDMDL
MODEL       40
REMARK 921   NORMALIZED FREE ENERGY PREDICTED BY IDOCK:   -4.91 KCAL/MOL
REMARK 922        TOTAL FREE ENERGY PREDICTED BY IDOCK:   -6.24 KCAL/MOL
REMARK 923 INTER-LIGAND FREE ENERGY PREDICTED BY IDOCK:   -5.88 KCAL/MOL
REMARK 924 INTRA-LIGAND FREE ENERGY PREDICTED BY IDOCK:   -0.35 KCAL/MOL
REMARK 927      BINDING AFFINITY PREDICTED BY RF-SCORE:    0.00 PKD
ROOT
HETATM    1  C   UNL     1     -11.028  16.593  68.299  1.00  0.00    -0.341 C  
HETATM    2  C   UNL     1     -10.337  17.018  66.998  1.00  0.00    -0.304 C  
ENDROOT
BRANCH   2   3
HETATM    3  C   UNL     1      -9.722  15.747  66.357  1.00  0.00    -0.282 C  
HETATM    4  O   UNL     1      -8.503  15.595  66.240  1.00  0.00    -0.286 OA 
BRANCH   3   5
HETATM    5  C   UNL     1     -10.598  14.621  65.888  1.00  0.00    -0.319 A  
HETATM    6  C   UNL     1     -10.551  13.418  66.614  1.00  0.00    -0.282 A  
HETATM    7  C   UNL     1     -11.289  12.313  66.198  1.00  0.00    -0.353 A  
HETATM    8  C   UNL     1     -12.078  12.384  65.053  1.00  0.00    -0.468 A  
HETATM    9 CL   UNL     1     -11.219  10.849  67.099  1.00  0.00    -0.322 Cl 
HETATM   10  C   UNL     1     -12.157  13.581  64.344  1.00  0.00    -0.468 A  
HETATM   11  C   UNL     1     -11.434  14.703  64.768  1.00  0.00    -0.410 A  
ENDBRANCH   3   5
ENDBRANCH   2   3
BRANCH   2  12
HETATM   12  N   UNL     1      -9.279  18.030  67.232  1.00  0.00    -0.253 NA 
HETATM   13  H   UNL     1      -8.324  17.741  67.445  1.00  0.00     0.000 HD 
HETATM   14  C   UNL     1      -9.629  19.465  67.154  1.00  0.00    -0.327 C  
HETATM   15  C   UNL     1     -10.287  19.958  68.452  1.00  0.00    -0.507 C  
HETATM   16  C   UNL     1     -10.505  19.818  65.945  1.00  0.00    -0.587 C  
HETATM   17  C   UNL     1      -8.296  20.238  67.014  1.00  0.00    -0.373 C  
ENDBRANCH   2  12
TORSDOF 3
ENDMDL
MODEL       41
REMARK 921   NORMALIZED FREE ENERGY PREDICTED BY IDOCK:   -4.90 KCAL/MOL
REMARK 922        TOTAL FREE ENERGY PREDICTED BY IDOCK:   -6.23 KCAL/MOL
REMARK 923 INTER-LIGAND FREE ENERGY PREDICTED BY IDOCK:   -5.78 KCAL/MOL
REMARK 924 INTRA-LIGAND FREE ENERGY PREDICTED BY IDOCK:   -0.44 KCAL/MOL
REMARK 927      BINDING AFFINITY PREDICTED BY RF-SCORE:    0.00 PKD
ROOT
HETATM    1  C   UNL     1      -8.618  15.656  66.942  1.00  0.00    -0.281 C  
HETATM    2  C   UNL     1      -9.669  16.610  67.521  1.00  0.00    -0.247 C  
ENDROOT
BRANCH   2   3
HETATM    3  C   UNL     1     -10.951  15.783  67.797  1.00  0.00    -0.314 C  
HETATM    4  O   UNL     1     -11.746  16.085  68.691  1.00  0.00    -0.382 OA 
BRANCH   3   5
HETATM    5  C   UNL     1     -11.298  14.595  66.947  1.00  0.00    -0.361 A  
HETATM    6  C   UNL     1     -11.184  13.323  67.535  1.00  0.00    -0.309 A  
HETATM    7  C   UNL     1     -11.428  12.175  66.786  1.00  0.00    -0.356 A  
HETATM    8  C   UNL     1     -11.782  12.272  65.443  1.00  0.00    -0.424 A  
HETATM    9 CL   UNL     1     -11.283  10.627  67.522  1.00  0.00    -0.371 Cl 
HETATM   10  C   UNL     1     -11.929  13.529  64.858  1.00  0.00    -0.410 A  
HETATM   11  C   UNL     1     -11.705  14.689  65.611  1.00  0.00    -0.304 A  
ENDBRANCH   3   5
ENDBRANCH   2   3
BRANCH   2  12
HETATM   12  N   UNL     1      -9.976  17.728  66.597  1.00  0.00    -0.322 NA 
HETATM   13  H   UNL     1     -10.462  17.555  65.717  1.00  0.00     0.000 HD 
HETATM   14  C   UNL     1      -9.566  19.100  66.970  1.00  0.00    -0.322 C  
HETATM   15  C   UNL     1      -8.081  19.349  66.662  1.00  0.00    -0.310 C  
HETATM   16  C   UNL     1      -9.875  19.458  68.429  1.00  0.00    -0.513 C  
HETATM   17  C   UNL     1     -10.371  20.063  66.065  1.00  0.00    -0.556 C  
ENDBRANCH   2  12
TORSDOF 3
ENDMDL
MODEL       42
REMARK 921   NORMALIZED FREE ENERGY PREDICTED BY IDOCK:   -4.87 KCAL/MOL
REMARK 922        TOTAL FREE ENERGY PREDICTED BY IDOCK:   -6.19 KCAL/MOL
REMARK 923 INTER-LIGAND FREE ENERGY PREDICTED BY IDOCK:   -5.74 KCAL/MOL
REMARK 924 INTRA-LIGAND FREE ENERGY PREDICTED BY IDOCK:   -0.45 KCAL/MOL
REMARK 927      BINDING AFFINITY PREDICTED BY RF-SCORE:    0.00 PKD
ROOT
HETATM    1  C   UNL     1     -12.004  13.895  68.328  1.00  0.00    -0.392 C  
HETATM    2  C   UNL     1     -11.672  14.657  67.039  1.00  0.00    -0.362 C  
ENDROOT
BRANCH   2   3
HETATM    3  C   UNL     1     -12.167  13.798  65.846  1.00  0.00    -0.466 C  
HETATM    4  O   UNL     1     -13.267  13.981  65.318  1.00  0.00    -0.782 OA 
BRANCH   3   5
HETATM    5  C   UNL     1     -11.294  12.729  65.254  1.00  0.00    -0.338 A  
HETATM    6  C   UNL     1     -11.084  11.569  66.019  1.00  0.00    -0.289 A  
HETATM    7  C   UNL     1     -10.235  10.565  65.560  1.00  0.00    -0.256 A  
HETATM    8  C   UNL     1      -9.578  10.702  64.340  1.00  0.00    -0.349 A  
HETATM    9 CL   UNL     1      -9.989   9.151  66.509  1.00  0.00    -0.341 Cl 
HETATM   10  C   UNL     1      -9.804  11.834  63.558  1.00  0.00    -0.386 A  
HETATM   11  C   UNL     1     -10.673  12.838  64.004  1.00  0.00    -0.457 A  
ENDBRANCH   3   5
ENDBRANCH   2   3
BRANCH   2  12
HETATM   12  N   UNL     1     -10.220  14.921  66.906  1.00  0.00    -0.251 NA 
HETATM   13  H   UNL     1      -9.553  14.149  66.881  1.00  0.00     0.000 HD 
HETATM   14  C   UNL     1      -9.752  16.321  66.810  1.00  0.00    -0.241 C  
HETATM   15  C   UNL     1      -9.672  16.987  68.193  1.00  0.00    -0.268 C  
HETATM   16  C   UNL     1     -10.583  17.183  65.851  1.00  0.00    -0.219 C  
HETATM   17  C   UNL     1      -8.305  16.267  66.264  1.00  0.00    -0.343 C  
ENDBRANCH   2  12
TORSDOF 3
ENDMDL
MODEL       43
REMARK 921   NORMALIZED FREE ENERGY PREDICTED BY IDOCK:   -4.86 KCAL/MOL
REMARK 922        TOTAL FREE ENERGY PREDICTED BY IDOCK:   -6.18 KCAL/MOL
REMARK 923 INTER-LIGAND FREE ENERGY PREDICTED BY IDOCK:   -5.71 KCAL/MOL
REMARK 924 INTRA-LIGAND FREE ENERGY PREDICTED BY IDOCK:   -0.47 KCAL/MOL
REMARK 927      BINDING AFFINITY PREDICTED BY RF-SCORE:    0.00 PKD
ROOT
HETATM    1  C   UNL     1      -8.414  15.931  66.438  1.00  0.00    -0.348 C  
HETATM    2  C   UNL     1      -9.818  16.486  66.702  1.00  0.00    -0.268 C  
ENDROOT
BRANCH   2   3
HETATM    3  C   UNL     1     -10.833  15.345  66.431  1.00  0.00    -0.303 C  
HETATM    4  O   UNL     1     -11.341  15.169  65.321  1.00  0.00    -0.349 OA 
BRANCH   3   5
HETATM    5  C   UNL     1     -11.204  14.374  67.514  1.00  0.00    -0.329 A  
HETATM    6  C   UNL     1     -11.035  13.005  67.242  1.00  0.00    -0.288 A  
HETATM    7  C   UNL     1     -11.419  12.046  68.178  1.00  0.00    -0.322 A  
HETATM    8  C   UNL     1     -11.982  12.433  69.391  1.00  0.00    -0.319 A  
HETATM    9 CL   UNL     1     -11.206  10.376  67.828  1.00  0.00    -0.365 Cl 
HETATM   10  C   UNL     1     -12.124  13.788  69.684  1.00  0.00    -0.392 A  
HETATM   11  C   UNL     1     -11.721  14.758  68.758  1.00  0.00    -0.354 A  
ENDBRANCH   3   5
ENDBRANCH   2   3
BRANCH   2  12
HETATM   12  N   UNL     1     -10.127  17.653  65.841  1.00  0.00    -0.564 NA 
HETATM   13  H   UNL     1     -10.412  17.520  64.870  1.00  0.00     0.000 HD 
HETATM   14  C   UNL     1     -10.016  19.014  66.411  1.00  0.00    -0.395 C  
HETATM   15  C   UNL     1      -8.559  19.503  66.427  1.00  0.00    -0.384 C  
HETATM   16  C   UNL     1     -10.638  19.148  67.807  1.00  0.00    -0.498 C  
HETATM   17  C   UNL     1     -10.787  19.957  65.457  1.00  0.00    -0.232 C  
ENDBRANCH   2  12
TORSDOF 3
ENDMDL
MODEL       44
REMARK 921   NORMALIZED FREE ENERGY PREDICTED BY IDOCK:   -4.85 KCAL/MOL
REMARK 922        TOTAL FREE ENERGY PREDICTED BY IDOCK:   -6.17 KCAL/MOL
REMARK 923 INTER-LIGAND FREE ENERGY PREDICTED BY IDOCK:   -5.89 KCAL/MOL
REMARK 924 INTRA-LIGAND FREE ENERGY PREDICTED BY IDOCK:   -0.27 KCAL/MOL
REMARK 927      BINDING AFFINITY PREDICTED BY RF-SCORE:    0.00 PKD
ROOT
HETATM    1  C   UNL     1     -10.867   9.676  67.575  1.00  0.00    -0.265 C  
HETATM    2  C   UNL     1     -10.908  11.202  67.724  1.00  0.00    -0.239 C  
ENDROOT
BRANCH   2   3
HETATM    3  C   UNL     1     -11.344  11.519  69.179  1.00  0.00    -0.286 C  
HETATM    4  O   UNL     1     -11.718  12.643  69.520  1.00  0.00    -0.291 OA 
BRANCH   3   5
HETATM    5  C   UNL     1     -11.367  10.443  70.226  1.00  0.00    -0.406 A  
HETATM    6  C   UNL     1     -12.620  10.068  70.741  1.00  0.00    -0.372 A  
HETATM    7  C   UNL     1     -12.710   9.122  71.760  1.00  0.00    -0.373 A  
HETATM    8  C   UNL     1     -11.559   8.543  72.286  1.00  0.00    -0.444 A  
HETATM    9 CL   UNL     1     -14.252   8.675  72.378  1.00  0.00    -0.481 Cl 
HETATM   10  C   UNL     1     -10.313   8.885  71.761  1.00  0.00    -0.426 A  
HETATM   11  C   UNL     1     -10.216   9.819  70.723  1.00  0.00    -0.251 A  
ENDBRANCH   3   5
ENDBRANCH   2   3
BRANCH   2  12
HETATM   12  N   UNL     1     -11.847  11.831  66.765  1.00  0.00    -0.568 NA 
HETATM   13  H   UNL     1     -12.843  11.612  66.795  1.00  0.00     0.000 HD 
HETATM   14  C   UNL     1     -11.318  12.781  65.763  1.00  0.00    -0.320 C  
HETATM   15  C   UNL     1     -10.696  12.050  64.563  1.00  0.00    -0.358 C  
HETATM   16  C   UNL     1     -10.323  13.795  66.342  1.00  0.00    -0.290 C  
HETATM   17  C   UNL     1     -12.532  13.570  65.217  1.00  0.00    -0.525 C  
ENDBRANCH   2  12
TORSDOF 3
ENDMDL
MODEL       45
REMARK 921   NORMALIZED FREE ENERGY PREDICTED BY IDOCK:   -4.83 KCAL/MOL
REMARK 922        TOTAL FREE ENERGY PREDICTED BY IDOCK:   -6.14 KCAL/MOL
REMARK 923 INTER-LIGAND FREE ENERGY PREDICTED BY IDOCK:   -5.66 KCAL/MOL
REMARK 924 INTRA-LIGAND FREE ENERGY PREDICTED BY IDOCK:   -0.48 KCAL/MOL
REMARK 927      BINDING AFFINITY PREDICTED BY RF-SCORE:    0.00 PKD
ROOT
HETATM    1  C   UNL     1     -12.095  11.905  69.499  1.00  0.00    -0.288 C  
HETATM    2  C   UNL     1     -11.832  13.415  69.549  1.00  0.00    -0.332 C  
ENDROOT
BRANCH   2   3
HETATM    3  C   UNL     1     -10.569  13.699  68.695  1.00  0.00    -0.248 C  
HETATM    4  O   UNL     1      -9.625  12.907  68.637  1.00  0.00    -0.146 OA 
BRANCH   3   5
HETATM    5  C   UNL     1     -10.467  14.946  67.865  1.00  0.00    -0.250 A  
HETATM    6  C   UNL     1     -10.243  16.158  68.541  1.00  0.00    -0.241 A  
HETATM    7  C   UNL     1     -10.202  17.361  67.839  1.00  0.00    -0.348 A  
HETATM    8  C   UNL     1     -10.389  17.378  66.460  1.00  0.00    -0.312 A  
HETATM    9 CL   UNL     1      -9.927  18.834  68.683  1.00  0.00    -0.427 Cl 
HETATM   10  C   UNL     1     -10.579  16.178  65.775  1.00  0.00    -0.347 A  
HETATM   11  C   UNL     1     -10.602  14.963  66.471  1.00  0.00    -0.306 A  
ENDBRANCH   3   5
ENDBRANCH   2   3
BRANCH   2  12
HETATM   12  N   UNL     1     -11.628  13.900  70.935  1.00  0.00    -0.476 NA 
HETATM   13  H   UNL     1     -10.708  13.844  71.373  1.00  0.00     0.000 HD 
HETATM   14  C   UNL     1     -12.778  14.466  71.673  1.00  0.00    -0.344 C  
HETATM   15  C   UNL     1     -13.666  13.362  72.268  1.00  0.00    -0.705 C  
HETATM   16  C   UNL     1     -13.623  15.440  70.842  1.00  0.00    -0.373 C  
HETATM   17  C   UNL     1     -12.191  15.251  72.870  1.00  0.00    -0.516 C  
ENDBRANCH   2  12
TORSDOF 3
ENDMDL
MODEL       46
REMARK 921   NORMALIZED FREE ENERGY PREDICTED BY IDOCK:   -4.82 KCAL/MOL
REMARK 922        TOTAL FREE ENERGY PREDICTED BY IDOCK:   -6.13 KCAL/MOL
REMARK 923 INTER-LIGAND FREE ENERGY PREDICTED BY IDOCK:   -5.68 KCAL/MOL
REMARK 924 INTRA-LIGAND FREE ENERGY PREDICTED BY IDOCK:   -0.45 KCAL/MOL
REMARK 927      BINDING AFFINITY PREDICTED BY RF-SCORE:    0.00 PKD
ROOT
HETATM    1  C   UNL     1     -10.653   9.680  66.779  1.00  0.00    -0.209 C  
HETATM    2  C   UNL     1     -10.466  11.200  66.835  1.00  0.00    -0.246 C  
ENDROOT
BRANCH   2   3
HETATM    3  C   UNL     1     -10.070  11.571  68.288  1.00  0.00    -0.199 C  
HETATM    4  O   UNL     1      -9.189  12.398  68.536  1.00  0.00    -0.170 OA 
BRANCH   3   5
HETATM    5  C   UNL     1     -10.783  10.961  69.459  1.00  0.00    -0.251 A  
HETATM    6  C   UNL     1     -10.111   9.954  70.173  1.00  0.00    -0.309 A  
HETATM    7  C   UNL     1     -10.739   9.299  71.231  1.00  0.00    -0.352 A  
HETATM    8  C   UNL     1     -12.043   9.631  71.589  1.00  0.00    -0.481 A  
HETATM    9 CL   UNL     1      -9.901   8.070  72.094  1.00  0.00    -0.262 Cl 
HETATM   10  C   UNL     1     -12.707  10.650  70.908  1.00  0.00    -0.498 A  
HETATM   11  C   UNL     1     -12.075  11.326  69.857  1.00  0.00    -0.414 A  
ENDBRANCH   3   5
ENDBRANCH   2   3
BRANCH   2  12
HETATM   12  N   UNL     1     -11.697  11.928  66.444  1.00  0.00    -0.541 NA 
HETATM   13  H   UNL     1     -12.556  11.821  66.984  1.00  0.00     0.000 HD 
HETATM   14  C   UNL     1     -11.661  12.812  65.259  1.00  0.00    -0.368 C  
HETATM   15  C   UNL     1     -11.805  12.014  63.954  1.00  0.00    -0.543 C  
HETATM   16  C   UNL     1     -10.419  13.710  65.199  1.00  0.00    -0.388 C  
HETATM   17  C   UNL     1     -12.904  13.729  65.354  1.00  0.00    -0.455 C  
ENDBRANCH   2  12
TORSDOF 3
ENDMDL
MODEL       47
REMARK 921   NORMALIZED FREE ENERGY PREDICTED BY IDOCK:   -4.81 KCAL/MOL
REMARK 922        TOTAL FREE ENERGY PREDICTED BY IDOCK:   -6.13 KCAL/MOL
REMARK 923 INTER-LIGAND FREE ENERGY PREDICTED BY IDOCK:   -5.78 KCAL/MOL
REMARK 924 INTRA-LIGAND FREE ENERGY PREDICTED BY IDOCK:   -0.35 KCAL/MOL
REMARK 927      BINDING AFFINITY PREDICTED BY RF-SCORE:    0.00 PKD
ROOT
HETATM    1  C   UNL     1      -8.747  15.770  68.028  1.00  0.00    -0.171 C  
HETATM    2  C   UNL     1      -9.991  16.656  68.162  1.00  0.00    -0.259 C  
ENDROOT
BRANCH   2   3
HETATM    3  C   UNL     1     -11.207  15.724  68.406  1.00  0.00    -0.362 C  
HETATM    4  O   UNL     1     -12.102  16.009  69.206  1.00  0.00    -0.290 OA 
BRANCH   3   5
HETATM    5  C   UNL     1     -11.361  14.444  67.636  1.00  0.00    -0.348 A  
HETATM    6  C   UNL     1     -11.607  14.546  66.255  1.00  0.00    -0.364 A  
HETATM    7  C   UNL     1     -11.824  13.401  65.491  1.00  0.00    -0.363 A  
HETATM    8  C   UNL     1     -11.806  12.143  66.086  1.00  0.00    -0.327 A  
HETATM    9 CL   UNL     1     -12.124  13.545  63.803  1.00  0.00    -0.519 Cl 
HETATM   10  C   UNL     1     -11.532  12.029  67.448  1.00  0.00    -0.406 A  
HETATM   11  C   UNL     1     -11.292  13.173  68.219  1.00  0.00    -0.333 A  
ENDBRANCH   3   5
ENDBRANCH   2   3
BRANCH   2  12
HETATM   12  N   UNL     1     -10.221  17.482  66.953  1.00  0.00    -0.319 NA 
HETATM   13  H   UNL     1     -10.638  17.072  66.116  1.00  0.00     0.000 HD 
HETATM   14  C   UNL     1      -9.837  18.910  66.977  1.00  0.00    -0.324 C  
HETATM   15  C   UNL     1      -8.332  19.095  66.729  1.00  0.00    -0.305 C  
HETATM   16  C   UNL     1     -10.259  19.639  68.259  1.00  0.00    -0.567 C  
HETATM   17  C   UNL     1     -10.566  19.584  65.789  1.00  0.00    -0.522 C  
ENDBRANCH   2  12
TORSDOF 3
ENDMDL
MODEL       48
REMARK 921   NORMALIZED FREE ENERGY PREDICTED BY IDOCK:   -4.80 KCAL/MOL
REMARK 922        TOTAL FREE ENERGY PREDICTED BY IDOCK:   -6.11 KCAL/MOL
REMARK 923 INTER-LIGAND FREE ENERGY PREDICTED BY IDOCK:   -5.61 KCAL/MOL
REMARK 924 INTRA-LIGAND FREE ENERGY PREDICTED BY IDOCK:   -0.51 KCAL/MOL
REMARK 927      BINDING AFFINITY PREDICTED BY RF-SCORE:    0.00 PKD
ROOT
HETATM    1  C   UNL     1      -8.790  11.622  68.411  1.00  0.00    -0.161 C  
HETATM    2  C   UNL     1      -9.939  10.622  68.581  1.00  0.00    -0.181 C  
ENDROOT
BRANCH   2   3
HETATM    3  C   UNL     1     -11.170  11.187  67.824  1.00  0.00    -0.294 C  
HETATM    4  O   UNL     1     -12.254  11.375  68.383  1.00  0.00    -0.571 OA 
BRANCH   3   5
HETATM    5  C   UNL     1     -11.071  11.571  66.376  1.00  0.00    -0.328 A  
HETATM    6  C   UNL     1     -11.567  12.834  66.007  1.00  0.00    -0.432 A  
HETATM    7  C   UNL     1     -11.566  13.229  64.671  1.00  0.00    -0.350 A  
HETATM    8  C   UNL     1     -11.080  12.375  63.684  1.00  0.00    -0.535 A  
HETATM    9 CL   UNL     1     -12.176  14.778  64.237  1.00  0.00    -0.489 Cl 
HETATM   10  C   UNL     1     -10.557  11.134  64.044  1.00  0.00    -0.436 A  
HETATM   11  C   UNL     1     -10.536  10.738  65.387  1.00  0.00    -0.272 A  
ENDBRANCH   3   5
ENDBRANCH   2   3
BRANCH   2  12
HETATM   12  N   UNL     1     -10.280  10.400  70.007  1.00  0.00    -0.440 NA 
HETATM   13  H   UNL     1     -10.716  11.140  70.557  1.00  0.00     0.000 HD 
HETATM   14  C   UNL     1      -9.976   9.089  70.621  1.00  0.00    -0.233 C  
HETATM   15  C   UNL     1      -8.499   8.986  71.032  1.00  0.00    -0.254 C  
HETATM   16  C   UNL     1     -10.369   7.893  69.744  1.00  0.00    -0.219 C  
HETATM   17  C   UNL     1     -10.803   9.010  71.927  1.00  0.00    -0.413 C  
ENDBRANCH   2  12
TORSDOF 3
ENDMDL
MODEL       49
REMARK 921   NORMALIZED FREE ENERGY PREDICTED BY IDOCK:   -4.79 KCAL/MOL
REMARK 922        TOTAL FREE ENERGY PREDICTED BY IDOCK:   -6.10 KCAL/MOL
REMARK 923 INTER-LIGAND FREE ENERGY PREDICTED BY IDOCK:   -6.21 KCAL/MOL
REMARK 924 INTRA-LIGAND FREE ENERGY PREDICTED BY IDOCK:    0.11 KCAL/MOL
REMARK 927      BINDING AFFINITY PREDICTED BY RF-SCORE:    0.00 PKD
ROOT
HETATM    1  C   UNL     1     -13.231  10.577  71.790  1.00  0.00    -0.522 C  
HETATM    2  C   UNL     1     -11.970  10.441  70.929  1.00  0.00    -0.377 C  
ENDROOT
BRANCH   2   3
HETATM    3  C   UNL     1     -12.103  11.433  69.743  1.00  0.00    -0.320 C  
HETATM    4  O   UNL     1     -12.284  11.049  68.585  1.00  0.00    -0.571 OA 
BRANCH   3   5
HETATM    5  C   UNL     1     -12.057  12.916  69.973  1.00  0.00    -0.357 A  
HETATM    6  C   UNL     1     -12.539  13.395  71.203  1.00  0.00    -0.430 A  
HETATM    7  C   UNL     1     -12.586  14.764  71.458  1.00  0.00    -0.333 A  
HETATM    8  C   UNL     1     -12.163  15.675  70.493  1.00  0.00    -0.437 A  
HETATM    9 CL   UNL     1     -13.178  15.333  72.969  1.00  0.00    -0.572 Cl 
HETATM   10  C   UNL     1     -11.653  15.209  69.282  1.00  0.00    -0.344 A  
HETATM   11  C   UNL     1     -11.584  13.833  69.027  1.00  0.00    -0.356 A  
ENDBRANCH   3   5
ENDBRANCH   2   3
BRANCH   2  12
HETATM   12  N   UNL     1     -11.788   9.061  70.418  1.00  0.00    -0.468 NA 
HETATM   13  H   UNL     1     -12.427   8.679  69.720  1.00  0.00     0.000 HD 
HETATM   14  C   UNL     1     -10.667   8.247  70.935  1.00  0.00    -0.218 C  
HETATM   15  C   UNL     1     -11.005   7.621  72.297  1.00  0.00    -0.328 C  
HETATM   16  C   UNL     1      -9.339   9.010  71.015  1.00  0.00    -0.339 C  
HETATM   17  C   UNL     1     -10.480   7.073  69.945  1.00  0.00    -0.234 C  
ENDBRANCH   2  12
TORSDOF 3
ENDMDL
MODEL       50
REMARK 921   NORMALIZED FREE ENERGY PREDICTED BY IDOCK:   -4.78 KCAL/MOL
REMARK 922        TOTAL FREE ENERGY PREDICTED BY IDOCK:   -6.08 KCAL/MOL
REMARK 923 INTER-LIGAND FREE ENERGY PREDICTED BY IDOCK:   -5.72 KCAL/MOL
REMARK 924 INTRA-LIGAND FREE ENERGY PREDICTED BY IDOCK:   -0.36 KCAL/MOL
REMARK 927      BINDING AFFINITY PREDICTED BY RF-SCORE:    0.00 PKD
ROOT
HETATM    1  C   UNL     1     -10.000  15.806  66.106  1.00  0.00    -0.334 C  
HETATM    2  C   UNL     1     -10.482  14.351  66.123  1.00  0.00    -0.291 C  
ENDROOT
BRANCH   2   3
HETATM    3  C   UNL     1      -9.921  13.686  67.407  1.00  0.00    -0.234 C  
HETATM    4  O   UNL     1      -8.723  13.424  67.540  1.00  0.00    -0.181 OA 
BRANCH   3   5
HETATM    5  C   UNL     1     -10.821  13.372  68.567  1.00  0.00    -0.285 A  
HETATM    6  C   UNL     1     -11.492  14.447  69.175  1.00  0.00    -0.328 A  
HETATM    7  C   UNL     1     -12.293  14.237  70.296  1.00  0.00    -0.354 A  
HETATM    8  C   UNL     1     -12.433  12.960  70.831  1.00  0.00    -0.383 A  
HETATM    9 CL   UNL     1     -13.105  15.565  71.027  1.00  0.00    -0.551 Cl 
HETATM   10  C   UNL     1     -11.798  11.881  70.216  1.00  0.00    -0.368 A  
HETATM   11  C   UNL     1     -11.008  12.082  69.078  1.00  0.00    -0.260 A  
ENDBRANCH   3   5
ENDBRANCH   2   3
BRANCH   2  12
HETATM   12  N   UNL     1     -10.034  13.600  64.926  1.00  0.00    -0.618 NA 
HETATM   13  H   UNL     1      -9.132  13.803  64.495  1.00  0.00     0.000 HD 
HETATM   14  C   UNL     1     -10.915  12.552  64.365  1.00  0.00    -0.340 C  
HETATM   15  C   UNL     1     -12.020  13.155  63.484  1.00  0.00    -0.580 C  
HETATM   16  C   UNL     1     -11.525  11.629  65.428  1.00  0.00    -0.170 C  
HETATM   17  C   UNL     1     -10.033  11.685  63.435  1.00  0.00    -0.447 C  
ENDBRANCH   2  12
TORSDOF 3
ENDMDL
MODEL       51
REMARK 921   NORMALIZED FREE ENERGY PREDICTED BY IDOCK:   -4.77 KCAL/MOL
REMARK 922        TOTAL FREE ENERGY PREDICTED BY IDOCK:   -6.08 KCAL/MOL
REMARK 923 INTER-LIGAND FREE ENERGY PREDICTED BY IDOCK:   -5.89 KCAL/MOL
REMARK 924 INTRA-LIGAND FREE ENERGY PREDICTED BY IDOCK:   -0.19 KCAL/MOL
REMARK 927      BINDING AFFINITY PREDICTED BY RF-SCORE:    0.00 PKD
ROOT
HETATM    1  C   UNL     1     -10.902  16.725  68.350  1.00  0.00    -0.355 C  
HETATM    2  C   UNL     1     -10.091  17.134  67.115  1.00  0.00    -0.295 C  
ENDROOT
BRANCH   2   3
HETATM    3  C   UNL     1      -9.379  15.864  66.580  1.00  0.00    -0.277 C  
HETATM    4  O   UNL     1      -8.163  15.832  66.373  1.00  0.00    -0.272 OA 
BRANCH   3   5
HETATM    5  C   UNL     1     -10.148  14.598  66.332  1.00  0.00    -0.288 A  
HETATM    6  C   UNL     1     -10.717  14.426  65.058  1.00  0.00    -0.440 A  
HETATM    7  C   UNL     1     -11.497  13.305  64.779  1.00  0.00    -0.327 A  
HETATM    8  C   UNL     1     -11.727  12.346  65.761  1.00  0.00    -0.470 A  
HETATM    9 CL   UNL     1     -12.185  13.111  63.215  1.00  0.00    -0.575 Cl 
HETATM   10  C   UNL     1     -11.141  12.491  67.018  1.00  0.00    -0.326 A  
HETATM   11  C   UNL     1     -10.340  13.604  67.299  1.00  0.00    -0.249 A  
ENDBRANCH   3   5
ENDBRANCH   2   3
BRANCH   2  12
HETATM   12  N   UNL     1      -9.091  18.183  67.426  1.00  0.00    -0.252 NA 
HETATM   13  H   UNL     1      -8.137  17.929  67.685  1.00  0.00     0.000 HD 
HETATM   14  C   UNL     1      -9.496  19.603  67.355  1.00  0.00    -0.329 C  
HETATM   15  C   UNL     1     -10.244  20.042  68.624  1.00  0.00    -0.443 C  
HETATM   16  C   UNL     1     -10.319  19.946  66.106  1.00  0.00    -0.604 C  
HETATM   17  C   UNL     1      -8.191  20.433  67.304  1.00  0.00    -0.390 C  
ENDBRANCH   2  12
TORSDOF 3
ENDMDL
MODEL       52
REMARK 921   NORMALIZED FREE ENERGY PREDICTED BY IDOCK:   -4.74 KCAL/MOL
REMARK 922        TOTAL FREE ENERGY PREDICTED BY IDOCK:   -6.04 KCAL/MOL
REMARK 923 INTER-LIGAND FREE ENERGY PREDICTED BY IDOCK:   -5.75 KCAL/MOL
REMARK 924 INTRA-LIGAND FREE ENERGY PREDICTED BY IDOCK:   -0.29 KCAL/MOL
REMARK 927      BINDING AFFINITY PREDICTED BY RF-SCORE:    0.00 PKD
ROOT
HETATM    1  C   UNL     1     -10.584  19.032  66.197  1.00  0.00    -0.495 C  
HETATM    2  C   UNL     1      -9.850  17.686  66.158  1.00  0.00    -0.242 C  
ENDROOT
BRANCH   2   3
HETATM    3  C   UNL     1     -10.731  16.694  65.354  1.00  0.00    -0.215 C  
HETATM    4  O   UNL     1     -11.322  17.029  64.325  1.00  0.00    -1.191 OA 
BRANCH   3   5
HETATM    5  C   UNL     1     -10.860  15.261  65.782  1.00  0.00    -0.363 A  
HETATM    6  C   UNL     1     -11.408  15.012  67.053  1.00  0.00    -0.319 A  
HETATM    7  C   UNL     1     -11.498  13.710  67.539  1.00  0.00    -0.329 A  
HETATM    8  C   UNL     1     -11.041  12.639  66.775  1.00  0.00    -0.318 A  
HETATM    9 CL   UNL     1     -12.171  13.424  69.096  1.00  0.00    -0.285 Cl 
HETATM   10  C   UNL     1     -10.526  12.872  65.501  1.00  0.00    -0.305 A  
HETATM   11  C   UNL     1     -10.451  14.176  64.997  1.00  0.00    -0.447 A  
ENDBRANCH   3   5
ENDBRANCH   2   3
BRANCH   2  12
HETATM   12  N   UNL     1      -9.595  17.151  67.517  1.00  0.00    -0.251 NA 
HETATM   13  H   UNL     1     -10.368  16.984  68.162  1.00  0.00     0.000 HD 
HETATM   14  C   UNL     1      -8.203  16.862  67.924  1.00  0.00    -0.197 C  
HETATM   15  C   UNL     1      -7.467  18.137  68.367  1.00  0.00    -0.287 C  
HETATM   16  C   UNL     1      -7.390  16.124  66.853  1.00  0.00    -0.255 C  
HETATM   17  C   UNL     1      -8.286  15.947  69.169  1.00  0.00    -0.253 C  
ENDBRANCH   2  12
TORSDOF 3
ENDMDL
MODEL       53
REMARK 921   NORMALIZED FREE ENERGY PREDICTED BY IDOCK:   -4.72 KCAL/MOL
REMARK 922        TOTAL FREE ENERGY PREDICTED BY IDOCK:   -6.01 KCAL/MOL
REMARK 923 INTER-LIGAND FREE ENERGY PREDICTED BY IDOCK:   -5.56 KCAL/MOL
REMARK 924 INTRA-LIGAND FREE ENERGY PREDICTED BY IDOCK:   -0.45 KCAL/MOL
REMARK 927      BINDING AFFINITY PREDICTED BY RF-SCORE:    0.00 PKD
ROOT
HETATM    1  C   UNL     1     -10.136   9.982  65.395  1.00  0.00    -0.317 C  
HETATM    2  C   UNL     1     -10.162  11.343  66.101  1.00  0.00    -0.239 C  
ENDROOT
BRANCH   2   3
HETATM    3  C   UNL     1      -9.911  11.094  67.611  1.00  0.00    -0.174 C  
HETATM    4  O   UNL     1      -9.032  10.327  68.012  1.00  0.00    -0.130 OA 
BRANCH   3   5
HETATM    5  C   UNL     1     -10.711  11.820  68.653  1.00  0.00    -0.252 A  
HETATM    6  C   UNL     1     -11.373  11.042  69.619  1.00  0.00    -0.363 A  
HETATM    7  C   UNL     1     -12.185  11.646  70.577  1.00  0.00    -0.361 A  
HETATM    8  C   UNL     1     -12.355  13.027  70.585  1.00  0.00    -0.391 A  
HETATM    9 CL   UNL     1     -12.988  10.678  71.751  1.00  0.00    -0.576 Cl 
HETATM   10  C   UNL     1     -11.678  13.811  69.652  1.00  0.00    -0.379 A  
HETATM   11  C   UNL     1     -10.844  13.213  68.699  1.00  0.00    -0.287 A  
ENDBRANCH   3   5
ENDBRANCH   2   3
BRANCH   2  12
HETATM   12  N   UNL     1     -11.454  12.045  65.911  1.00  0.00    -0.353 NA 
HETATM   13  H   UNL     1     -12.289  11.736  66.409  1.00  0.00     0.000 HD 
HETATM   14  C   UNL     1     -11.513  13.200  64.989  1.00  0.00    -0.308 C  
HETATM   15  C   UNL     1     -11.626  12.749  63.525  1.00  0.00    -0.565 C  
HETATM   16  C   UNL     1     -10.345  14.181  65.156  1.00  0.00    -0.429 C  
HETATM   17  C   UNL     1     -12.820  13.961  65.318  1.00  0.00    -0.437 C  
ENDBRANCH   2  12
TORSDOF 3
ENDMDL
MODEL       54
REMARK 921   NORMALIZED FREE ENERGY PREDICTED BY IDOCK:   -4.68 KCAL/MOL
REMARK 922        TOTAL FREE ENERGY PREDICTED BY IDOCK:   -5.97 KCAL/MOL
REMARK 923 INTER-LIGAND FREE ENERGY PREDICTED BY IDOCK:   -5.41 KCAL/MOL
REMARK 924 INTRA-LIGAND FREE ENERGY PREDICTED BY IDOCK:   -0.56 KCAL/MOL
REMARK 927      BINDING AFFINITY PREDICTED BY RF-SCORE:    0.00 PKD
ROOT
HETATM    1  C   UNL     1     -13.167  15.147  71.000  1.00  0.00    -0.510 C  
HETATM    2  C   UNL     1     -12.243  14.288  70.129  1.00  0.00    -0.345 C  
ENDROOT
BRANCH   2   3
HETATM    3  C   UNL     1     -12.407  12.814  70.583  1.00  0.00    -0.297 C  
HETATM    4  O   UNL     1     -13.053  12.505  71.588  1.00  0.00    -0.402 OA 
BRANCH   3   5
HETATM    5  C   UNL     1     -11.814  11.691  69.782  1.00  0.00    -0.428 A  
HETATM    6  C   UNL     1     -11.355  10.565  70.486  1.00  0.00    -0.400 A  
HETATM    7  C   UNL     1     -10.735   9.514  69.812  1.00  0.00    -0.239 A  
HETATM    8  C   UNL     1     -10.557   9.572  68.433  1.00  0.00    -0.261 A  
HETATM    9 CL   UNL     1     -10.181   8.144  70.690  1.00  0.00    -0.203 Cl 
HETATM   10  C   UNL     1     -11.037  10.670  67.720  1.00  0.00    -0.385 A  
HETATM   11  C   UNL     1     -11.679  11.720  68.388  1.00  0.00    -0.389 A  
ENDBRANCH   3   5
ENDBRANCH   2   3
BRANCH   2  12
HETATM   12  N   UNL     1     -10.823  14.699  70.246  1.00  0.00    -0.479 NA 
HETATM   13  H   UNL     1     -10.281  14.460  71.077  1.00  0.00     0.000 HD 
HETATM   14  C   UNL     1     -10.205  15.462  69.140  1.00  0.00    -0.239 C  
HETATM   15  C   UNL     1     -10.567  16.953  69.210  1.00  0.00    -0.325 C  
HETATM   16  C   UNL     1     -10.528  14.900  67.750  1.00  0.00    -0.255 C  
HETATM   17  C   UNL     1      -8.673  15.371  69.343  1.00  0.00    -0.252 C  
ENDBRANCH   2  12
TORSDOF 3
ENDMDL
MODEL       55
REMARK 921   NORMALIZED FREE ENERGY PREDICTED BY IDOCK:   -4.68 KCAL/MOL
REMARK 922        TOTAL FREE ENERGY PREDICTED BY IDOCK:   -5.97 KCAL/MOL
REMARK 923 INTER-LIGAND FREE ENERGY PREDICTED BY IDOCK:   -5.41 KCAL/MOL
REMARK 924 INTRA-LIGAND FREE ENERGY PREDICTED BY IDOCK:   -0.56 KCAL/MOL
REMARK 927      BINDING AFFINITY PREDICTED BY RF-SCORE:    0.00 PKD
ROOT
HETATM    1  C   UNL     1      -8.766  12.097  68.282  1.00  0.00    -0.178 C  
HETATM    2  C   UNL     1      -9.762  10.933  68.333  1.00  0.00    -0.176 C  
ENDROOT
BRANCH   2   3
HETATM    3  C   UNL     1     -10.971  11.310  67.437  1.00  0.00    -0.282 C  
HETATM    4  O   UNL     1     -12.097  11.504  67.902  1.00  0.00    -0.630 OA 
BRANCH   3   5
HETATM    5  C   UNL     1     -10.802  11.497  65.957  1.00  0.00    -0.330 A  
HETATM    6  C   UNL     1     -10.054  10.529  65.263  1.00  0.00    -0.369 A  
HETATM    7  C   UNL     1      -9.804  10.674  63.900  1.00  0.00    -0.338 A  
HETATM    8  C   UNL     1     -10.285  11.783  63.210  1.00  0.00    -0.452 A  
HETATM    9 CL   UNL     1      -8.888   9.480  63.068  1.00  0.00    -0.244 Cl 
HETATM   10  C   UNL     1     -11.054  12.733  63.881  1.00  0.00    -0.477 A  
HETATM   11  C   UNL     1     -11.327  12.584  65.247  1.00  0.00    -0.363 A  
ENDBRANCH   3   5
ENDBRANCH   2   3
BRANCH   2  12
HETATM   12  N   UNL     1     -10.223  10.652  69.714  1.00  0.00    -0.436 NA 
HETATM   13  H   UNL     1     -10.691  11.375  70.261  1.00  0.00     0.000 HD 
HETATM   14  C   UNL     1      -9.994   9.308  70.287  1.00  0.00    -0.219 C  
HETATM   15  C   UNL     1      -8.558   9.155  70.812  1.00  0.00    -0.265 C  
HETATM   16  C   UNL     1     -10.334   8.163  69.324  1.00  0.00    -0.222 C  
HETATM   17  C   UNL     1     -10.928   9.186  71.515  1.00  0.00    -0.434 C  
ENDBRANCH   2  12
TORSDOF 3
ENDMDL
MODEL       56
REMARK 921   NORMALIZED FREE ENERGY PREDICTED BY IDOCK:   -4.67 KCAL/MOL
REMARK 922        TOTAL FREE ENERGY PREDICTED BY IDOCK:   -5.95 KCAL/MOL
REMARK 923 INTER-LIGAND FREE ENERGY PREDICTED BY IDOCK:   -5.29 KCAL/MOL
REMARK 924 INTRA-LIGAND FREE ENERGY PREDICTED BY IDOCK:   -0.66 KCAL/MOL
REMARK 927      BINDING AFFINITY PREDICTED BY RF-SCORE:    0.00 PKD
ROOT
HETATM    1  C   UNL     1     -12.298  15.586  70.385  1.00  0.00    -0.451 C  
HETATM    2  C   UNL     1     -11.676  15.324  69.009  1.00  0.00    -0.347 C  
ENDROOT
BRANCH   2   3
HETATM    3  C   UNL     1     -11.813  13.807  68.714  1.00  0.00    -0.363 C  
HETATM    4  O   UNL     1     -12.045  12.984  69.603  1.00  0.00    -0.297 OA 
BRANCH   3   5
HETATM    5  C   UNL     1     -11.708  13.284  67.310  1.00  0.00    -0.424 A  
HETATM    6  C   UNL     1     -10.718  12.321  67.050  1.00  0.00    -0.263 A  
HETATM    7  C   UNL     1     -10.523  11.841  65.757  1.00  0.00    -0.260 A  
HETATM    8  C   UNL     1     -11.303  12.314  64.705  1.00  0.00    -0.375 A  
HETATM    9 CL   UNL     1      -9.306  10.662  65.457  1.00  0.00    -0.226 Cl 
HETATM   10  C   UNL     1     -12.309  13.245  64.957  1.00  0.00    -0.499 A  
HETATM   11  C   UNL     1     -12.524  13.717  66.258  1.00  0.00    -0.441 A  
ENDBRANCH   3   5
ENDBRANCH   2   3
BRANCH   2  12
HETATM   12  N   UNL     1     -10.249  15.724  68.955  1.00  0.00    -0.211 NA 
HETATM   13  H   UNL     1      -9.567  15.296  69.583  1.00  0.00     0.000 HD 
HETATM   14  C   UNL     1      -9.829  16.752  67.979  1.00  0.00    -0.265 C  
HETATM   15  C   UNL     1     -10.133  18.171  68.486  1.00  0.00    -0.413 C  
HETATM   16  C   UNL     1     -10.422  16.549  66.579  1.00  0.00    -0.270 C  
HETATM   17  C   UNL     1      -8.290  16.647  67.861  1.00  0.00    -0.187 C  
ENDBRANCH   2  12
TORSDOF 3
ENDMDL
MODEL       57
REMARK 921   NORMALIZED FREE ENERGY PREDICTED BY IDOCK:   -4.66 KCAL/MOL
REMARK 922        TOTAL FREE ENERGY PREDICTED BY IDOCK:   -5.95 KCAL/MOL
REMARK 923 INTER-LIGAND FREE ENERGY PREDICTED BY IDOCK:   -6.23 KCAL/MOL
REMARK 924 INTRA-LIGAND FREE ENERGY PREDICTED BY IDOCK:    0.28 KCAL/MOL
REMARK 927      BINDING AFFINITY PREDICTED BY RF-SCORE:    0.00 PKD
ROOT
HETATM    1  C   UNL     1     -10.538  18.726  65.913  1.00  0.00    -0.405 C  
HETATM    2  C   UNL     1     -10.065  17.268  65.921  1.00  0.00    -0.211 C  
ENDROOT
BRANCH   2   3
HETATM    3  C   UNL     1     -11.060  16.447  65.059  1.00  0.00    -0.208 C  
HETATM    4  O   UNL     1     -11.588  16.912  64.046  1.00  0.00    -1.123 OA 
BRANCH   3   5
HETATM    5  C   UNL     1     -11.386  15.024  65.409  1.00  0.00    -0.328 A  
HETATM    6  C   UNL     1     -11.795  14.178  64.363  1.00  0.00    -0.447 A  
HETATM    7  C   UNL     1     -12.175  12.864  64.626  1.00  0.00    -0.435 A  
HETATM    8  C   UNL     1     -12.160  12.374  65.929  1.00  0.00    -0.352 A  
HETATM    9 CL   UNL     1     -12.672  11.843  63.334  1.00  0.00    -0.655 Cl 
HETATM   10  C   UNL     1     -11.726  13.194  66.969  1.00  0.00    -0.431 A  
HETATM   11  C   UNL     1     -11.323  14.510  66.710  1.00  0.00    -0.358 A  
ENDBRANCH   3   5
ENDBRANCH   2   3
BRANCH   2  12
HETATM   12  N   UNL     1     -10.001  16.709  67.293  1.00  0.00    -0.264 NA 
HETATM   13  H   UNL     1     -10.855  16.452  67.787  1.00  0.00     0.000 HD 
HETATM   14  C   UNL     1      -8.680  16.531  67.933  1.00  0.00    -0.188 C  
HETATM   15  C   UNL     1      -8.155  17.849  68.524  1.00  0.00    -0.305 C  
HETATM   16  C   UNL     1      -7.628  15.906  67.009  1.00  0.00    -0.264 C  
HETATM   17  C   UNL     1      -8.894  15.568  69.126  1.00  0.00    -0.253 C  
ENDBRANCH   2  12
TORSDOF 3
ENDMDL
MODEL       58
REMARK 921   NORMALIZED FREE ENERGY PREDICTED BY IDOCK:   -4.66 KCAL/MOL
REMARK 922        TOTAL FREE ENERGY PREDICTED BY IDOCK:   -5.94 KCAL/MOL
REMARK 923 INTER-LIGAND FREE ENERGY PREDICTED BY IDOCK:   -5.81 KCAL/MOL
REMARK 924 INTRA-LIGAND FREE ENERGY PREDICTED BY IDOCK:   -0.13 KCAL/MOL
REMARK 927      BINDING AFFINITY PREDICTED BY RF-SCORE:    0.00 PKD
ROOT
HETATM    1  C   UNL     1      -8.739  14.788  69.014  1.00  0.00    -0.139 C  
HETATM    2  C   UNL     1     -10.099  14.320  68.482  1.00  0.00    -0.246 C  
ENDROOT
BRANCH   2   3
HETATM    3  C   UNL     1     -11.176  15.292  69.029  1.00  0.00    -0.280 C  
HETATM    4  O   UNL     1     -11.640  16.208  68.345  1.00  0.00    -0.355 OA 
BRANCH   3   5
HETATM    5  C   UNL     1     -11.732  15.124  70.414  1.00  0.00    -0.333 A  
HETATM    6  C   UNL     1     -12.379  13.912  70.709  1.00  0.00    -0.449 A  
HETATM    7  C   UNL     1     -12.974  13.713  71.953  1.00  0.00    -0.341 A  
HETATM    8  C   UNL     1     -12.941  14.717  72.917  1.00  0.00    -0.592 A  
HETATM    9 CL   UNL     1     -13.760  12.223  72.296  1.00  0.00    -0.380 Cl 
HETATM   10  C   UNL     1     -12.274  15.911  72.646  1.00  0.00    -0.603 A  
HETATM   11  C   UNL     1     -11.656  16.110  71.405  1.00  0.00    -0.495 A  
ENDBRANCH   3   5
ENDBRANCH   2   3
BRANCH   2  12
HETATM   12  N   UNL     1     -10.412  12.931  68.898  1.00  0.00    -0.419 NA 
HETATM   13  H   UNL     1     -10.339  12.654  69.877  1.00  0.00     0.000 HD 
HETATM   14  C   UNL     1     -10.831  11.953  67.870  1.00  0.00    -0.213 C  
HETATM   15  C   UNL     1      -9.625  11.378  67.112  1.00  0.00    -0.193 C  
HETATM   16  C   UNL     1     -11.867  12.505  66.883  1.00  0.00    -0.404 C  
HETATM   17  C   UNL     1     -11.482  10.770  68.626  1.00  0.00    -0.365 C  
ENDBRANCH   2  12
TORSDOF 3
ENDMDL
MODEL       59
REMARK 921   NORMALIZED FREE ENERGY PREDICTED BY IDOCK:   -4.66 KCAL/MOL
REMARK 922        TOTAL FREE ENERGY PREDICTED BY IDOCK:   -5.94 KCAL/MOL
REMARK 923 INTER-LIGAND FREE ENERGY PREDICTED BY IDOCK:   -5.39 KCAL/MOL
REMARK 924 INTRA-LIGAND FREE ENERGY PREDICTED BY IDOCK:   -0.55 KCAL/MOL
REMARK 927      BINDING AFFINITY PREDICTED BY RF-SCORE:    0.00 PKD
ROOT
HETATM    1  C   UNL     1     -13.383   9.898  72.251  1.00  0.00    -0.429 C  
HETATM    2  C   UNL     1     -12.124   9.790  71.383  1.00  0.00    -0.400 C  
ENDROOT
BRANCH   2   3
HETATM    3  C   UNL     1     -12.004  11.103  70.566  1.00  0.00    -0.380 C  
HETATM    4  O   UNL     1     -12.510  12.161  70.947  1.00  0.00    -0.368 OA 
BRANCH   3   5
HETATM    5  C   UNL     1     -11.219  11.142  69.286  1.00  0.00    -0.331 A  
HETATM    6  C   UNL     1     -11.848  11.699  68.159  1.00  0.00    -0.315 A  
HETATM    7  C   UNL     1     -11.203  11.710  66.924  1.00  0.00    -0.313 A  
HETATM    8  C   UNL     1      -9.930  11.162  66.790  1.00  0.00    -0.242 A  
HETATM    9 CL   UNL     1     -11.987  12.396  65.555  1.00  0.00    -0.477 Cl 
HETATM   10  C   UNL     1      -9.285  10.636  67.908  1.00  0.00    -0.150 A  
HETATM   11  C   UNL     1      -9.919  10.640  69.157  1.00  0.00    -0.228 A  
ENDBRANCH   3   5
ENDBRANCH   2   3
BRANCH   2  12
HETATM   12  N   UNL     1     -12.176   8.625  70.467  1.00  0.00    -0.472 NA 
HETATM   13  H   UNL     1     -12.715   8.670  69.601  1.00  0.00     0.000 HD 
HETATM   14  C   UNL     1     -11.435   7.397  70.826  1.00  0.00    -0.288 C  
HETATM   15  C   UNL     1     -12.214   6.543  71.839  1.00  0.00    -0.373 C  
HETATM   16  C   UNL     1     -10.013   7.664  71.337  1.00  0.00    -0.203 C  
HETATM   17  C   UNL     1     -11.323   6.554  69.533  1.00  0.00    -0.419 C  
ENDBRANCH   2  12
TORSDOF 3
ENDMDL
MODEL       60
REMARK 921   NORMALIZED FREE ENERGY PREDICTED BY IDOCK:   -4.65 KCAL/MOL
REMARK 922        TOTAL FREE ENERGY PREDICTED BY IDOCK:   -5.93 KCAL/MOL
REMARK 923 INTER-LIGAND FREE ENERGY PREDICTED BY IDOCK:   -5.36 KCAL/MOL
REMARK 924 INTRA-LIGAND FREE ENERGY PREDICTED BY IDOCK:   -0.57 KCAL/MOL
REMARK 927      BINDING AFFINITY PREDICTED BY RF-SCORE:    0.00 PKD
ROOT
HETATM    1  C   UNL     1     -10.641  11.568  66.785  1.00  0.00    -0.289 C  
HETATM    2  C   UNL     1     -10.545  11.497  68.313  1.00  0.00    -0.200 C  
ENDROOT
BRANCH   2   3
HETATM    3  C   UNL     1     -11.160  12.802  68.883  1.00  0.00    -0.262 C  
HETATM    4  O   UNL     1     -10.981  13.899  68.349  1.00  0.00    -0.237 OA 
BRANCH   3   5
HETATM    5  C   UNL     1     -12.042  12.769  70.098  1.00  0.00    -0.370 A  
HETATM    6  C   UNL     1     -12.446  14.003  70.638  1.00  0.00    -0.435 A  
HETATM    7  C   UNL     1     -13.211  14.047  71.801  1.00  0.00    -0.375 A  
HETATM    8  C   UNL     1     -13.580  12.870  72.447  1.00  0.00    -0.577 A  
HETATM    9 CL   UNL     1     -13.697  15.566  72.448  1.00  0.00    -0.610 Cl 
HETATM   10  C   UNL     1     -13.212  11.641  71.902  1.00  0.00    -0.475 A  
HETATM   11  C   UNL     1     -12.460  11.587  70.722  1.00  0.00    -0.444 A  
ENDBRANCH   3   5
ENDBRANCH   2   3
BRANCH   2  12
HETATM   12  N   UNL     1      -9.144  11.352  68.778  1.00  0.00    -0.342 NA 
HETATM   13  H   UNL     1      -8.501  12.142  68.739  1.00  0.00     0.000 HD 
HETATM   14  C   UNL     1      -8.694  10.043  69.299  1.00  0.00    -0.177 C  
HETATM   15  C   UNL     1      -8.341   9.072  68.161  1.00  0.00    -0.121 C  
HETATM   16  C   UNL     1      -9.691   9.390  70.266  1.00  0.00    -0.292 C  
HETATM   17  C   UNL     1      -7.382  10.305  70.078  1.00  0.00    -0.157 C  
ENDBRANCH   2  12
TORSDOF 3
ENDMDL
MODEL       61
REMARK 921   NORMALIZED FREE ENERGY PREDICTED BY IDOCK:   -4.65 KCAL/MOL
REMARK 922        TOTAL FREE ENERGY PREDICTED BY IDOCK:   -5.93 KCAL/MOL
REMARK 923 INTER-LIGAND FREE ENERGY PREDICTED BY IDOCK:   -5.41 KCAL/MOL
REMARK 924 INTRA-LIGAND FREE ENERGY PREDICTED BY IDOCK:   -0.52 KCAL/MOL
REMARK 927      BINDING AFFINITY PREDICTED BY RF-SCORE:    0.00 PKD
ROOT
HETATM    1  C   UNL     1     -10.744   6.570  68.001  1.00  0.00    -0.351 C  
HETATM    2  C   UNL     1     -10.241   7.937  68.479  1.00  0.00    -0.205 C  
ENDROOT
BRANCH   2   3
HETATM    3  C   UNL     1     -10.327   7.953  70.027  1.00  0.00    -0.221 C  
HETATM    4  O   UNL     1      -9.348   7.721  70.741  1.00  0.00    -0.160 OA 
BRANCH   3   5
HETATM    5  C   UNL     1     -11.612   8.299  70.722  1.00  0.00    -0.250 A  
HETATM    6  C   UNL     1     -11.842   9.654  71.021  1.00  0.00    -0.428 A  
HETATM    7  C   UNL     1     -12.984  10.039  71.721  1.00  0.00    -0.458 A  
HETATM    8  C   UNL     1     -13.907   9.085  72.140  1.00  0.00    -0.526 A  
HETATM    9 CL   UNL     1     -13.248  11.701  72.077  1.00  0.00    -0.562 Cl 
HETATM   10  C   UNL     1     -13.705   7.743  71.821  1.00  0.00    -0.410 A  
HETATM   11  C   UNL     1     -12.571   7.351  71.100  1.00  0.00    -0.330 A  
ENDBRANCH   3   5
ENDBRANCH   2   3
BRANCH   2  12
HETATM   12  N   UNL     1     -11.038   9.053  67.915  1.00  0.00    -0.480 NA 
HETATM   13  H   UNL     1     -12.054   9.067  68.016  1.00  0.00     0.000 HD 
HETATM   14  C   UNL     1     -10.340  10.145  67.204  1.00  0.00    -0.238 C  
HETATM   15  C   UNL     1     -10.001   9.753  65.758  1.00  0.00    -0.349 C  
HETATM   16  C   UNL     1      -9.083  10.645  67.928  1.00  0.00    -0.145 C  
HETATM   17  C   UNL     1     -11.337  11.326  67.118  1.00  0.00    -0.295 C  
ENDBRANCH   2  12
TORSDOF 3
ENDMDL
MODEL       62
REMARK 921   NORMALIZED FREE ENERGY PREDICTED BY IDOCK:   -4.64 KCAL/MOL
REMARK 922        TOTAL FREE ENERGY PREDICTED BY IDOCK:   -5.92 KCAL/MOL
REMARK 923 INTER-LIGAND FREE ENERGY PREDICTED BY IDOCK:   -5.43 KCAL/MOL
REMARK 924 INTRA-LIGAND FREE ENERGY PREDICTED BY IDOCK:   -0.49 KCAL/MOL
REMARK 927      BINDING AFFINITY PREDICTED BY RF-SCORE:    0.00 PKD
ROOT
HETATM    1  C   UNL     1      -9.083  12.727  67.425  1.00  0.00    -0.192 C  
HETATM    2  C   UNL     1     -10.474  12.215  67.034  1.00  0.00    -0.220 C  
ENDROOT
BRANCH   2   3
HETATM    3  C   UNL     1     -10.594  10.752  67.535  1.00  0.00    -0.237 C  
HETATM    4  O   UNL     1     -10.228   9.793  66.851  1.00  0.00    -0.223 OA 
BRANCH   3   5
HETATM    5  C   UNL     1     -11.127  10.450  68.906  1.00  0.00    -0.296 A  
HETATM    6  C   UNL     1     -11.783  11.489  69.589  1.00  0.00    -0.419 A  
HETATM    7  C   UNL     1     -12.245  11.298  70.889  1.00  0.00    -0.356 A  
HETATM    8  C   UNL     1     -12.057  10.077  71.531  1.00  0.00    -0.475 A  
HETATM    9 CL   UNL     1     -13.046  12.581  71.709  1.00  0.00    -0.496 Cl 
HETATM   10  C   UNL     1     -11.437   9.030  70.851  1.00  0.00    -0.347 A  
HETATM   11  C   UNL     1     -10.987   9.208  69.537  1.00  0.00    -0.138 A  
ENDBRANCH   3   5
ENDBRANCH   2   3
BRANCH   2  12
HETATM   12  N   UNL     1     -10.698  12.269  65.570  1.00  0.00    -0.270 NA 
HETATM   13  H   UNL     1     -10.287  11.565  64.956  1.00  0.00     0.000 HD 
HETATM   14  C   UNL     1     -11.526  13.360  65.011  1.00  0.00    -0.311 C  
HETATM   15  C   UNL     1     -10.721  14.661  64.863  1.00  0.00    -0.447 C  
HETATM   16  C   UNL     1     -12.816  13.619  65.799  1.00  0.00    -0.390 C  
HETATM   17  C   UNL     1     -11.925  12.925  63.581  1.00  0.00    -0.613 C  
ENDBRANCH   2  12
TORSDOF 3
ENDMDL
MODEL       63
REMARK 921   NORMALIZED FREE ENERGY PREDICTED BY IDOCK:   -4.64 KCAL/MOL
REMARK 922        TOTAL FREE ENERGY PREDICTED BY IDOCK:   -5.92 KCAL/MOL
REMARK 923 INTER-LIGAND FREE ENERGY PREDICTED BY IDOCK:   -5.34 KCAL/MOL
REMARK 924 INTRA-LIGAND FREE ENERGY PREDICTED BY IDOCK:   -0.58 KCAL/MOL
REMARK 927      BINDING AFFINITY PREDICTED BY RF-SCORE:    0.00 PKD
ROOT
HETATM    1  C   UNL     1      -8.526  11.663  67.563  1.00  0.00    -0.150 C  
HETATM    2  C   UNL     1     -10.023  11.798  67.258  1.00  0.00    -0.192 C  
ENDROOT
BRANCH   2   3
HETATM    3  C   UNL     1     -10.747  10.596  67.920  1.00  0.00    -0.248 C  
HETATM    4  O   UNL     1     -10.756   9.474  67.408  1.00  0.00    -0.279 OA 
BRANCH   3   5
HETATM    5  C   UNL     1     -11.433  10.748  69.246  1.00  0.00    -0.369 A  
HETATM    6  C   UNL     1     -11.432   9.637  70.107  1.00  0.00    -0.238 A  
HETATM    7  C   UNL     1     -12.105   9.687  71.326  1.00  0.00    -0.371 A  
HETATM    8  C   UNL     1     -12.794  10.836  71.703  1.00  0.00    -0.562 A  
HETATM    9 CL   UNL     1     -12.091   8.318  72.367  1.00  0.00    -0.434 Cl 
HETATM   10  C   UNL     1     -12.775  11.955  70.871  1.00  0.00    -0.301 A  
HETATM   11  C   UNL     1     -12.084  11.919  69.654  1.00  0.00    -0.304 A  
ENDBRANCH   3   5
ENDBRANCH   2   3
BRANCH   2  12
HETATM   12  N   UNL     1     -10.297  11.814  65.801  1.00  0.00    -0.244 NA 
HETATM   13  H   UNL     1      -9.928  11.080  65.196  1.00  0.00     0.000 HD 
HETATM   14  C   UNL     1     -11.112  12.912  65.237  1.00  0.00    -0.284 C  
HETATM   15  C   UNL     1     -10.276  14.183  65.021  1.00  0.00    -0.399 C  
HETATM   16  C   UNL     1     -12.365  13.233  66.061  1.00  0.00    -0.449 C  
HETATM   17  C   UNL     1     -11.573  12.445  63.836  1.00  0.00    -0.518 C  
ENDBRANCH   2  12
TORSDOF 3
ENDMDL
MODEL       64
REMARK 921   NORMALIZED FREE ENERGY PREDICTED BY IDOCK:   -4.62 KCAL/MOL
REMARK 922        TOTAL FREE ENERGY PREDICTED BY IDOCK:   -5.90 KCAL/MOL
REMARK 923 INTER-LIGAND FREE ENERGY PREDICTED BY IDOCK:   -5.39 KCAL/MOL
REMARK 924 INTRA-LIGAND FREE ENERGY PREDICTED BY IDOCK:   -0.51 KCAL/MOL
REMARK 927      BINDING AFFINITY PREDICTED BY RF-SCORE:    0.00 PKD
ROOT
HETATM    1  C   UNL     1     -10.595   7.795  67.081  1.00  0.00    -0.401 C  
HETATM    2  C   UNL     1     -10.553   9.020  68.002  1.00  0.00    -0.186 C  
ENDROOT
BRANCH   2   3
HETATM    3  C   UNL     1      -9.735  10.122  67.279  1.00  0.00    -0.167 C  
HETATM    4  O   UNL     1      -8.590  10.422  67.625  1.00  0.00    -0.118 OA 
BRANCH   3   5
HETATM    5  C   UNL     1     -10.301  10.843  66.090  1.00  0.00    -0.305 A  
HETATM    6  C   UNL     1     -11.180  11.911  66.338  1.00  0.00    -0.387 A  
HETATM    7  C   UNL     1     -11.791  12.583  65.282  1.00  0.00    -0.413 A  
HETATM    8  C   UNL     1     -11.544  12.200  63.967  1.00  0.00    -0.504 A  
HETATM    9 CL   UNL     1     -12.864  13.889  65.605  1.00  0.00    -0.538 Cl 
HETATM   10  C   UNL     1     -10.649  11.162  63.708  1.00  0.00    -0.422 A  
HETATM   11  C   UNL     1     -10.015  10.496  64.764  1.00  0.00    -0.412 A  
ENDBRANCH   3   5
ENDBRANCH   2   3
BRANCH   2  12
HETATM   12  N   UNL     1      -9.937   8.710  69.314  1.00  0.00    -0.189 NA 
HETATM   13  H   UNL     1      -8.936   8.523  69.386  1.00  0.00     0.000 HD 
HETATM   14  C   UNL     1     -10.794   8.675  70.519  1.00  0.00    -0.228 C  
HETATM   15  C   UNL     1     -11.547   7.341  70.639  1.00  0.00    -0.322 C  
HETATM   16  C   UNL     1     -11.776   9.851  70.608  1.00  0.00    -0.404 C  
HETATM   17  C   UNL     1      -9.846   8.757  71.739  1.00  0.00    -0.391 C  
ENDBRANCH   2  12
TORSDOF 3
ENDMDL
MODEL       65
REMARK 921   NORMALIZED FREE ENERGY PREDICTED BY IDOCK:   -4.61 KCAL/MOL
REMARK 922        TOTAL FREE ENERGY PREDICTED BY IDOCK:   -5.88 KCAL/MOL
REMARK 923 INTER-LIGAND FREE ENERGY PREDICTED BY IDOCK:   -5.51 KCAL/MOL
REMARK 924 INTRA-LIGAND FREE ENERGY PREDICTED BY IDOCK:   -0.38 KCAL/MOL
REMARK 927      BINDING AFFINITY PREDICTED BY RF-SCORE:    0.00 PKD
ROOT
HETATM    1  C   UNL     1     -11.174  11.872  68.364  1.00  0.00    -0.312 C  
HETATM    2  C   UNL     1     -11.059  12.753  67.115  1.00  0.00    -0.277 C  
ENDROOT
BRANCH   2   3
HETATM    3  C   UNL     1     -11.434  14.201  67.527  1.00  0.00    -0.340 C  
HETATM    4  O   UNL     1     -12.514  14.473  68.057  1.00  0.00    -0.064 OA 
BRANCH   3   5
HETATM    5  C   UNL     1     -10.464  15.331  67.332  1.00  0.00    -0.270 A  
HETATM    6  C   UNL     1     -10.871  16.611  67.746  1.00  0.00    -0.292 A  
HETATM    7  C   UNL     1     -10.048  17.716  67.537  1.00  0.00    -0.337 A  
HETATM    8  C   UNL     1      -8.815  17.566  66.909  1.00  0.00    -0.267 A  
HETATM    9 CL   UNL     1     -10.562  19.275  68.051  1.00  0.00    -0.468 Cl 
HETATM   10  C   UNL     1      -8.388  16.296  66.522  1.00  0.00    -0.343 A  
HETATM   11  C   UNL     1      -9.201  15.178  66.748  1.00  0.00    -0.277 A  
ENDBRANCH   3   5
ENDBRANCH   2   3
BRANCH   2  12
HETATM   12  N   UNL     1     -11.947  12.291  66.021  1.00  0.00    -0.609 NA 
HETATM   13  H   UNL     1     -12.912  12.023  66.216  1.00  0.00     0.000 HD 
HETATM   14  C   UNL     1     -11.413  12.225  64.644  1.00  0.00    -0.336 C  
HETATM   15  C   UNL     1     -10.590  10.947  64.418  1.00  0.00    -0.343 C  
HETATM   16  C   UNL     1     -10.599  13.461  64.239  1.00  0.00    -0.358 C  
HETATM   17  C   UNL     1     -12.636  12.134  63.700  1.00  0.00    -0.616 C  
ENDBRANCH   2  12
TORSDOF 3
ENDMDL
MODEL       66
REMARK 921   NORMALIZED FREE ENERGY PREDICTED BY IDOCK:   -4.59 KCAL/MOL
REMARK 922        TOTAL FREE ENERGY PREDICTED BY IDOCK:   -5.87 KCAL/MOL
REMARK 923 INTER-LIGAND FREE ENERGY PREDICTED BY IDOCK:   -5.79 KCAL/MOL
REMARK 924 INTRA-LIGAND FREE ENERGY PREDICTED BY IDOCK:   -0.08 KCAL/MOL
REMARK 927      BINDING AFFINITY PREDICTED BY RF-SCORE:    0.00 PKD
ROOT
HETATM    1  C   UNL     1     -11.849   6.696  70.615  1.00  0.00    -0.443 C  
HETATM    2  C   UNL     1     -11.971   7.427  71.957  1.00  0.00    -0.297 C  
ENDROOT
BRANCH   2   3
HETATM    3  C   UNL     1     -13.060   8.520  71.799  1.00  0.00    -0.355 C  
HETATM    4  O   UNL     1     -14.245   8.309  72.071  1.00  0.00    -0.406 OA 
BRANCH   3   5
HETATM    5  C   UNL     1     -12.699   9.904  71.344  1.00  0.00    -0.503 A  
HETATM    6  C   UNL     1     -13.255  10.984  72.053  1.00  0.00    -0.447 A  
HETATM    7  C   UNL     1     -13.014  12.294  71.646  1.00  0.00    -0.311 A  
HETATM    8  C   UNL     1     -12.225  12.550  70.528  1.00  0.00    -0.382 A  
HETATM    9 CL   UNL     1     -13.702  13.603  72.525  1.00  0.00    -0.674 Cl 
HETATM   10  C   UNL     1     -11.643  11.488  69.837  1.00  0.00    -0.387 A  
HETATM   11  C   UNL     1     -11.864  10.169  70.252  1.00  0.00    -0.342 A  
ENDBRANCH   3   5
ENDBRANCH   2   3
BRANCH   2  12
HETATM   12  N   UNL     1     -10.690   8.045  72.375  1.00  0.00    -0.294 NA 
HETATM   13  H   UNL     1     -10.502   9.029  72.182  1.00  0.00     0.000 HD 
HETATM   14  C   UNL     1      -9.687   7.213  73.074  1.00  0.00    -0.179 C  
HETATM   15  C   UNL     1      -8.872   6.361  72.088  1.00  0.00    -0.136 C  
HETATM   16  C   UNL     1     -10.283   6.327  74.176  1.00  0.00    -0.338 C  
HETATM   17  C   UNL     1      -8.689   8.190  73.741  1.00  0.00    -0.292 C  
ENDBRANCH   2  12
TORSDOF 3
ENDMDL
MODEL       67
REMARK 921   NORMALIZED FREE ENERGY PREDICTED BY IDOCK:   -4.58 KCAL/MOL
REMARK 922        TOTAL FREE ENERGY PREDICTED BY IDOCK:   -5.85 KCAL/MOL
REMARK 923 INTER-LIGAND FREE ENERGY PREDICTED BY IDOCK:   -5.52 KCAL/MOL
REMARK 924 INTRA-LIGAND FREE ENERGY PREDICTED BY IDOCK:   -0.33 KCAL/MOL
REMARK 927      BINDING AFFINITY PREDICTED BY RF-SCORE:    0.00 PKD
ROOT
HETATM    1  C   UNL     1      -9.499   9.777  70.010  1.00  0.00    -0.278 C  
HETATM    2  C   UNL     1     -10.739   9.227  69.295  1.00  0.00    -0.196 C  
ENDROOT
BRANCH   2   3
HETATM    3  C   UNL     1     -11.327  10.373  68.429  1.00  0.00    -0.227 C  
HETATM    4  O   UNL     1     -12.166  11.162  68.869  1.00  0.00    -0.522 OA 
BRANCH   3   5
HETATM    5  C   UNL     1     -10.857  10.590  67.020  1.00  0.00    -0.288 A  
HETATM    6  C   UNL     1     -11.358  11.712  66.336  1.00  0.00    -0.312 A  
HETATM    7  C   UNL     1     -11.015  11.939  65.005  1.00  0.00    -0.312 A  
HETATM    8  C   UNL     1     -10.176  11.054  64.334  1.00  0.00    -0.409 A  
HETATM    9 CL   UNL     1     -11.637  13.317  64.185  1.00  0.00    -0.429 Cl 
HETATM   10  C   UNL     1      -9.648   9.956  65.012  1.00  0.00    -0.364 A  
HETATM   11  C   UNL     1      -9.972   9.732  66.355  1.00  0.00    -0.314 A  
ENDBRANCH   3   5
ENDBRANCH   2   3
BRANCH   2  12
HETATM   12  N   UNL     1     -11.762   8.737  70.249  1.00  0.00    -0.465 NA 
HETATM   13  H   UNL     1     -12.509   9.353  70.570  1.00  0.00     0.000 HD 
HETATM   14  C   UNL     1     -11.684   7.339  70.728  1.00  0.00    -0.299 C  
HETATM   15  C   UNL     1     -10.658   7.187  71.861  1.00  0.00    -0.238 C  
HETATM   16  C   UNL     1     -11.401   6.323  69.614  1.00  0.00    -0.492 C  
HETATM   17  C   UNL     1     -13.066   7.003  71.336  1.00  0.00    -0.375 C  
ENDBRANCH   2  12
TORSDOF 3
ENDMDL
MODEL       68
REMARK 921   NORMALIZED FREE ENERGY PREDICTED BY IDOCK:   -4.58 KCAL/MOL
REMARK 922        TOTAL FREE ENERGY PREDICTED BY IDOCK:   -5.85 KCAL/MOL
REMARK 923 INTER-LIGAND FREE ENERGY PREDICTED BY IDOCK:   -5.12 KCAL/MOL
REMARK 924 INTRA-LIGAND FREE ENERGY PREDICTED BY IDOCK:   -0.73 KCAL/MOL
REMARK 927      BINDING AFFINITY PREDICTED BY RF-SCORE:    0.00 PKD
ROOT
HETATM    1  C   UNL     1      -9.573  10.757  62.731  1.00  0.00    -0.337 C  
HETATM    2  C   UNL     1     -10.078  10.866  64.174  1.00  0.00    -0.355 C  
ENDROOT
BRANCH   2   3
HETATM    3  C   UNL     1     -11.291  11.833  64.174  1.00  0.00    -0.352 C  
HETATM    4  O   UNL     1     -12.194  11.752  63.338  1.00  0.00    -0.511 OA 
BRANCH   3   5
HETATM    5  C   UNL     1     -11.433  12.888  65.233  1.00  0.00    -0.348 A  
HETATM    6  C   UNL     1     -10.989  14.185  64.917  1.00  0.00    -0.405 A  
HETATM    7  C   UNL     1     -11.032  15.197  65.873  1.00  0.00    -0.339 A  
HETATM    8  C   UNL     1     -11.507  14.936  67.155  1.00  0.00    -0.344 A  
HETATM    9 CL   UNL     1     -10.485  16.778  65.470  1.00  0.00    -0.317 Cl 
HETATM   10  C   UNL     1     -11.979  13.662  67.469  1.00  0.00    -0.393 A  
HETATM   11  C   UNL     1     -11.959  12.644  66.507  1.00  0.00    -0.401 A  
ENDBRANCH   3   5
ENDBRANCH   2   3
BRANCH   2  12
HETATM   12  N   UNL     1      -9.031  11.368  65.096  1.00  0.00    -0.393 NA 
HETATM   13  H   UNL     1      -8.629  12.296  64.967  1.00  0.00     0.000 HD 
HETATM   14  C   UNL     1      -8.576  10.500  66.204  1.00  0.00    -0.150 C  
HETATM   15  C   UNL     1      -7.554   9.458  65.724  1.00  0.00    -0.099 C  
HETATM   16  C   UNL     1      -9.723   9.813  66.957  1.00  0.00    -0.233 C  
HETATM   17  C   UNL     1      -7.834  11.416  67.207  1.00  0.00    -0.149 C  
ENDBRANCH   2  12
TORSDOF 3
ENDMDL
MODEL       69
REMARK 921   NORMALIZED FREE ENERGY PREDICTED BY IDOCK:   -4.56 KCAL/MOL
REMARK 922        TOTAL FREE ENERGY PREDICTED BY IDOCK:   -5.83 KCAL/MOL
REMARK 923 INTER-LIGAND FREE ENERGY PREDICTED BY IDOCK:   -5.66 KCAL/MOL
REMARK 924 INTRA-LIGAND FREE ENERGY PREDICTED BY IDOCK:   -0.17 KCAL/MOL
REMARK 927      BINDING AFFINITY PREDICTED BY RF-SCORE:    0.00 PKD
ROOT
HETATM    1  C   UNL     1     -12.177  14.148  69.600  1.00  0.00    -0.376 C  
HETATM    2  C   UNL     1     -11.691  13.979  68.156  1.00  0.00    -0.352 C  
ENDROOT
BRANCH   2   3
HETATM    3  C   UNL     1     -11.750  12.467  67.814  1.00  0.00    -0.359 C  
HETATM    4  O   UNL     1     -12.101  12.059  66.704  1.00  0.00    -0.615 OA 
BRANCH   3   5
HETATM    5  C   UNL     1     -11.336  11.435  68.823  1.00  0.00    -0.334 A  
HETATM    6  C   UNL     1     -12.284  11.058  69.790  1.00  0.00    -0.388 A  
HETATM    7  C   UNL     1     -11.946  10.153  70.794  1.00  0.00    -0.348 A  
HETATM    8  C   UNL     1     -10.664   9.616  70.856  1.00  0.00    -0.402 A  
HETATM    9 CL   UNL     1     -13.119   9.703  71.969  1.00  0.00    -0.514 Cl 
HETATM   10  C   UNL     1      -9.725   9.958  69.883  1.00  0.00    -0.274 A  
HETATM   11  C   UNL     1     -10.064  10.851  68.858  1.00  0.00    -0.211 A  
ENDBRANCH   3   5
ENDBRANCH   2   3
BRANCH   2  12
HETATM   12  N   UNL     1     -10.310  14.487  67.969  1.00  0.00    -0.227 NA 
HETATM   13  H   UNL     1      -9.534  14.080  68.491  1.00  0.00     0.000 HD 
HETATM   14  C   UNL     1     -10.076  15.592  67.015  1.00  0.00    -0.253 C  
HETATM   15  C   UNL     1     -10.417  16.956  67.635  1.00  0.00    -0.332 C  
HETATM   16  C   UNL     1     -10.810  15.417  65.679  1.00  0.00    -0.363 C  
HETATM   17  C   UNL     1      -8.557  15.609  66.722  1.00  0.00    -0.309 C  
ENDBRANCH   2  12
TORSDOF 3
ENDMDL
MODEL       70
REMARK 921   NORMALIZED FREE ENERGY PREDICTED BY IDOCK:   -4.56 KCAL/MOL
REMARK 922        TOTAL FREE ENERGY PREDICTED BY IDOCK:   -5.83 KCAL/MOL
REMARK 923 INTER-LIGAND FREE ENERGY PREDICTED BY IDOCK:   -5.12 KCAL/MOL
REMARK 924 INTRA-LIGAND FREE ENERGY PREDICTED BY IDOCK:   -0.70 KCAL/MOL
REMARK 927      BINDING AFFINITY PREDICTED BY RF-SCORE:    0.00 PKD
ROOT
HETATM    1  C   UNL     1     -12.629  14.211  65.210  1.00  0.00    -0.460 C  
HETATM    2  C   UNL     1     -11.388  14.569  66.036  1.00  0.00    -0.341 C  
ENDROOT
BRANCH   2   3
HETATM    3  C   UNL     1     -10.817  15.897  65.474  1.00  0.00    -0.315 C  
HETATM    4  O   UNL     1     -11.074  16.291  64.334  1.00  0.00    -0.735 OA 
BRANCH   3   5
HETATM    5  C   UNL     1      -9.953  16.783  66.325  1.00  0.00    -0.336 A  
HETATM    6  C   UNL     1      -8.568  16.759  66.086  1.00  0.00    -0.299 A  
HETATM    7  C   UNL     1      -7.701  17.507  66.880  1.00  0.00    -0.217 A  
HETATM    8  C   UNL     1      -8.197  18.283  67.924  1.00  0.00    -0.261 A  
HETATM    9 CL   UNL     1      -6.009  17.465  66.573  1.00  0.00    -0.231 Cl 
HETATM   10  C   UNL     1      -9.572  18.340  68.149  1.00  0.00    -0.316 A  
HETATM   11  C   UNL     1     -10.450  17.606  67.342  1.00  0.00    -0.356 A  
ENDBRANCH   3   5
ENDBRANCH   2   3
BRANCH   2  12
HETATM   12  N   UNL     1     -10.354  13.508  65.978  1.00  0.00    -0.296 NA 
HETATM   13  H   UNL     1      -9.853  13.320  65.110  1.00  0.00     0.000 HD 
HETATM   14  C   UNL     1     -10.061  12.725  67.198  1.00  0.00    -0.234 C  
HETATM   15  C   UNL     1     -11.093  11.607  67.415  1.00  0.00    -0.337 C  
HETATM   16  C   UNL     1      -9.933  13.584  68.464  1.00  0.00    -0.202 C  
HETATM   17  C   UNL     1      -8.700  12.028  66.960  1.00  0.00    -0.188 C  
ENDBRANCH   2  12
TORSDOF 3
ENDMDL
MODEL       71
REMARK 921   NORMALIZED FREE ENERGY PREDICTED BY IDOCK:   -4.56 KCAL/MOL
REMARK 922        TOTAL FREE ENERGY PREDICTED BY IDOCK:   -5.83 KCAL/MOL
REMARK 923 INTER-LIGAND FREE ENERGY PREDICTED BY IDOCK:   -5.29 KCAL/MOL
REMARK 924 INTRA-LIGAND FREE ENERGY PREDICTED BY IDOCK:   -0.53 KCAL/MOL
REMARK 927      BINDING AFFINITY PREDICTED BY RF-SCORE:    0.00 PKD
ROOT
HETATM    1  C   UNL     1     -10.180   8.229  67.002  1.00  0.00    -0.380 C  
HETATM    2  C   UNL     1     -10.511   9.237  68.108  1.00  0.00    -0.215 C  
ENDROOT
BRANCH   2   3
HETATM    3  C   UNL     1      -9.957  10.617  67.667  1.00  0.00    -0.169 C  
HETATM    4  O   UNL     1      -8.754  10.888  67.720  1.00  0.00    -0.126 OA 
BRANCH   3   5
HETATM    5  C   UNL     1     -10.871  11.671  67.112  1.00  0.00    -0.306 A  
HETATM    6  C   UNL     1     -11.136  11.637  65.732  1.00  0.00    -0.313 A  
HETATM    7  C   UNL     1     -11.923  12.622  65.140  1.00  0.00    -0.428 A  
HETATM    8  C   UNL     1     -12.452  13.656  65.907  1.00  0.00    -0.502 A  
HETATM    9 CL   UNL     1     -12.237  12.564  63.450  1.00  0.00    -0.632 Cl 
HETATM   10  C   UNL     1     -12.223  13.681  67.282  1.00  0.00    -0.317 A  
HETATM   11  C   UNL     1     -11.449  12.683  67.888  1.00  0.00    -0.360 A  
ENDBRANCH   3   5
ENDBRANCH   2   3
BRANCH   2  12
HETATM   12  N   UNL     1      -9.923   8.848  69.412  1.00  0.00    -0.187 NA 
HETATM   13  H   UNL     1      -8.943   8.571  69.477  1.00  0.00     0.000 HD 
HETATM   14  C   UNL     1     -10.778   8.866  70.618  1.00  0.00    -0.234 C  
HETATM   15  C   UNL     1     -11.647   7.601  70.714  1.00  0.00    -0.284 C  
HETATM   16  C   UNL     1     -11.652  10.121  70.734  1.00  0.00    -0.445 C  
HETATM   17  C   UNL     1      -9.825   8.839  71.837  1.00  0.00    -0.395 C  
ENDBRANCH   2  12
TORSDOF 3
ENDMDL
MODEL       72
REMARK 921   NORMALIZED FREE ENERGY PREDICTED BY IDOCK:   -4.55 KCAL/MOL
REMARK 922        TOTAL FREE ENERGY PREDICTED BY IDOCK:   -5.81 KCAL/MOL
REMARK 923 INTER-LIGAND FREE ENERGY PREDICTED BY IDOCK:   -5.50 KCAL/MOL
REMARK 924 INTRA-LIGAND FREE ENERGY PREDICTED BY IDOCK:   -0.32 KCAL/MOL
REMARK 927      BINDING AFFINITY PREDICTED BY RF-SCORE:    0.00 PKD
ROOT
HETATM    1  C   UNL     1      -8.924  12.114  68.239  1.00  0.00    -0.186 C  
HETATM    2  C   UNL     1     -10.363  11.627  68.450  1.00  0.00    -0.204 C  
ENDROOT
BRANCH   2   3
HETATM    3  C   UNL     1     -11.305  12.841  68.239  1.00  0.00    -0.296 C  
HETATM    4  O   UNL     1     -11.847  13.422  69.182  1.00  0.00    -0.301 OA 
BRANCH   3   5
HETATM    5  C   UNL     1     -11.559  13.386  66.863  1.00  0.00    -0.404 A  
HETATM    6  C   UNL     1     -11.971  12.477  65.873  1.00  0.00    -0.472 A  
HETATM    7  C   UNL     1     -12.163  12.902  64.560  1.00  0.00    -0.426 A  
HETATM    8  C   UNL     1     -11.943  14.231  64.211  1.00  0.00    -0.449 A  
HETATM    9 CL   UNL     1     -12.667  11.775  63.362  1.00  0.00    -0.588 Cl 
HETATM   10  C   UNL     1     -11.566  15.148  65.192  1.00  0.00    -0.245 A  
HETATM   11  C   UNL     1     -11.390  14.732  66.517  1.00  0.00    -0.344 A  
ENDBRANCH   3   5
ENDBRANCH   2   3
BRANCH   2  12
HETATM   12  N   UNL     1     -10.566  11.058  69.804  1.00  0.00    -0.454 NA 
HETATM   13  H   UNL     1     -10.969  11.625  70.550  1.00  0.00     0.000 HD 
HETATM   14  C   UNL     1     -10.175   9.654  70.057  1.00  0.00    -0.255 C  
HETATM   15  C   UNL     1      -8.665   9.524  70.308  1.00  0.00    -0.270 C  
HETATM   16  C   UNL     1     -10.616   8.684  68.953  1.00  0.00    -0.166 C  
HETATM   17  C   UNL     1     -10.878   9.229  71.369  1.00  0.00    -0.434 C  
ENDBRANCH   2  12
TORSDOF 3
ENDMDL
MODEL       73
REMARK 921   NORMALIZED FREE ENERGY PREDICTED BY IDOCK:   -4.54 KCAL/MOL
REMARK 922        TOTAL FREE ENERGY PREDICTED BY IDOCK:   -5.80 KCAL/MOL
REMARK 923 INTER-LIGAND FREE ENERGY PREDICTED BY IDOCK:   -5.27 KCAL/MOL
REMARK 924 INTRA-LIGAND FREE ENERGY PREDICTED BY IDOCK:   -0.54 KCAL/MOL
REMARK 927      BINDING AFFINITY PREDICTED BY RF-SCORE:    0.00 PKD
ROOT
HETATM    1  C   UNL     1     -10.660   9.156  68.149  1.00  0.00    -0.235 C  
HETATM    2  C   UNL     1     -10.925   9.715  69.552  1.00  0.00    -0.208 C  
ENDROOT
BRANCH   2   3
HETATM    3  C   UNL     1     -11.040  11.257  69.429  1.00  0.00    -0.257 C  
HETATM    4  O   UNL     1     -10.419  11.894  68.575  1.00  0.00    -0.213 OA 
BRANCH   3   5
HETATM    5  C   UNL     1     -11.957  12.033  70.329  1.00  0.00    -0.398 A  
HETATM    6  C   UNL     1     -11.966  13.433  70.192  1.00  0.00    -0.396 A  
HETATM    7  C   UNL     1     -12.744  14.220  71.038  1.00  0.00    -0.359 A  
HETATM    8  C   UNL     1     -13.518  13.630  72.034  1.00  0.00    -0.573 A  
HETATM    9 CL   UNL     1     -12.743  15.930  70.856  1.00  0.00    -0.396 Cl 
HETATM   10  C   UNL     1     -13.541  12.242  72.157  1.00  0.00    -0.348 A  
HETATM   11  C   UNL     1     -12.777  11.443  71.298  1.00  0.00    -0.498 A  
ENDBRANCH   3   5
ENDBRANCH   2   3
BRANCH   2  12
HETATM   12  N   UNL     1      -9.847   9.361  70.507  1.00  0.00    -0.253 NA 
HETATM   13  H   UNL     1      -8.966   9.876  70.506  1.00  0.00     0.000 HD 
HETATM   14  C   UNL     1     -10.068   8.252  71.459  1.00  0.00    -0.208 C  
HETATM   15  C   UNL     1      -9.833   6.884  70.799  1.00  0.00    -0.190 C  
HETATM   16  C   UNL     1     -11.445   8.286  72.135  1.00  0.00    -0.427 C  
HETATM   17  C   UNL     1      -8.995   8.398  72.565  1.00  0.00    -0.308 C  
ENDBRANCH   2  12
TORSDOF 3
ENDMDL
MODEL       74
REMARK 921   NORMALIZED FREE ENERGY PREDICTED BY IDOCK:   -4.53 KCAL/MOL
REMARK 922        TOTAL FREE ENERGY PREDICTED BY IDOCK:   -5.79 KCAL/MOL
REMARK 923 INTER-LIGAND FREE ENERGY PREDICTED BY IDOCK:   -5.41 KCAL/MOL
REMARK 924 INTRA-LIGAND FREE ENERGY PREDICTED BY IDOCK:   -0.39 KCAL/MOL
REMARK 927      BINDING AFFINITY PREDICTED BY RF-SCORE:    0.00 PKD
ROOT
HETATM    1  C   UNL     1     -11.622  10.821  69.575  1.00  0.00    -0.375 C  
HETATM    2  C   UNL     1     -10.515  10.163  68.744  1.00  0.00    -0.204 C  
ENDROOT
BRANCH   2   3
HETATM    3  C   UNL     1      -9.952  11.238  67.778  1.00  0.00    -0.176 C  
HETATM    4  O   UNL     1      -8.745  11.349  67.552  1.00  0.00    -0.135 OA 
BRANCH   3   5
HETATM    5  C   UNL     1     -10.873  12.165  67.039  1.00  0.00    -0.289 A  
HETATM    6  C   UNL     1     -11.349  11.742  65.786  1.00  0.00    -0.309 A  
HETATM    7  C   UNL     1     -12.156  12.579  65.017  1.00  0.00    -0.446 A  
HETATM    8  C   UNL     1     -12.495  13.848  65.480  1.00  0.00    -0.541 A  
HETATM    9 CL   UNL     1     -12.728  12.045  63.486  1.00  0.00    -0.648 Cl 
HETATM   10  C   UNL     1     -12.055  14.265  66.735  1.00  0.00    -0.446 A  
HETATM   11  C   UNL     1     -11.261  13.421  67.522  1.00  0.00    -0.309 A  
ENDBRANCH   3   5
ENDBRANCH   2   3
BRANCH   2  12
HETATM   12  N   UNL     1     -11.013   8.999  67.973  1.00  0.00    -0.492 NA 
HETATM   13  H   UNL     1     -11.790   9.104  67.320  1.00  0.00     0.000 HD 
HETATM   14  C   UNL     1     -10.367   7.682  68.164  1.00  0.00    -0.204 C  
HETATM   15  C   UNL     1     -10.886   6.976  69.426  1.00  0.00    -0.253 C  
HETATM   16  C   UNL     1      -8.834   7.747  68.182  1.00  0.00    -0.125 C  
HETATM   17  C   UNL     1     -10.789   6.803  66.963  1.00  0.00    -0.453 C  
ENDBRANCH   2  12
TORSDOF 3
ENDMDL
MODEL       75
REMARK 921   NORMALIZED FREE ENERGY PREDICTED BY IDOCK:   -4.51 KCAL/MOL
REMARK 922        TOTAL FREE ENERGY PREDICTED BY IDOCK:   -5.77 KCAL/MOL
REMARK 923 INTER-LIGAND FREE ENERGY PREDICTED BY IDOCK:   -5.67 KCAL/MOL
REMARK 924 INTRA-LIGAND FREE ENERGY PREDICTED BY IDOCK:   -0.09 KCAL/MOL
REMARK 927      BINDING AFFINITY PREDICTED BY RF-SCORE:    0.00 PKD
ROOT
HETATM    1  C   UNL     1      -9.231  10.233  69.399  1.00  0.00    -0.206 C  
HETATM    2  C   UNL     1     -10.523   9.618  68.848  1.00  0.00    -0.215 C  
ENDROOT
BRANCH   2   3
HETATM    3  C   UNL     1     -11.540  10.771  68.643  1.00  0.00    -0.272 C  
HETATM    4  O   UNL     1     -11.934  11.106  67.523  1.00  0.00    -0.580 OA 
BRANCH   3   5
HETATM    5  C   UNL     1     -12.123  11.500  69.818  1.00  0.00    -0.374 A  
HETATM    6  C   UNL     1     -11.983  12.899  69.846  1.00  0.00    -0.377 A  
HETATM    7  C   UNL     1     -12.443  13.633  70.937  1.00  0.00    -0.371 A  
HETATM    8  C   UNL     1     -13.041  12.989  72.017  1.00  0.00    -0.481 A  
HETATM    9 CL   UNL     1     -12.263  15.344  70.954  1.00  0.00    -0.381 Cl 
HETATM   10  C   UNL     1     -13.213  11.606  71.986  1.00  0.00    -0.443 A  
HETATM   11  C   UNL     1     -12.772  10.864  70.883  1.00  0.00    -0.464 A  
ENDBRANCH   3   5
ENDBRANCH   2   3
BRANCH   2  12
HETATM   12  N   UNL     1     -11.090   8.599  69.763  1.00  0.00    -0.425 NA 
HETATM   13  H   UNL     1     -11.713   8.874  70.523  1.00  0.00     0.000 HD 
HETATM   14  C   UNL     1     -10.739   7.177  69.558  1.00  0.00    -0.239 C  
HETATM   15  C   UNL     1      -9.363   6.842  70.155  1.00  0.00    -0.159 C  
HETATM   16  C   UNL     1     -10.805   6.732  68.091  1.00  0.00    -0.296 C  
HETATM   17  C   UNL     1     -11.776   6.346  70.351  1.00  0.00    -0.389 C  
ENDBRANCH   2  12
TORSDOF 3
ENDMDL
MODEL       76
REMARK 921   NORMALIZED FREE ENERGY PREDICTED BY IDOCK:   -4.50 KCAL/MOL
REMARK 922        TOTAL FREE ENERGY PREDICTED BY IDOCK:   -5.76 KCAL/MOL
REMARK 923 INTER-LIGAND FREE ENERGY PREDICTED BY IDOCK:   -5.31 KCAL/MOL
REMARK 924 INTRA-LIGAND FREE ENERGY PREDICTED BY IDOCK:   -0.45 KCAL/MOL
REMARK 927      BINDING AFFINITY PREDICTED BY RF-SCORE:    0.00 PKD
ROOT
HETATM    1  C   UNL     1      -8.835  13.030  67.511  1.00  0.00    -0.195 C  
HETATM    2  C   UNL     1      -9.885  11.959  67.830  1.00  0.00    -0.184 C  
ENDROOT
BRANCH   2   3
HETATM    3  C   UNL     1     -11.276  12.644  67.810  1.00  0.00    -0.274 C  
HETATM    4  O   UNL     1     -12.114  12.401  66.938  1.00  0.00    -0.564 OA 
BRANCH   3   5
HETATM    5  C   UNL     1     -11.673  13.609  68.890  1.00  0.00    -0.377 A  
HETATM    6  C   UNL     1     -12.332  13.084  70.016  1.00  0.00    -0.222 A  
HETATM    7  C   UNL     1     -12.786  13.929  71.026  1.00  0.00    -0.357 A  
HETATM    8  C   UNL     1     -12.598  15.305  70.929  1.00  0.00    -0.471 A  
HETATM    9 CL   UNL     1     -13.590  13.270  72.396  1.00  0.00    -0.691 Cl 
HETATM   10  C   UNL     1     -11.918  15.833  69.833  1.00  0.00    -0.346 A  
HETATM   11  C   UNL     1     -11.441  14.988  68.824  1.00  0.00    -0.337 A  
ENDBRANCH   3   5
ENDBRANCH   2   3
BRANCH   2  12
HETATM   12  N   UNL     1      -9.651  11.324  69.149  1.00  0.00    -0.411 NA 
HETATM   13  H   UNL     1      -9.596  11.892  69.995  1.00  0.00     0.000 HD 
HETATM   14  C   UNL     1      -9.498   9.855  69.221  1.00  0.00    -0.209 C  
HETATM   15  C   UNL     1      -8.076   9.416  68.838  1.00  0.00    -0.103 C  
HETATM   16  C   UNL     1     -10.534   9.088  68.389  1.00  0.00    -0.234 C  
HETATM   17  C   UNL     1      -9.697   9.462  70.704  1.00  0.00    -0.336 C  
ENDBRANCH   2  12
TORSDOF 3
ENDMDL
MODEL       77
REMARK 921   NORMALIZED FREE ENERGY PREDICTED BY IDOCK:   -4.48 KCAL/MOL
REMARK 922        TOTAL FREE ENERGY PREDICTED BY IDOCK:   -5.73 KCAL/MOL
REMARK 923 INTER-LIGAND FREE ENERGY PREDICTED BY IDOCK:   -5.33 KCAL/MOL
REMARK 924 INTRA-LIGAND FREE ENERGY PREDICTED BY IDOCK:   -0.41 KCAL/MOL
REMARK 927      BINDING AFFINITY PREDICTED BY RF-SCORE:    0.00 PKD
ROOT
HETATM    1  C   UNL     1      -9.166  10.123  69.630  1.00  0.00    -0.206 C  
HETATM    2  C   UNL     1     -10.504   9.571  70.136  1.00  0.00    -0.255 C  
ENDROOT
BRANCH   2   3
HETATM    3  C   UNL     1     -11.515  10.747  70.168  1.00  0.00    -0.331 C  
HETATM    4  O   UNL     1     -12.284  10.925  71.116  1.00  0.00    -0.352 OA 
BRANCH   3   5
HETATM    5  C   UNL     1     -11.563  11.750  69.052  1.00  0.00    -0.372 A  
HETATM    6  C   UNL     1     -11.584  13.110  69.404  1.00  0.00    -0.360 A  
HETATM    7  C   UNL     1     -11.693  14.093  68.422  1.00  0.00    -0.345 A  
HETATM    8  C   UNL     1     -11.789  13.738  67.080  1.00  0.00    -0.445 A  
HETATM    9 CL   UNL     1     -11.717  15.753  68.872  1.00  0.00    -0.407 Cl 
HETATM   10  C   UNL     1     -11.737  12.393  66.716  1.00  0.00    -0.430 A  
HETATM   11  C   UNL     1     -11.607  11.401  67.696  1.00  0.00    -0.315 A  
ENDBRANCH   3   5
ENDBRANCH   2   3
BRANCH   2  12
HETATM   12  N   UNL     1     -10.385   8.968  71.485  1.00  0.00    -0.319 NA 
HETATM   13  H   UNL     1     -10.115   9.539  72.286  1.00  0.00     0.000 HD 
HETATM   14  C   UNL     1     -10.662   7.525  71.652  1.00  0.00    -0.214 C  
HETATM   15  C   UNL     1      -9.456   6.666  71.241  1.00  0.00    -0.166 C  
HETATM   16  C   UNL     1     -11.925   7.053  70.921  1.00  0.00    -0.409 C  
HETATM   17  C   UNL     1     -10.875   7.288  73.166  1.00  0.00    -0.401 C  
ENDBRANCH   2  12
TORSDOF 3
ENDMDL
MODEL       78
REMARK 921   NORMALIZED FREE ENERGY PREDICTED BY IDOCK:   -4.48 KCAL/MOL
REMARK 922        TOTAL FREE ENERGY PREDICTED BY IDOCK:   -5.73 KCAL/MOL
REMARK 923 INTER-LIGAND FREE ENERGY PREDICTED BY IDOCK:   -5.21 KCAL/MOL
REMARK 924 INTRA-LIGAND FREE ENERGY PREDICTED BY IDOCK:   -0.52 KCAL/MOL
REMARK 927      BINDING AFFINITY PREDICTED BY RF-SCORE:    0.00 PKD
ROOT
HETATM    1  C   UNL     1      -8.002  14.087  67.371  1.00  0.00    -0.191 C  
HETATM    2  C   UNL     1      -9.182  14.929  67.871  1.00  0.00    -0.183 C  
ENDROOT
BRANCH   2   3
HETATM    3  C   UNL     1      -8.603  16.230  68.486  1.00  0.00    -0.211 C  
HETATM    4  O   UNL     1      -7.768  16.211  69.393  1.00  0.00    -0.236 OA 
BRANCH   3   5
HETATM    5  C   UNL     1      -9.013  17.576  67.962  1.00  0.00    -0.258 A  
HETATM    6  C   UNL     1      -8.003  18.540  67.794  1.00  0.00    -0.263 A  
HETATM    7  C   UNL     1      -8.321  19.829  67.373  1.00  0.00    -0.309 A  
HETATM    8  C   UNL     1      -9.644  20.181  67.120  1.00  0.00    -0.554 A  
HETATM    9 CL   UNL     1      -7.073  20.996  67.172  1.00  0.00    -0.413 Cl 
HETATM   10  C   UNL     1     -10.649  19.224  67.253  1.00  0.00    -0.590 A  
HETATM   11  C   UNL     1     -10.335  17.921  67.656  1.00  0.00    -0.387 A  
ENDBRANCH   3   5
ENDBRANCH   2   3
BRANCH   2  12
HETATM   12  N   UNL     1      -9.994  14.208  68.882  1.00  0.00    -0.374 NA 
HETATM   13  H   UNL     1      -9.686  14.159  69.853  1.00  0.00     0.000 HD 
HETATM   14  C   UNL     1     -11.255  13.561  68.459  1.00  0.00    -0.278 C  
HETATM   15  C   UNL     1     -10.997  12.198  67.799  1.00  0.00    -0.278 C  
HETATM   16  C   UNL     1     -12.121  14.440  67.547  1.00  0.00    -0.327 C  
HETATM   17  C   UNL     1     -12.061  13.280  69.750  1.00  0.00    -0.355 C  
ENDBRANCH   2  12
TORSDOF 3
ENDMDL
MODEL       79
REMARK 921   NORMALIZED FREE ENERGY PREDICTED BY IDOCK:   -4.47 KCAL/MOL
REMARK 922        TOTAL FREE ENERGY PREDICTED BY IDOCK:   -5.72 KCAL/MOL
REMARK 923 INTER-LIGAND FREE ENERGY PREDICTED BY IDOCK:   -5.06 KCAL/MOL
REMARK 924 INTRA-LIGAND FREE ENERGY PREDICTED BY IDOCK:   -0.65 KCAL/MOL
REMARK 927      BINDING AFFINITY PREDICTED BY RF-SCORE:    0.00 PKD
ROOT
HETATM    1  C   UNL     1     -12.281  11.061  70.607  1.00  0.00    -0.481 C  
HETATM    2  C   UNL     1     -12.429  12.459  69.995  1.00  0.00     0.033 C  
ENDROOT
BRANCH   2   3
HETATM    3  C   UNL     1     -11.757  12.432  68.597  1.00  0.00    -0.326 C  
HETATM    4  O   UNL     1     -11.955  11.519  67.792  1.00  0.00    -0.623 OA 
BRANCH   3   5
HETATM    5  C   UNL     1     -10.864  13.554  68.152  1.00  0.00    -0.271 A  
HETATM    6  C   UNL     1      -9.491  13.279  68.031  1.00  0.00    -0.219 A  
HETATM    7  C   UNL     1      -8.597  14.290  67.684  1.00  0.00    -0.183 A  
HETATM    8  C   UNL     1      -9.052  15.586  67.460  1.00  0.00    -0.198 A  
HETATM    9 CL   UNL     1      -6.920  13.935  67.541  1.00  0.00    -0.188 Cl 
HETATM   10  C   UNL     1     -10.415  15.863  67.546  1.00  0.00    -0.298 A  
HETATM   11  C   UNL     1     -11.323  14.848  67.874  1.00  0.00    -0.340 A  
ENDBRANCH   3   5
ENDBRANCH   2   3
BRANCH   2  12
HETATM   12  N   UNL     1     -11.803  13.506  70.838  1.00  0.00    -0.471 NA 
HETATM   13  H   UNL     1     -10.791  13.537  70.960  1.00  0.00     0.000 HD 
HETATM   14  C   UNL     1     -12.670  14.506  71.499  1.00  0.00    -0.339 C  
HETATM   15  C   UNL     1     -13.297  13.947  72.786  1.00  0.00    -0.567 C  
HETATM   16  C   UNL     1     -13.757  15.080  70.582  1.00  0.00    -0.048 C  
HETATM   17  C   UNL     1     -11.749  15.673  71.929  1.00  0.00    -0.544 C  
ENDBRANCH   2  12
TORSDOF 3
ENDMDL
MODEL       80
REMARK 921   NORMALIZED FREE ENERGY PREDICTED BY IDOCK:   -4.46 KCAL/MOL
REMARK 922        TOTAL FREE ENERGY PREDICTED BY IDOCK:   -5.71 KCAL/MOL
REMARK 923 INTER-LIGAND FREE ENERGY PREDICTED BY IDOCK:   -5.28 KCAL/MOL
REMARK 924 INTRA-LIGAND FREE ENERGY PREDICTED BY IDOCK:   -0.43 KCAL/MOL
REMARK 927      BINDING AFFINITY PREDICTED BY RF-SCORE:    0.00 PKD
ROOT
HETATM    1  C   UNL     1      -9.185  10.584  68.866  1.00  0.00    -0.188 C  
HETATM    2  C   UNL     1     -10.474   9.914  68.375  1.00  0.00    -0.208 C  
ENDROOT
BRANCH   2   3
HETATM    3  C   UNL     1     -11.615  10.959  68.481  1.00  0.00    -0.290 C  
HETATM    4  O   UNL     1     -12.568  10.814  69.250  1.00  0.00    -0.324 OA 
BRANCH   3   5
HETATM    5  C   UNL     1     -11.578  12.222  67.670  1.00  0.00    -0.421 A  
HETATM    6  C   UNL     1     -11.470  13.437  68.369  1.00  0.00    -0.351 A  
HETATM    7  C   UNL     1     -11.495  14.650  67.684  1.00  0.00    -0.346 A  
HETATM    8  C   UNL     1     -11.632  14.674  66.299  1.00  0.00    -0.344 A  
HETATM    9 CL   UNL     1     -11.362  16.127  68.556  1.00  0.00    -0.373 Cl 
HETATM   10  C   UNL     1     -11.707  13.474  65.593  1.00  0.00    -0.363 A  
HETATM   11  C   UNL     1     -11.663  12.251  66.272  1.00  0.00    -0.431 A  
ENDBRANCH   3   5
ENDBRANCH   2   3
BRANCH   2  12
HETATM   12  N   UNL     1     -10.814   8.710  69.170  1.00  0.00    -0.416 NA 
HETATM   13  H   UNL     1     -11.301   8.799  70.063  1.00  0.00     0.000 HD 
HETATM   14  C   UNL     1     -10.437   7.377  68.651  1.00  0.00    -0.189 C  
HETATM   15  C   UNL     1      -8.961   7.057  68.933  1.00  0.00    -0.129 C  
HETATM   16  C   UNL     1     -10.748   7.189  67.160  1.00  0.00    -0.422 C  
HETATM   17  C   UNL     1     -11.272   6.342  69.442  1.00  0.00    -0.489 C  
ENDBRANCH   2  12
TORSDOF 3
ENDMDL
MODEL       81
REMARK 921   NORMALIZED FREE ENERGY PREDICTED BY IDOCK:   -4.42 KCAL/MOL
REMARK 922        TOTAL FREE ENERGY PREDICTED BY IDOCK:   -5.66 KCAL/MOL
REMARK 923 INTER-LIGAND FREE ENERGY PREDICTED BY IDOCK:   -5.57 KCAL/MOL
REMARK 924 INTRA-LIGAND FREE ENERGY PREDICTED BY IDOCK:   -0.10 KCAL/MOL
REMARK 927      BINDING AFFINITY PREDICTED BY RF-SCORE:    0.00 PKD
ROOT
HETATM    1  C   UNL     1     -12.527  11.303  70.623  1.00  0.00    -0.439 C  
HETATM    2  C   UNL     1     -11.441  10.423  69.995  1.00  0.00    -0.308 C  
ENDROOT
BRANCH   2   3
HETATM    3  C   UNL     1     -11.275  10.864  68.517  1.00  0.00    -0.274 C  
HETATM    4  O   UNL     1     -11.129  10.050  67.602  1.00  0.00    -0.285 OA 
BRANCH   3   5
HETATM    5  C   UNL     1     -11.331  12.316  68.138  1.00  0.00    -0.349 A  
HETATM    6  C   UNL     1     -11.903  12.639  66.895  1.00  0.00    -0.425 A  
HETATM    7  C   UNL     1     -11.930  13.959  66.452  1.00  0.00    -0.438 A  
HETATM    8  C   UNL     1     -11.384  14.975  67.232  1.00  0.00    -0.337 A  
HETATM    9 CL   UNL     1     -12.634  14.336  64.928  1.00  0.00    -0.398 Cl 
HETATM   10  C   UNL     1     -10.843  14.670  68.480  1.00  0.00    -0.256 A  
HETATM   11  C   UNL     1     -10.831  13.348  68.941  1.00  0.00    -0.253 A  
ENDBRANCH   3   5
ENDBRANCH   2   3
BRANCH   2  12
HETATM   12  N   UNL     1     -11.784   8.982  70.058  1.00  0.00    -0.451 NA 
HETATM   13  H   UNL     1     -12.403   8.566  69.361  1.00  0.00     0.000 HD 
HETATM   14  C   UNL     1     -11.217   8.156  71.146  1.00  0.00    -0.257 C  
HETATM   15  C   UNL     1     -12.004   8.327  72.454  1.00  0.00    -0.447 C  
HETATM   16  C   UNL     1      -9.722   8.402  71.388  1.00  0.00    -0.260 C  
HETATM   17  C   UNL     1     -11.390   6.680  70.717  1.00  0.00    -0.389 C  
ENDBRANCH   2  12
TORSDOF 3
ENDMDL
MODEL       82
REMARK 921   NORMALIZED FREE ENERGY PREDICTED BY IDOCK:   -4.40 KCAL/MOL
REMARK 922        TOTAL FREE ENERGY PREDICTED BY IDOCK:   -5.64 KCAL/MOL
REMARK 923 INTER-LIGAND FREE ENERGY PREDICTED BY IDOCK:   -5.30 KCAL/MOL
REMARK 924 INTRA-LIGAND FREE ENERGY PREDICTED BY IDOCK:   -0.34 KCAL/MOL
REMARK 927      BINDING AFFINITY PREDICTED BY RF-SCORE:    0.00 PKD
ROOT
HETATM    1  C   UNL     1     -12.024  13.130  70.388  1.00  0.00    -0.343 C  
HETATM    2  C   UNL     1     -12.029  12.639  68.936  1.00  0.00    -0.242 C  
ENDROOT
BRANCH   2   3
HETATM    3  C   UNL     1     -11.908  11.093  68.963  1.00  0.00    -0.348 C  
HETATM    4  O   UNL     1     -11.604  10.442  67.960  1.00  0.00    -0.392 OA 
BRANCH   3   5
HETATM    5  C   UNL     1     -12.117  10.327  70.237  1.00  0.00    -0.330 A  
HETATM    6  C   UNL     1     -10.976   9.816  70.879  1.00  0.00    -0.411 A  
HETATM    7  C   UNL     1     -11.102   9.042  72.031  1.00  0.00    -0.301 A  
HETATM    8  C   UNL     1     -12.360   8.760  72.556  1.00  0.00    -0.358 A  
HETATM    9 CL   UNL     1      -9.695   8.424  72.804  1.00  0.00    -0.332 Cl 
HETATM   10  C   UNL     1     -13.496   9.289  71.946  1.00  0.00    -0.497 A  
HETATM   11  C   UNL     1     -13.376  10.085  70.800  1.00  0.00    -0.197 A  
ENDBRANCH   3   5
ENDBRANCH   2   3
BRANCH   2  12
HETATM   12  N   UNL     1     -10.917  13.221  68.147  1.00  0.00    -0.246 NA 
HETATM   13  H   UNL     1      -9.949  12.984  68.363  1.00  0.00     0.000 HD 
HETATM   14  C   UNL     1     -11.233  14.150  67.040  1.00  0.00    -0.318 C  
HETATM   15  C   UNL     1     -11.513  15.570  67.557  1.00  0.00    -0.184 C  
HETATM   16  C   UNL     1     -12.384  13.672  66.146  1.00  0.00    -0.476 C  
HETATM   17  C   UNL     1      -9.961  14.243  66.164  1.00  0.00    -0.330 C  
ENDBRANCH   2  12
TORSDOF 3
ENDMDL
MODEL       83
REMARK 921   NORMALIZED FREE ENERGY PREDICTED BY IDOCK:   -4.39 KCAL/MOL
REMARK 922        TOTAL FREE ENERGY PREDICTED BY IDOCK:   -5.63 KCAL/MOL
REMARK 923 INTER-LIGAND FREE ENERGY PREDICTED BY IDOCK:   -5.09 KCAL/MOL
REMARK 924 INTRA-LIGAND FREE ENERGY PREDICTED BY IDOCK:   -0.54 KCAL/MOL
REMARK 927      BINDING AFFINITY PREDICTED BY RF-SCORE:    0.00 PKD
ROOT
HETATM    1  C   UNL     1     -12.262  11.211  70.691  1.00  0.00    -0.492 C  
HETATM    2  C   UNL     1     -11.397  11.454  69.449  1.00  0.00    -0.297 C  
ENDROOT
BRANCH   2   3
HETATM    3  C   UNL     1     -11.815  12.821  68.847  1.00  0.00    -0.308 C  
HETATM    4  O   UNL     1     -12.457  13.653  69.492  1.00  0.00    -0.241 OA 
BRANCH   3   5
HETATM    5  C   UNL     1     -11.410  13.202  67.452  1.00  0.00    -0.344 A  
HETATM    6  C   UNL     1     -10.442  14.213  67.313  1.00  0.00    -0.272 A  
HETATM    7  C   UNL     1     -10.066  14.661  66.048  1.00  0.00    -0.311 A  
HETATM    8  C   UNL     1     -10.650  14.118  64.907  1.00  0.00    -0.449 A  
HETATM    9 CL   UNL     1      -8.880  15.897  65.896  1.00  0.00    -0.293 Cl 
HETATM   10  C   UNL     1     -11.587  13.093  65.032  1.00  0.00    -0.354 A  
HETATM   11  C   UNL     1     -11.955  12.624  66.300  1.00  0.00    -0.439 A  
ENDBRANCH   3   5
ENDBRANCH   2   3
BRANCH   2  12
HETATM   12  N   UNL     1     -11.560  10.383  68.437  1.00  0.00    -0.647 NA 
HETATM   13  H   UNL     1     -12.457  10.239  67.974  1.00  0.00     0.000 HD 
HETATM   14  C   UNL     1     -10.400   9.526  68.108  1.00  0.00    -0.208 C  
HETATM   15  C   UNL     1     -10.207   8.412  69.149  1.00  0.00    -0.217 C  
HETATM   16  C   UNL     1      -9.094  10.306  67.914  1.00  0.00    -0.133 C  
HETATM   17  C   UNL     1     -10.735   8.824  66.770  1.00  0.00    -0.088 C  
ENDBRANCH   2  12
TORSDOF 3
ENDMDL
MODEL       84
REMARK 921   NORMALIZED FREE ENERGY PREDICTED BY IDOCK:   -4.38 KCAL/MOL
REMARK 922        TOTAL FREE ENERGY PREDICTED BY IDOCK:   -5.62 KCAL/MOL
REMARK 923 INTER-LIGAND FREE ENERGY PREDICTED BY IDOCK:   -4.99 KCAL/MOL
REMARK 924 INTRA-LIGAND FREE ENERGY PREDICTED BY IDOCK:   -0.63 KCAL/MOL
REMARK 927      BINDING AFFINITY PREDICTED BY RF-SCORE:    0.00 PKD
ROOT
HETATM    1  C   UNL     1     -10.178   5.330  69.129  1.00  0.00    -0.281 C  
HETATM    2  C   UNL     1     -10.525   5.686  70.579  1.00  0.00    -0.277 C  
ENDROOT
BRANCH   2   3
HETATM    3  C   UNL     1     -10.681   7.227  70.660  1.00  0.00    -0.235 C  
HETATM    4  O   UNL     1      -9.776   7.996  70.326  1.00  0.00    -0.175 OA 
BRANCH   3   5
HETATM    5  C   UNL     1     -11.972   7.846  71.112  1.00  0.00    -0.304 A  
HETATM    6  C   UNL     1     -11.991   9.240  71.297  1.00  0.00    -0.414 A  
HETATM    7  C   UNL     1     -13.136   9.873  71.777  1.00  0.00    -0.452 A  
HETATM    8  C   UNL     1     -14.273   9.131  72.086  1.00  0.00    -0.353 A  
HETATM    9 CL   UNL     1     -13.142  11.579  71.997  1.00  0.00    -0.549 Cl 
HETATM   10  C   UNL     1     -14.275   7.753  71.877  1.00  0.00    -0.502 A  
HETATM   11  C   UNL     1     -13.135   7.113  71.375  1.00  0.00    -0.408 A  
ENDBRANCH   3   5
ENDBRANCH   2   3
BRANCH   2  12
HETATM   12  N   UNL     1      -9.483   5.232  71.530  1.00  0.00    -0.147 NA 
HETATM   13  H   UNL     1      -8.524   5.572  71.450  1.00  0.00     0.000 HD 
HETATM   14  C   UNL     1      -9.853   4.276  72.596  1.00  0.00    -0.149 C  
HETATM   15  C   UNL     1      -9.900   2.833  72.071  1.00  0.00    -0.239 C  
HETATM   16  C   UNL     1     -11.166   4.627  73.308  1.00  0.00    -0.411 C  
HETATM   17  C   UNL     1      -8.718   4.325  73.647  1.00  0.00    -0.094 C  
ENDBRANCH   2  12
TORSDOF 3
ENDMDL
MODEL       85
REMARK 921   NORMALIZED FREE ENERGY PREDICTED BY IDOCK:   -4.38 KCAL/MOL
REMARK 922        TOTAL FREE ENERGY PREDICTED BY IDOCK:   -5.61 KCAL/MOL
REMARK 923 INTER-LIGAND FREE ENERGY PREDICTED BY IDOCK:   -5.29 KCAL/MOL
REMARK 924 INTRA-LIGAND FREE ENERGY PREDICTED BY IDOCK:   -0.32 KCAL/MOL
REMARK 927      BINDING AFFINITY PREDICTED BY RF-SCORE:    0.00 PKD
ROOT
HETATM    1  C   UNL     1     -12.116  14.314  68.635  1.00  0.00    -0.295 C  
HETATM    2  C   UNL     1     -11.598  12.918  69.001  1.00  0.00    -0.322 C  
ENDROOT
BRANCH   2   3
HETATM    3  C   UNL     1     -12.094  12.595  70.435  1.00  0.00    -0.300 C  
HETATM    4  O   UNL     1     -12.438  13.478  71.224  1.00  0.00    -0.347 OA 
BRANCH   3   5
HETATM    5  C   UNL     1     -12.214  11.174  70.904  1.00  0.00    -0.468 A  
HETATM    6  C   UNL     1     -11.301  10.241  70.384  1.00  0.00    -0.410 A  
HETATM    7  C   UNL     1     -11.395   8.894  70.727  1.00  0.00    -0.278 A  
HETATM    8  C   UNL     1     -12.401   8.454  71.583  1.00  0.00    -0.359 A  
HETATM    9 CL   UNL     1     -10.269   7.766  70.081  1.00  0.00    -0.201 Cl 
HETATM   10  C   UNL     1     -13.292   9.376  72.130  1.00  0.00    -0.545 A  
HETATM   11  C   UNL     1     -13.191  10.735  71.806  1.00  0.00    -0.523 A  
ENDBRANCH   3   5
ENDBRANCH   2   3
BRANCH   2  12
HETATM   12  N   UNL     1     -10.118  12.840  68.947  1.00  0.00    -0.424 NA 
HETATM   13  H   UNL     1      -9.555  13.123  69.749  1.00  0.00     0.000 HD 
HETATM   14  C   UNL     1      -9.471  12.347  67.712  1.00  0.00    -0.199 C  
HETATM   15  C   UNL     1      -9.380  13.447  66.643  1.00  0.00    -0.248 C  
HETATM   16  C   UNL     1     -10.135  11.092  67.129  1.00  0.00    -0.223 C  
HETATM   17  C   UNL     1      -8.017  11.980  68.091  1.00  0.00    -0.152 C  
ENDBRANCH   2  12
TORSDOF 3
ENDMDL
MODEL       86
REMARK 921   NORMALIZED FREE ENERGY PREDICTED BY IDOCK:   -4.37 KCAL/MOL
REMARK 922        TOTAL FREE ENERGY PREDICTED BY IDOCK:   -5.61 KCAL/MOL
REMARK 923 INTER-LIGAND FREE ENERGY PREDICTED BY IDOCK:   -5.39 KCAL/MOL
REMARK 924 INTRA-LIGAND FREE ENERGY PREDICTED BY IDOCK:   -0.22 KCAL/MOL
REMARK 927      BINDING AFFINITY PREDICTED BY RF-SCORE:    0.00 PKD
ROOT
HETATM    1  C   UNL     1     -10.891  16.711  65.022  1.00  0.00    -0.190 C  
HETATM    2  C   UNL     1     -10.270  16.590  66.419  1.00  0.00    -0.316 C  
ENDROOT
BRANCH   2   3
HETATM    3  C   UNL     1     -10.842  15.306  67.076  1.00  0.00    -0.321 C  
HETATM    4  O   UNL     1     -11.555  15.347  68.082  1.00  0.00    -0.347 OA 
BRANCH   3   5
HETATM    5  C   UNL     1     -10.582  13.954  66.478  1.00  0.00    -0.279 A  
HETATM    6  C   UNL     1     -11.447  13.520  65.459  1.00  0.00    -0.320 A  
HETATM    7  C   UNL     1     -11.303  12.250  64.904  1.00  0.00    -0.325 A  
HETATM    8  C   UNL     1     -10.303  11.393  65.356  1.00  0.00    -0.331 A  
HETATM    9 CL   UNL     1     -12.371  11.735  63.658  1.00  0.00    -0.550 Cl 
HETATM   10  C   UNL     1      -9.419  11.826  66.344  1.00  0.00    -0.234 A  
HETATM   11  C   UNL     1      -9.545  13.109  66.892  1.00  0.00    -0.248 A  
ENDBRANCH   3   5
ENDBRANCH   2   3
BRANCH   2  12
HETATM   12  N   UNL     1     -10.568  17.769  67.266  1.00  0.00    -0.349 NA 
HETATM   13  H   UNL     1     -11.502  17.909  67.650  1.00  0.00     0.000 HD 
HETATM   14  C   UNL     1      -9.488  18.741  67.546  1.00  0.00    -0.298 C  
HETATM   15  C   UNL     1      -9.292  19.720  66.378  1.00  0.00    -0.488 C  
HETATM   16  C   UNL     1      -8.153  18.085  67.922  1.00  0.00    -0.243 C  
HETATM   17  C   UNL     1      -9.957  19.586  68.755  1.00  0.00    -0.547 C  
ENDBRANCH   2  12
TORSDOF 3
ENDMDL
MODEL       87
REMARK 921   NORMALIZED FREE ENERGY PREDICTED BY IDOCK:   -4.37 KCAL/MOL
REMARK 922        TOTAL FREE ENERGY PREDICTED BY IDOCK:   -5.61 KCAL/MOL
REMARK 923 INTER-LIGAND FREE ENERGY PREDICTED BY IDOCK:   -5.27 KCAL/MOL
REMARK 924 INTRA-LIGAND FREE ENERGY PREDICTED BY IDOCK:   -0.33 KCAL/MOL
REMARK 927      BINDING AFFINITY PREDICTED BY RF-SCORE:    0.00 PKD
ROOT
HETATM    1  C   UNL     1     -12.485  10.713  70.241  1.00  0.00    -0.381 C  
HETATM    2  C   UNL     1     -11.182   9.913  70.125  1.00  0.00    -0.289 C  
ENDROOT
BRANCH   2   3
HETATM    3  C   UNL     1     -10.209  10.728  69.234  1.00  0.00    -0.194 C  
HETATM    4  O   UNL     1      -8.988  10.549  69.261  1.00  0.00    -0.179 OA 
BRANCH   3   5
HETATM    5  C   UNL     1     -10.728  11.748  68.262  1.00  0.00    -0.246 A  
HETATM    6  C   UNL     1     -10.796  13.082  68.698  1.00  0.00    -0.287 A  
HETATM    7  C   UNL     1     -11.327  14.069  67.870  1.00  0.00    -0.291 A  
HETATM    8  C   UNL     1     -11.804  13.744  66.603  1.00  0.00    -0.445 A  
HETATM    9 CL   UNL     1     -11.403  15.697  68.421  1.00  0.00    -0.349 Cl 
HETATM   10  C   UNL     1     -11.712  12.430  66.148  1.00  0.00    -0.460 A  
HETATM   11  C   UNL     1     -11.160  11.436  66.967  1.00  0.00    -0.364 A  
ENDBRANCH   3   5
ENDBRANCH   2   3
BRANCH   2  12
HETATM   12  N   UNL     1     -11.401   8.569  69.539  1.00  0.00    -0.416 NA 
HETATM   13  H   UNL     1     -11.651   8.468  68.555  1.00  0.00     0.000 HD 
HETATM   14  C   UNL     1     -11.254   7.378  70.403  1.00  0.00    -0.262 C  
HETATM   15  C   UNL     1     -12.512   7.135  71.250  1.00  0.00    -0.425 C  
HETATM   16  C   UNL     1     -10.008   7.418  71.298  1.00  0.00    -0.194 C  
HETATM   17  C   UNL     1     -11.118   6.161  69.457  1.00  0.00    -0.490 C  
ENDBRANCH   2  12
TORSDOF 3
ENDMDL
MODEL       88
REMARK 921   NORMALIZED FREE ENERGY PREDICTED BY IDOCK:   -4.35 KCAL/MOL
REMARK 922        TOTAL FREE ENERGY PREDICTED BY IDOCK:   -5.58 KCAL/MOL
REMARK 923 INTER-LIGAND FREE ENERGY PREDICTED BY IDOCK:   -5.06 KCAL/MOL
REMARK 924 INTRA-LIGAND FREE ENERGY PREDICTED BY IDOCK:   -0.52 KCAL/MOL
REMARK 927      BINDING AFFINITY PREDICTED BY RF-SCORE:    0.00 PKD
ROOT
HETATM    1  C   UNL     1     -10.744   6.087  68.894  1.00  0.00    -0.384 C  
HETATM    2  C   UNL     1     -10.854   7.381  69.709  1.00  0.00    -0.234 C  
ENDROOT
BRANCH   2   3
HETATM    3  C   UNL     1     -10.248   8.526  68.856  1.00  0.00    -0.207 C  
HETATM    4  O   UNL     1      -9.267   8.352  68.129  1.00  0.00    -0.138 OA 
BRANCH   3   5
HETATM    5  C   UNL     1     -10.868   9.893  68.852  1.00  0.00    -0.239 A  
HETATM    6  C   UNL     1     -10.977  10.551  67.614  1.00  0.00    -0.375 A  
HETATM    7  C   UNL     1     -11.484  11.847  67.545  1.00  0.00    -0.326 A  
HETATM    8  C   UNL     1     -11.883  12.509  68.703  1.00  0.00    -0.340 A  
HETATM    9 CL   UNL     1     -11.609  12.636  66.022  1.00  0.00    -0.417 Cl 
HETATM   10  C   UNL     1     -11.809  11.854  69.932  1.00  0.00    -0.418 A  
HETATM   11  C   UNL     1     -11.320  10.544  70.006  1.00  0.00    -0.392 A  
ENDBRANCH   3   5
ENDBRANCH   2   3
BRANCH   2  12
HETATM   12  N   UNL     1     -10.145   7.285  71.007  1.00  0.00    -0.192 NA 
HETATM   13  H   UNL     1      -9.125   7.302  71.042  1.00  0.00     0.000 HD 
HETATM   14  C   UNL     1     -10.937   7.164  72.250  1.00  0.00    -0.243 C  
HETATM   15  C   UNL     1     -11.407   5.720  72.483  1.00  0.00    -0.358 C  
HETATM   16  C   UNL     1     -12.128   8.129  72.316  1.00  0.00    -0.419 C  
HETATM   17  C   UNL     1      -9.982   7.511  73.418  1.00  0.00    -0.378 C  
ENDBRANCH   2  12
TORSDOF 3
ENDMDL
MODEL       89
REMARK 921   NORMALIZED FREE ENERGY PREDICTED BY IDOCK:   -4.33 KCAL/MOL
REMARK 922        TOTAL FREE ENERGY PREDICTED BY IDOCK:   -5.56 KCAL/MOL
REMARK 923 INTER-LIGAND FREE ENERGY PREDICTED BY IDOCK:   -5.05 KCAL/MOL
REMARK 924 INTRA-LIGAND FREE ENERGY PREDICTED BY IDOCK:   -0.51 KCAL/MOL
REMARK 927      BINDING AFFINITY PREDICTED BY RF-SCORE:    0.00 PKD
ROOT
HETATM    1  C   UNL     1     -12.414  13.300  64.850  1.00  0.00    -0.465 C  
HETATM    2  C   UNL     1     -11.290  13.469  65.879  1.00  0.00    -0.308 C  
ENDROOT
BRANCH   2   3
HETATM    3  C   UNL     1     -11.355  12.259  66.848  1.00  0.00    -0.333 C  
HETATM    4  O   UNL     1     -12.009  12.291  67.893  1.00  0.00    -0.452 OA 
BRANCH   3   5
HETATM    5  C   UNL     1     -10.651  10.974  66.521  1.00  0.00    -0.310 A  
HETATM    6  C   UNL     1     -10.874   9.879  67.374  1.00  0.00    -0.293 A  
HETATM    7  C   UNL     1     -10.204   8.675  67.168  1.00  0.00    -0.283 A  
HETATM    8  C   UNL     1      -9.298   8.545  66.118  1.00  0.00    -0.279 A  
HETATM    9 CL   UNL     1     -10.490   7.345  68.221  1.00  0.00    -0.235 Cl 
HETATM   10  C   UNL     1      -9.093   9.614  65.248  1.00  0.00    -0.269 A  
HETATM   11  C   UNL     1      -9.779  10.820  65.436  1.00  0.00    -0.297 A  
ENDBRANCH   3   5
ENDBRANCH   2   3
BRANCH   2  12
HETATM   12  N   UNL     1     -11.415  14.735  66.640  1.00  0.00    -0.354 NA 
HETATM   13  H   UNL     1     -12.185  14.871  67.295  1.00  0.00     0.000 HD 
HETATM   14  C   UNL     1     -10.408  15.798  66.433  1.00  0.00    -0.299 C  
HETATM   15  C   UNL     1     -10.700  16.615  65.165  1.00  0.00    -0.205 C  
HETATM   16  C   UNL     1      -8.964  15.281  66.413  1.00  0.00    -0.339 C  
HETATM   17  C   UNL     1     -10.544  16.773  67.627  1.00  0.00    -0.325 C  
ENDBRANCH   2  12
TORSDOF 3
ENDMDL
MODEL       90
REMARK 921   NORMALIZED FREE ENERGY PREDICTED BY IDOCK:   -4.33 KCAL/MOL
REMARK 922        TOTAL FREE ENERGY PREDICTED BY IDOCK:   -5.55 KCAL/MOL
REMARK 923 INTER-LIGAND FREE ENERGY PREDICTED BY IDOCK:   -4.93 KCAL/MOL
REMARK 924 INTRA-LIGAND FREE ENERGY PREDICTED BY IDOCK:   -0.62 KCAL/MOL
REMARK 927      BINDING AFFINITY PREDICTED BY RF-SCORE:    0.00 PKD
ROOT
HETATM    1  C   UNL     1      -6.557  17.396  68.106  1.00  0.00    -0.166 C  
HETATM    2  C   UNL     1      -8.058  17.225  68.368  1.00  0.00    -0.259 C  
ENDROOT
BRANCH   2   3
HETATM    3  C   UNL     1      -8.293  15.758  68.811  1.00  0.00    -0.195 C  
HETATM    4  O   UNL     1      -7.362  15.007  69.112  1.00  0.00    -0.138 OA 
BRANCH   3   5
HETATM    5  C   UNL     1      -9.684  15.204  68.932  1.00  0.00    -0.224 A  
HETATM    6  C   UNL     1     -10.491  15.704  69.969  1.00  0.00    -0.333 A  
HETATM    7  C   UNL     1     -11.769  15.190  70.179  1.00  0.00    -0.307 A  
HETATM    8  C   UNL     1     -12.259  14.170  69.369  1.00  0.00    -0.329 A  
HETATM    9 CL   UNL     1     -12.742  15.814  71.453  1.00  0.00    -0.515 Cl 
HETATM   10  C   UNL     1     -11.479  13.689  68.318  1.00  0.00    -0.348 A  
HETATM   11  C   UNL     1     -10.202  14.215  68.088  1.00  0.00    -0.241 A  
ENDBRANCH   3   5
ENDBRANCH   2   3
BRANCH   2  12
HETATM   12  N   UNL     1      -8.872  17.529  67.166  1.00  0.00    -0.233 NA 
HETATM   13  H   UNL     1      -8.980  16.836  66.425  1.00  0.00     0.000 HD 
HETATM   14  C   UNL     1      -9.526  18.851  67.058  1.00  0.00    -0.310 C  
HETATM   15  C   UNL     1      -8.544  19.930  66.576  1.00  0.00    -0.390 C  
HETATM   16  C   UNL     1     -10.220  19.301  68.351  1.00  0.00    -0.503 C  
HETATM   17  C   UNL     1     -10.610  18.720  65.962  1.00  0.00    -0.442 C  
ENDBRANCH   2  12
TORSDOF 3
ENDMDL
MODEL       91
REMARK 921   NORMALIZED FREE ENERGY PREDICTED BY IDOCK:   -4.32 KCAL/MOL
REMARK 922        TOTAL FREE ENERGY PREDICTED BY IDOCK:   -5.55 KCAL/MOL
REMARK 923 INTER-LIGAND FREE ENERGY PREDICTED BY IDOCK:   -5.45 KCAL/MOL
REMARK 924 INTRA-LIGAND FREE ENERGY PREDICTED BY IDOCK:   -0.10 KCAL/MOL
REMARK 927      BINDING AFFINITY PREDICTED BY RF-SCORE:    0.00 PKD
ROOT
HETATM    1  C   UNL     1      -9.732   9.534  70.691  1.00  0.00    -0.311 C  
HETATM    2  C   UNL     1     -11.009   9.392  69.855  1.00  0.00    -0.229 C  
ENDROOT
BRANCH   2   3
HETATM    3  C   UNL     1     -11.348  10.790  69.275  1.00  0.00    -0.286 C  
HETATM    4  O   UNL     1     -11.735  11.719  69.988  1.00  0.00    -0.320 OA 
BRANCH   3   5
HETATM    5  C   UNL     1     -11.173  11.079  67.812  1.00  0.00    -0.374 A  
HETATM    6  C   UNL     1     -10.390  10.182  67.065  1.00  0.00    -0.303 A  
HETATM    7  C   UNL     1     -10.133  10.423  65.717  1.00  0.00    -0.262 A  
HETATM    8  C   UNL     1     -10.643  11.560  65.095  1.00  0.00    -0.350 A  
HETATM    9 CL   UNL     1      -9.173   9.315  64.817  1.00  0.00    -0.227 Cl 
HETATM   10  C   UNL     1     -11.448  12.439  65.819  1.00  0.00    -0.416 A  
HETATM   11  C   UNL     1     -11.727  12.193  67.169  1.00  0.00    -0.372 A  
ENDBRANCH   3   5
ENDBRANCH   2   3
BRANCH   2  12
HETATM   12  N   UNL     1     -12.148   8.886  70.657  1.00  0.00    -0.483 NA 
HETATM   13  H   UNL     1     -12.946   9.488  70.861  1.00  0.00     0.000 HD 
HETATM   14  C   UNL     1     -12.110   7.495  71.159  1.00  0.00    -0.307 C  
HETATM   15  C   UNL     1     -11.255   7.376  72.430  1.00  0.00    -0.337 C  
HETATM   16  C   UNL     1     -11.649   6.476  70.109  1.00  0.00    -0.466 C  
HETATM   17  C   UNL     1     -13.558   7.133  71.566  1.00  0.00    -0.408 C  
ENDBRANCH   2  12
TORSDOF 3
ENDMDL
MODEL       92
REMARK 921   NORMALIZED FREE ENERGY PREDICTED BY IDOCK:   -4.32 KCAL/MOL
REMARK 922        TOTAL FREE ENERGY PREDICTED BY IDOCK:   -5.54 KCAL/MOL
REMARK 923 INTER-LIGAND FREE ENERGY PREDICTED BY IDOCK:   -5.43 KCAL/MOL
REMARK 924 INTRA-LIGAND FREE ENERGY PREDICTED BY IDOCK:   -0.11 KCAL/MOL
REMARK 927      BINDING AFFINITY PREDICTED BY RF-SCORE:    0.00 PKD
ROOT
HETATM    1  C   UNL     1      -8.964  11.599  68.312  1.00  0.00    -0.185 C  
HETATM    2  C   UNL     1     -10.363  10.998  68.495  1.00  0.00    -0.190 C  
ENDROOT
BRANCH   2   3
HETATM    3  C   UNL     1     -11.393  12.054  68.014  1.00  0.00    -0.296 C  
HETATM    4  O   UNL     1     -12.095  11.878  67.016  1.00  0.00    -0.600 OA 
BRANCH   3   5
HETATM    5  C   UNL     1     -11.604  13.327  68.783  1.00  0.00    -0.350 A  
HETATM    6  C   UNL     1     -11.245  14.531  68.152  1.00  0.00    -0.301 A  
HETATM    7  C   UNL     1     -11.355  15.743  68.830  1.00  0.00    -0.356 A  
HETATM    8  C   UNL     1     -11.815  15.775  70.144  1.00  0.00    -0.369 A  
HETATM    9 CL   UNL     1     -10.910  17.206  68.043  1.00  0.00    -0.366 Cl 
HETATM   10  C   UNL     1     -12.204  14.591  70.767  1.00  0.00    -0.403 A  
HETATM   11  C   UNL     1     -12.116  13.371  70.085  1.00  0.00    -0.415 A  
ENDBRANCH   3   5
ENDBRANCH   2   3
BRANCH   2  12
HETATM   12  N   UNL     1     -10.633  10.632  69.906  1.00  0.00    -0.433 NA 
HETATM   13  H   UNL     1     -11.077  11.299  70.538  1.00  0.00     0.000 HD 
HETATM   14  C   UNL     1     -10.249   9.286  70.384  1.00  0.00    -0.233 C  
HETATM   15  C   UNL     1      -8.753   9.214  70.727  1.00  0.00    -0.285 C  
HETATM   16  C   UNL     1     -10.628   8.159  69.414  1.00  0.00    -0.206 C  
HETATM   17  C   UNL     1     -11.017   9.051  71.706  1.00  0.00    -0.443 C  
ENDBRANCH   2  12
TORSDOF 3
ENDMDL
MODEL       93
REMARK 921   NORMALIZED FREE ENERGY PREDICTED BY IDOCK:   -4.31 KCAL/MOL
REMARK 922        TOTAL FREE ENERGY PREDICTED BY IDOCK:   -5.54 KCAL/MOL
REMARK 923 INTER-LIGAND FREE ENERGY PREDICTED BY IDOCK:   -4.82 KCAL/MOL
REMARK 924 INTRA-LIGAND FREE ENERGY PREDICTED BY IDOCK:   -0.72 KCAL/MOL
REMARK 927      BINDING AFFINITY PREDICTED BY RF-SCORE:    0.00 PKD
ROOT
HETATM    1  C   UNL     1      -8.754  20.282  66.965  1.00  0.00    -0.413 C  
HETATM    2  C   UNL     1      -8.732  18.790  67.316  1.00  0.00    -0.274 C  
ENDROOT
BRANCH   2   3
HETATM    3  C   UNL     1     -10.180  18.374  67.688  1.00  0.00    -0.379 C  
HETATM    4  O   UNL     1     -11.133  19.150  67.582  1.00  0.00    -0.362 OA 
BRANCH   3   5
HETATM    5  C   UNL     1     -10.482  16.980  68.155  1.00  0.00    -0.357 A  
HETATM    6  C   UNL     1     -10.767  16.803  69.520  1.00  0.00    -0.273 A  
HETATM    7  C   UNL     1     -10.994  15.527  70.034  1.00  0.00    -0.319 A  
HETATM    8  C   UNL     1     -10.935  14.413  69.203  1.00  0.00    -0.288 A  
HETATM    9 CL   UNL     1     -11.342  15.329  71.707  1.00  0.00    -0.476 Cl 
HETATM   10  C   UNL     1     -10.685  14.580  67.842  1.00  0.00    -0.245 A  
HETATM   11  C   UNL     1     -10.476  15.860  67.314  1.00  0.00    -0.310 A  
ENDBRANCH   3   5
ENDBRANCH   2   3
BRANCH   2  12
HETATM   12  N   UNL     1      -7.815  18.495  68.443  1.00  0.00    -0.302 NA 
HETATM   13  H   UNL     1      -8.052  18.782  69.393  1.00  0.00     0.000 HD 
HETATM   14  C   UNL     1      -6.550  17.780  68.169  1.00  0.00    -0.191 C  
HETATM   15  C   UNL     1      -5.468  18.730  67.631  1.00  0.00    -0.167 C  
HETATM   16  C   UNL     1      -6.715  16.576  67.232  1.00  0.00    -0.216 C  
HETATM   17  C   UNL     1      -6.036  17.253  69.530  1.00  0.00    -0.247 C  
ENDBRANCH   2  12
TORSDOF 3
ENDMDL
MODEL       94
REMARK 921   NORMALIZED FREE ENERGY PREDICTED BY IDOCK:   -4.31 KCAL/MOL
REMARK 922        TOTAL FREE ENERGY PREDICTED BY IDOCK:   -5.54 KCAL/MOL
REMARK 923 INTER-LIGAND FREE ENERGY PREDICTED BY IDOCK:   -4.87 KCAL/MOL
REMARK 924 INTRA-LIGAND FREE ENERGY PREDICTED BY IDOCK:   -0.66 KCAL/MOL
REMARK 927      BINDING AFFINITY PREDICTED BY RF-SCORE:    0.00 PKD
ROOT
HETATM    1  C   UNL     1     -10.361  15.906  65.622  1.00  0.00    -0.413 C  
HETATM    2  C   UNL     1     -10.096  14.690  66.517  1.00  0.00    -0.279 C  
ENDROOT
BRANCH   2   3
HETATM    3  C   UNL     1     -11.465  14.030  66.829  1.00  0.00    -0.363 C  
HETATM    4  O   UNL     1     -12.455  14.204  66.114  1.00  0.00    -0.466 OA 
BRANCH   3   5
HETATM    5  C   UNL     1     -11.624  13.110  68.005  1.00  0.00    -0.371 A  
HETATM    6  C   UNL     1     -12.071  13.675  69.213  1.00  0.00    -0.360 A  
HETATM    7  C   UNL     1     -12.180  12.892  70.360  1.00  0.00    -0.304 A  
HETATM    8  C   UNL     1     -11.841  11.542  70.326  1.00  0.00    -0.431 A  
HETATM    9 CL   UNL     1     -12.728  13.600  71.829  1.00  0.00    -0.390 Cl 
HETATM   10  C   UNL     1     -11.428  10.965  69.126  1.00  0.00    -0.373 A  
HETATM   11  C   UNL     1     -11.336  11.741  67.964  1.00  0.00    -0.355 A  
ENDBRANCH   3   5
ENDBRANCH   2   3
BRANCH   2  12
HETATM   12  N   UNL     1      -9.414  15.063  67.779  1.00  0.00    -0.194 NA 
HETATM   13  H   UNL     1      -9.897  15.620  68.484  1.00  0.00     0.000 HD 
HETATM   14  C   UNL     1      -8.022  14.615  68.000  1.00  0.00    -0.136 C  
HETATM   15  C   UNL     1      -7.015  15.520  67.273  1.00  0.00    -0.206 C  
HETATM   16  C   UNL     1      -7.782  13.146  67.630  1.00  0.00    -0.168 C  
HETATM   17  C   UNL     1      -7.742  14.773  69.514  1.00  0.00    -0.068 C  
ENDBRANCH   2  12
TORSDOF 3
ENDMDL
MODEL       95
REMARK 921   NORMALIZED FREE ENERGY PREDICTED BY IDOCK:   -4.31 KCAL/MOL
REMARK 922        TOTAL FREE ENERGY PREDICTED BY IDOCK:   -5.53 KCAL/MOL
REMARK 923 INTER-LIGAND FREE ENERGY PREDICTED BY IDOCK:   -5.02 KCAL/MOL
REMARK 924 INTRA-LIGAND FREE ENERGY PREDICTED BY IDOCK:   -0.51 KCAL/MOL
REMARK 927      BINDING AFFINITY PREDICTED BY RF-SCORE:    0.00 PKD
ROOT
HETATM    1  C   UNL     1     -11.312  16.316  68.508  1.00  0.00    -0.330 C  
HETATM    2  C   UNL     1     -10.398  15.745  67.417  1.00  0.00    -0.282 C  
ENDROOT
BRANCH   2   3
HETATM    3  C   UNL     1      -9.634  16.934  66.777  1.00  0.00    -0.262 C  
HETATM    4  O   UNL     1      -9.932  17.382  65.667  1.00  0.00    -0.559 OA 
BRANCH   3   5
HETATM    5  C   UNL     1      -8.519  17.617  67.513  1.00  0.00    -0.220 A  
HETATM    6  C   UNL     1      -8.232  18.948  67.163  1.00  0.00    -0.283 A  
HETATM    7  C   UNL     1      -7.169  19.623  67.761  1.00  0.00    -0.267 A  
HETATM    8  C   UNL     1      -6.374  18.983  68.707  1.00  0.00    -0.270 A  
HETATM    9 CL   UNL     1      -6.834  21.251  67.321  1.00  0.00    -0.409 Cl 
HETATM   10  C   UNL     1      -6.668  17.674  69.085  1.00  0.00    -0.243 A  
HETATM   11  C   UNL     1      -7.748  16.997  68.504  1.00  0.00    -0.238 A  
ENDBRANCH   3   5
ENDBRANCH   2   3
BRANCH   2  12
HETATM   12  N   UNL     1     -11.159  15.012  66.377  1.00  0.00    -0.337 NA 
HETATM   13  H   UNL     1     -11.785  15.512  65.744  1.00  0.00     0.000 HD 
HETATM   14  C   UNL     1     -10.999  13.546  66.272  1.00  0.00    -0.289 C  
HETATM   15  C   UNL     1     -11.853  12.808  67.315  1.00  0.00    -0.414 C  
HETATM   16  C   UNL     1      -9.540  13.080  66.352  1.00  0.00    -0.258 C  
HETATM   17  C   UNL     1     -11.550  13.140  64.884  1.00  0.00    -0.356 C  
ENDBRANCH   2  12
TORSDOF 3
ENDMDL
MODEL       96
REMARK 921   NORMALIZED FREE ENERGY PREDICTED BY IDOCK:   -4.31 KCAL/MOL
REMARK 922        TOTAL FREE ENERGY PREDICTED BY IDOCK:   -5.53 KCAL/MOL
REMARK 923 INTER-LIGAND FREE ENERGY PREDICTED BY IDOCK:   -4.90 KCAL/MOL
REMARK 924 INTRA-LIGAND FREE ENERGY PREDICTED BY IDOCK:   -0.63 KCAL/MOL
REMARK 927      BINDING AFFINITY PREDICTED BY RF-SCORE:    0.00 PKD
ROOT
HETATM    1  C   UNL     1     -10.358  17.874  68.796  1.00  0.00    -0.311 C  
HETATM    2  C   UNL     1      -9.930  16.458  68.390  1.00  0.00    -0.238 C  
ENDROOT
BRANCH   2   3
HETATM    3  C   UNL     1     -11.189  15.554  68.445  1.00  0.00    -0.341 C  
HETATM    4  O   UNL     1     -12.159  15.823  69.158  1.00  0.00    -0.353 OA 
BRANCH   3   5
HETATM    5  C   UNL     1     -11.290  14.325  67.589  1.00  0.00    -0.344 A  
HETATM    6  C   UNL     1     -11.577  14.509  66.225  1.00  0.00    -0.364 A  
HETATM    7  C   UNL     1     -11.748  13.410  65.385  1.00  0.00    -0.331 A  
HETATM    8  C   UNL     1     -11.645  12.116  65.889  1.00  0.00    -0.425 A  
HETATM    9 CL   UNL     1     -12.098  13.653  63.719  1.00  0.00    -0.488 Cl 
HETATM   10  C   UNL     1     -11.329  11.923  67.233  1.00  0.00    -0.393 A  
HETATM   11  C   UNL     1     -11.135  13.022  68.079  1.00  0.00    -0.288 A  
ENDBRANCH   3   5
ENDBRANCH   2   3
BRANCH   2  12
HETATM   12  N   UNL     1      -8.877  15.916  69.282  1.00  0.00    -0.254 NA 
HETATM   13  H   UNL     1      -9.102  15.633  70.236  1.00  0.00     0.000 HD 
HETATM   14  C   UNL     1      -7.496  15.793  68.768  1.00  0.00    -0.158 C  
HETATM   15  C   UNL     1      -6.750  17.135  68.823  1.00  0.00    -0.200 C  
HETATM   16  C   UNL     1      -7.417  15.197  67.357  1.00  0.00    -0.239 C  
HETATM   17  C   UNL     1      -6.751  14.835  69.729  1.00  0.00    -0.173 C  
ENDBRANCH   2  12
TORSDOF 3
ENDMDL
MODEL       97
REMARK 921   NORMALIZED FREE ENERGY PREDICTED BY IDOCK:   -4.30 KCAL/MOL
REMARK 922        TOTAL FREE ENERGY PREDICTED BY IDOCK:   -5.52 KCAL/MOL
REMARK 923 INTER-LIGAND FREE ENERGY PREDICTED BY IDOCK:   -4.99 KCAL/MOL
REMARK 924 INTRA-LIGAND FREE ENERGY PREDICTED BY IDOCK:   -0.53 KCAL/MOL
REMARK 927      BINDING AFFINITY PREDICTED BY RF-SCORE:    0.00 PKD
ROOT
HETATM    1  C   UNL     1     -12.873  11.192  71.306  1.00  0.00    -0.515 C  
HETATM    2  C   UNL     1     -11.919  10.805  70.171  1.00  0.00    -0.349 C  
ENDROOT
BRANCH   2   3
HETATM    3  C   UNL     1     -11.186   9.506  70.597  1.00  0.00    -0.302 C  
HETATM    4  O   UNL     1     -10.814   9.313  71.757  1.00  0.00    -0.368 OA 
BRANCH   3   5
HETATM    5  C   UNL     1     -10.939   8.403  69.608  1.00  0.00    -0.094 A  
HETATM    6  C   UNL     1     -10.395   8.761  68.362  1.00  0.00    -0.242 A  
HETATM    7  C   UNL     1     -10.199   7.798  67.374  1.00  0.00    -0.251 A  
HETATM    8  C   UNL     1     -10.547   6.470  67.607  1.00  0.00    -0.332 A  
HETATM    9 CL   UNL     1      -9.532   8.254  65.856  1.00  0.00    -0.188 Cl 
HETATM   10  C   UNL     1     -11.058   6.099  68.850  1.00  0.00    -0.417 A  
HETATM   11  C   UNL     1     -11.238   7.057  69.855  1.00  0.00    -0.286 A  
ENDBRANCH   3   5
ENDBRANCH   2   3
BRANCH   2  12
HETATM   12  N   UNL     1     -10.931  11.872  69.882  1.00  0.00    -0.421 NA 
HETATM   13  H   UNL     1     -10.109  11.991  70.474  1.00  0.00     0.000 HD 
HETATM   14  C   UNL     1     -11.157  12.763  68.723  1.00  0.00    -0.260 C  
HETATM   15  C   UNL     1     -12.159  13.879  69.054  1.00  0.00    -0.365 C  
HETATM   16  C   UNL     1     -11.588  12.020  67.452  1.00  0.00    -0.388 C  
HETATM   17  C   UNL     1      -9.805  13.457  68.430  1.00  0.00    -0.216 C  
ENDBRANCH   2  12
TORSDOF 3
ENDMDL
MODEL       98
REMARK 921   NORMALIZED FREE ENERGY PREDICTED BY IDOCK:   -4.30 KCAL/MOL
REMARK 922        TOTAL FREE ENERGY PREDICTED BY IDOCK:   -5.52 KCAL/MOL
REMARK 923 INTER-LIGAND FREE ENERGY PREDICTED BY IDOCK:   -5.31 KCAL/MOL
REMARK 924 INTRA-LIGAND FREE ENERGY PREDICTED BY IDOCK:   -0.20 KCAL/MOL
REMARK 927      BINDING AFFINITY PREDICTED BY RF-SCORE:    0.00 PKD
ROOT
HETATM    1  C   UNL     1     -12.239  14.182  70.377  1.00  0.00    -0.427 C  
HETATM    2  C   UNL     1     -11.541  13.859  69.051  1.00  0.00    -0.310 C  
ENDROOT
BRANCH   2   3
HETATM    3  C   UNL     1     -11.895  12.395  68.679  1.00  0.00    -0.302 C  
HETATM    4  O   UNL     1     -12.158  12.058  67.522  1.00  0.00    -0.555 OA 
BRANCH   3   5
HETATM    5  C   UNL     1     -11.888  11.314  69.721  1.00  0.00    -0.437 A  
HETATM    6  C   UNL     1     -10.797  10.427  69.725  1.00  0.00    -0.342 A  
HETATM    7  C   UNL     1     -10.757   9.362  70.623  1.00  0.00    -0.290 A  
HETATM    8  C   UNL     1     -11.800   9.160  71.522  1.00  0.00    -0.428 A  
HETATM    9 CL   UNL     1      -9.414   8.287  70.614  1.00  0.00    -0.172 Cl 
HETATM   10  C   UNL     1     -12.871  10.052  71.547  1.00  0.00    -0.537 A  
HETATM   11  C   UNL     1     -12.909  11.136  70.662  1.00  0.00    -0.271 A  
ENDBRANCH   3   5
ENDBRANCH   2   3
BRANCH   2  12
HETATM   12  N   UNL     1     -10.070  14.018  69.140  1.00  0.00    -0.432 NA 
HETATM   13  H   UNL     1      -9.541  13.543  69.872  1.00  0.00     0.000 HD 
HETATM   14  C   UNL     1      -9.380  14.876  68.152  1.00  0.00    -0.193 C  
HETATM   15  C   UNL     1      -9.491  16.363  68.521  1.00  0.00    -0.227 C  
HETATM   16  C   UNL     1      -9.847  14.648  66.709  1.00  0.00    -0.262 C  
HETATM   17  C   UNL     1      -7.877  14.514  68.226  1.00  0.00    -0.131 C  
ENDBRANCH   2  12
TORSDOF 3
ENDMDL
MODEL       99
REMARK 921   NORMALIZED FREE ENERGY PREDICTED BY IDOCK:   -4.29 KCAL/MOL
REMARK 922        TOTAL FREE ENERGY PREDICTED BY IDOCK:   -5.51 KCAL/MOL
REMARK 923 INTER-LIGAND FREE ENERGY PREDICTED BY IDOCK:   -5.46 KCAL/MOL
REMARK 924 INTRA-LIGAND FREE ENERGY PREDICTED BY IDOCK:   -0.06 KCAL/MOL
REMARK 927      BINDING AFFINITY PREDICTED BY RF-SCORE:    0.00 PKD
ROOT
HETATM    1  C   UNL     1      -9.179   9.815  69.878  1.00  0.00    -0.263 C  
HETATM    2  C   UNL     1     -10.366   8.970  69.403  1.00  0.00    -0.213 C  
ENDROOT
BRANCH   2   3
HETATM    3  C   UNL     1     -10.650   9.349  67.926  1.00  0.00    -0.237 C  
HETATM    4  O   UNL     1     -10.639   8.512  67.020  1.00  0.00    -0.306 OA 
BRANCH   3   5
HETATM    5  C   UNL     1     -10.997  10.760  67.548  1.00  0.00    -0.372 A  
HETATM    6  C   UNL     1     -10.652  11.187  66.254  1.00  0.00    -0.309 A  
HETATM    7  C   UNL     1     -10.886  12.502  65.858  1.00  0.00    -0.269 A  
HETATM    8  C   UNL     1     -11.458  13.412  66.743  1.00  0.00    -0.376 A  
HETATM    9 CL   UNL     1     -10.458  13.007  64.270  1.00  0.00    -0.429 Cl 
HETATM   10  C   UNL     1     -11.833  12.991  68.018  1.00  0.00    -0.391 A  
HETATM   11  C   UNL     1     -11.620  11.666  68.415  1.00  0.00    -0.376 A  
ENDBRANCH   3   5
ENDBRANCH   2   3
BRANCH   2  12
HETATM   12  N   UNL     1     -11.578   9.196  70.226  1.00  0.00    -0.449 NA 
HETATM   13  H   UNL     1     -12.108  10.063  70.141  1.00  0.00     0.000 HD 
HETATM   14  C   UNL     1     -12.006   8.145  71.175  1.00  0.00    -0.273 C  
HETATM   15  C   UNL     1     -11.197   8.198  72.480  1.00  0.00    -0.459 C  
HETATM   16  C   UNL     1     -11.970   6.730  70.582  1.00  0.00    -0.418 C  
HETATM   17  C   UNL     1     -13.473   8.462  71.552  1.00  0.00    -0.315 C  
ENDBRANCH   2  12
TORSDOF 3
ENDMDL
MODEL      100
REMARK 921   NORMALIZED FREE ENERGY PREDICTED BY IDOCK:   -4.29 KCAL/MOL
REMARK 922        TOTAL FREE ENERGY PREDICTED BY IDOCK:   -5.51 KCAL/MOL
REMARK 923 INTER-LIGAND FREE ENERGY PREDICTED BY IDOCK:   -4.81 KCAL/MOL
REMARK 924 INTRA-LIGAND FREE ENERGY PREDICTED BY IDOCK:   -0.70 KCAL/MOL
REMARK 927      BINDING AFFINITY PREDICTED BY RF-SCORE:    0.00 PKD
ROOT
HETATM    1  C   UNL     1      -6.493  17.300  68.096  1.00  0.00    -0.162 C  
HETATM    2  C   UNL     1      -7.982  17.290  68.460  1.00  0.00    -0.261 C  
ENDROOT
BRANCH   2   3
HETATM    3  C   UNL     1      -8.289  15.932  69.144  1.00  0.00    -0.253 C  
HETATM    4  O   UNL     1      -7.401  15.230  69.634  1.00  0.00    -0.201 OA 
BRANCH   3   5
HETATM    5  C   UNL     1      -9.701  15.439  69.275  1.00  0.00    -0.268 A  
HETATM    6  C   UNL     1     -10.068  14.319  68.508  1.00  0.00    -0.246 A  
HETATM    7  C   UNL     1     -11.379  13.847  68.532  1.00  0.00    -0.280 A  
HETATM    8  C   UNL     1     -12.342  14.483  69.310  1.00  0.00    -0.185 A  
HETATM    9 CL   UNL     1     -11.811  12.476  67.588  1.00  0.00    -0.419 Cl 
HETATM   10  C   UNL     1     -11.981  15.575  70.098  1.00  0.00    -0.389 A  
HETATM   11  C   UNL     1     -10.661  16.042  70.096  1.00  0.00    -0.316 A  
ENDBRANCH   3   5
ENDBRANCH   2   3
BRANCH   2  12
HETATM   12  N   UNL     1      -8.849  17.465  67.269  1.00  0.00    -0.228 NA 
HETATM   13  H   UNL     1      -8.986  16.697  66.611  1.00  0.00     0.000 HD 
HETATM   14  C   UNL     1      -9.512  18.768  67.050  1.00  0.00    -0.301 C  
HETATM   15  C   UNL     1      -8.555  19.789  66.414  1.00  0.00    -0.398 C  
HETATM   16  C   UNL     1     -10.150  19.354  68.317  1.00  0.00    -0.531 C  
HETATM   17  C   UNL     1     -10.642  18.523  66.022  1.00  0.00    -0.368 C  
ENDBRANCH   2  12
TORSDOF 3
ENDMDL
MODEL      101
REMARK 921   NORMALIZED FREE ENERGY PREDICTED BY IDOCK:   -4.27 KCAL/MOL
REMARK 922        TOTAL FREE ENERGY PREDICTED BY IDOCK:   -5.48 KCAL/MOL
REMARK 923 INTER-LIGAND FREE ENERGY PREDICTED BY IDOCK:   -4.89 KCAL/MOL
REMARK 924 INTRA-LIGAND FREE ENERGY PREDICTED BY IDOCK:   -0.60 KCAL/MOL
REMARK 927      BINDING AFFINITY PREDICTED BY RF-SCORE:    0.00 PKD
ROOT
HETATM    1  C   UNL     1     -10.626   7.707  67.148  1.00  0.00    -0.410 C  
HETATM    2  C   UNL     1     -10.737   8.937  68.057  1.00  0.00    -0.108 C  
ENDROOT
BRANCH   2   3
HETATM    3  C   UNL     1     -10.078  10.130  67.316  1.00  0.00    -0.206 C  
HETATM    4  O   UNL     1      -8.958  10.047  66.807  1.00  0.00    -0.134 OA 
BRANCH   3   5
HETATM    5  C   UNL     1     -10.809  11.431  67.153  1.00  0.00    -0.316 A  
HETATM    6  C   UNL     1     -11.052  12.187  68.313  1.00  0.00    -0.288 A  
HETATM    7  C   UNL     1     -11.780  13.373  68.243  1.00  0.00    -0.356 A  
HETATM    8  C   UNL     1     -12.282  13.820  67.024  1.00  0.00    -0.381 A  
HETATM    9 CL   UNL     1     -12.068  14.285  69.673  1.00  0.00    -0.381 Cl 
HETATM   10  C   UNL     1     -12.020  13.095  65.863  1.00  0.00    -0.479 A  
HETATM   11  C   UNL     1     -11.271  11.913  65.922  1.00  0.00    -0.373 A  
ENDBRANCH   3   5
ENDBRANCH   2   3
BRANCH   2  12
HETATM   12  N   UNL     1     -10.074   8.725  69.366  1.00  0.00    -0.197 NA 
HETATM   13  H   UNL     1      -9.059   8.650  69.427  1.00  0.00     0.000 HD 
HETATM   14  C   UNL     1     -10.908   8.623  70.584  1.00  0.00    -0.229 C  
HETATM   15  C   UNL     1     -11.509   7.218  70.742  1.00  0.00    -0.328 C  
HETATM   16  C   UNL     1     -12.011   9.686  70.664  1.00  0.00    -0.304 C  
HETATM   17  C   UNL     1      -9.959   8.835  71.788  1.00  0.00    -0.396 C  
ENDBRANCH   2  12
TORSDOF 3
ENDMDL
MODEL      102
REMARK 921   NORMALIZED FREE ENERGY PREDICTED BY IDOCK:   -4.26 KCAL/MOL
REMARK 922        TOTAL FREE ENERGY PREDICTED BY IDOCK:   -5.48 KCAL/MOL
REMARK 923 INTER-LIGAND FREE ENERGY PREDICTED BY IDOCK:   -5.29 KCAL/MOL
REMARK 924 INTRA-LIGAND FREE ENERGY PREDICTED BY IDOCK:   -0.19 KCAL/MOL
REMARK 927      BINDING AFFINITY PREDICTED BY RF-SCORE:    0.00 PKD
ROOT
HETATM    1  C   UNL     1      -9.494   9.945  69.853  1.00  0.00    -0.256 C  
HETATM    2  C   UNL     1     -10.888   9.397  70.181  1.00  0.00    -0.249 C  
ENDROOT
BRANCH   2   3
HETATM    3  C   UNL     1     -11.822  10.610  70.432  1.00  0.00    -0.349 C  
HETATM    4  O   UNL     1     -12.548  10.683  71.427  1.00  0.00    -0.369 OA 
BRANCH   3   5
HETATM    5  C   UNL     1     -11.844  11.773  69.483  1.00  0.00    -0.402 A  
HETATM    6  C   UNL     1     -11.745  11.489  68.110  1.00  0.00    -0.357 A  
HETATM    7  C   UNL     1     -11.694  12.523  67.177  1.00  0.00    -0.355 A  
HETATM    8  C   UNL     1     -11.734  13.850  67.595  1.00  0.00    -0.403 A  
HETATM    9 CL   UNL     1     -11.573  12.157  65.501  1.00  0.00    -0.409 Cl 
HETATM   10  C   UNL     1     -11.865  14.142  68.952  1.00  0.00    -0.382 A  
HETATM   11  C   UNL     1     -11.937  13.108  69.893  1.00  0.00    -0.387 A  
ENDBRANCH   3   5
ENDBRANCH   2   3
BRANCH   2  12
HETATM   12  N   UNL     1     -10.875   8.513  71.371  1.00  0.00    -0.244 NA 
HETATM   13  H   UNL     1     -10.902   8.908  72.311  1.00  0.00     0.000 HD 
HETATM   14  C   UNL     1     -10.820   7.048  71.175  1.00  0.00    -0.237 C  
HETATM   15  C   UNL     1      -9.388   6.568  70.892  1.00  0.00    -0.165 C  
HETATM   16  C   UNL     1     -11.776   6.536  70.090  1.00  0.00    -0.419 C  
HETATM   17  C   UNL     1     -11.242   6.406  72.518  1.00  0.00    -0.307 C  
ENDBRANCH   2  12
TORSDOF 3
ENDMDL
MODEL      103
REMARK 921   NORMALIZED FREE ENERGY PREDICTED BY IDOCK:   -4.25 KCAL/MOL
REMARK 922        TOTAL FREE ENERGY PREDICTED BY IDOCK:   -5.47 KCAL/MOL
REMARK 923 INTER-LIGAND FREE ENERGY PREDICTED BY IDOCK:   -4.89 KCAL/MOL
REMARK 924 INTRA-LIGAND FREE ENERGY PREDICTED BY IDOCK:   -0.58 KCAL/MOL
REMARK 927      BINDING AFFINITY PREDICTED BY RF-SCORE:    0.00 PKD
ROOT
HETATM    1  C   UNL     1      -8.069  13.478  67.367  1.00  0.00    -0.184 C  
HETATM    2  C   UNL     1      -9.017  14.395  68.149  1.00  0.00    -0.185 C  
ENDROOT
BRANCH   2   3
HETATM    3  C   UNL     1      -8.144  15.389  68.960  1.00  0.00    -0.213 C  
HETATM    4  O   UNL     1      -7.362  15.010  69.835  1.00  0.00    -0.190 OA 
BRANCH   3   5
HETATM    5  C   UNL     1      -8.191  16.862  68.676  1.00  0.00    -0.254 A  
HETATM    6  C   UNL     1      -9.399  17.389  68.185  1.00  0.00    -0.277 A  
HETATM    7  C   UNL     1      -9.493  18.735  67.840  1.00  0.00    -0.304 A  
HETATM    8  C   UNL     1      -8.390  19.574  67.969  1.00  0.00    -0.355 A  
HETATM    9 CL   UNL     1     -10.979  19.362  67.241  1.00  0.00    -0.556 Cl 
HETATM   10  C   UNL     1      -7.197  19.070  68.485  1.00  0.00    -0.334 A  
HETATM   11  C   UNL     1      -7.101  17.722  68.854  1.00  0.00    -0.262 A  
ENDBRANCH   3   5
ENDBRANCH   2   3
BRANCH   2  12
HETATM   12  N   UNL     1      -9.902  13.635  69.063  1.00  0.00    -0.423 NA 
HETATM   13  H   UNL     1      -9.516  13.145  69.871  1.00  0.00     0.000 HD 
HETATM   14  C   UNL     1     -11.355  13.596  68.786  1.00  0.00    -0.289 C  
HETATM   15  C   UNL     1     -11.697  12.557  67.707  1.00  0.00    -0.419 C  
HETATM   16  C   UNL     1     -11.947  14.962  68.416  1.00  0.00    -0.255 C  
HETATM   17  C   UNL     1     -12.040  13.120  70.089  1.00  0.00    -0.392 C  
ENDBRANCH   2  12
TORSDOF 3
ENDMDL
MODEL      104
REMARK 921   NORMALIZED FREE ENERGY PREDICTED BY IDOCK:   -4.25 KCAL/MOL
REMARK 922        TOTAL FREE ENERGY PREDICTED BY IDOCK:   -5.46 KCAL/MOL
REMARK 923 INTER-LIGAND FREE ENERGY PREDICTED BY IDOCK:   -4.82 KCAL/MOL
REMARK 924 INTRA-LIGAND FREE ENERGY PREDICTED BY IDOCK:   -0.63 KCAL/MOL
REMARK 927      BINDING AFFINITY PREDICTED BY RF-SCORE:    0.00 PKD
ROOT
HETATM    1  C   UNL     1     -12.731  11.417  71.103  1.00  0.00    -0.479 C  
HETATM    2  C   UNL     1     -12.027  10.141  70.626  1.00  0.00    -0.332 C  
ENDROOT
BRANCH   2   3
HETATM    3  C   UNL     1     -12.370   9.011  71.633  1.00  0.00    -0.347 C  
HETATM    4  O   UNL     1     -13.449   8.969  72.228  1.00  0.00    -0.413 OA 
BRANCH   3   5
HETATM    5  C   UNL     1     -11.404   7.891  71.889  1.00  0.00    -0.324 A  
HETATM    6  C   UNL     1     -11.245   6.929  70.875  1.00  0.00    -0.332 A  
HETATM    7  C   UNL     1     -10.414   5.828  71.071  1.00  0.00    -0.244 A  
HETATM    8  C   UNL     1      -9.736   5.663  72.276  1.00  0.00    -0.177 A  
HETATM    9 CL   UNL     1     -10.230   4.662  69.820  1.00  0.00    -0.249 Cl 
HETATM   10  C   UNL     1      -9.862   6.627  73.276  1.00  0.00    -0.199 A  
HETATM   11  C   UNL     1     -10.679   7.747  73.078  1.00  0.00    -0.446 A  
ENDBRANCH   3   5
ENDBRANCH   2   3
BRANCH   2  12
HETATM   12  N   UNL     1     -10.556  10.314  70.540  1.00  0.00    -0.421 NA 
HETATM   13  H   UNL     1     -10.002  10.461  71.384  1.00  0.00     0.000 HD 
HETATM   14  C   UNL     1      -9.906  10.270  69.213  1.00  0.00    -0.228 C  
HETATM   15  C   UNL     1     -10.035  11.612  68.476  1.00  0.00    -0.198 C  
HETATM   16  C   UNL     1     -10.403   9.124  68.322  1.00  0.00    -0.256 C  
HETATM   17  C   UNL     1      -8.396  10.050  69.467  1.00  0.00    -0.180 C  
ENDBRANCH   2  12
TORSDOF 3
ENDMDL
MODEL      105
REMARK 921   NORMALIZED FREE ENERGY PREDICTED BY IDOCK:   -4.24 KCAL/MOL
REMARK 922        TOTAL FREE ENERGY PREDICTED BY IDOCK:   -5.46 KCAL/MOL
REMARK 923 INTER-LIGAND FREE ENERGY PREDICTED BY IDOCK:   -4.87 KCAL/MOL
REMARK 924 INTRA-LIGAND FREE ENERGY PREDICTED BY IDOCK:   -0.58 KCAL/MOL
REMARK 927      BINDING AFFINITY PREDICTED BY RF-SCORE:    0.00 PKD
ROOT
HETATM    1  C   UNL     1     -11.469  13.926  66.059  1.00  0.00    -0.345 C  
HETATM    2  C   UNL     1     -11.293  13.505  67.522  1.00  0.00    -0.308 C  
ENDROOT
BRANCH   2   3
HETATM    3  C   UNL     1     -11.616  11.990  67.617  1.00  0.00    -0.321 C  
HETATM    4  O   UNL     1     -11.937  11.325  66.628  1.00  0.00    -0.197 OA 
BRANCH   3   5
HETATM    5  C   UNL     1     -11.507  11.261  68.925  1.00  0.00    -0.363 A  
HETATM    6  C   UNL     1     -10.328  10.533  69.163  1.00  0.00    -0.240 A  
HETATM    7  C   UNL     1     -10.186   9.781  70.327  1.00  0.00    -0.289 A  
HETATM    8  C   UNL     1     -11.213   9.737  71.266  1.00  0.00    -0.417 A  
HETATM    9 CL   UNL     1      -8.737   8.897  70.602  1.00  0.00    -0.203 Cl 
HETATM   10  C   UNL     1     -12.373  10.481  71.055  1.00  0.00    -0.503 A  
HETATM   11  C   UNL     1     -12.515  11.255  69.897  1.00  0.00    -0.220 A  
ENDBRANCH   3   5
ENDBRANCH   2   3
BRANCH   2  12
HETATM   12  N   UNL     1     -12.179  14.269  68.433  1.00  0.00    -0.595 NA 
HETATM   13  H   UNL     1     -13.179  14.073  68.469  1.00  0.00     0.000 HD 
HETATM   14  C   UNL     1     -11.590  15.322  69.289  1.00  0.00    -0.332 C  
HETATM   15  C   UNL     1     -11.379  16.631  68.511  1.00  0.00    -0.152 C  
HETATM   16  C   UNL     1     -10.286  14.896  69.977  1.00  0.00    -0.013 C  
HETATM   17  C   UNL     1     -12.630  15.627  70.393  1.00  0.00    -0.376 C  
ENDBRANCH   2  12
TORSDOF 3
ENDMDL
MODEL      106
REMARK 921   NORMALIZED FREE ENERGY PREDICTED BY IDOCK:   -4.21 KCAL/MOL
REMARK 922        TOTAL FREE ENERGY PREDICTED BY IDOCK:   -5.42 KCAL/MOL
REMARK 923 INTER-LIGAND FREE ENERGY PREDICTED BY IDOCK:   -5.01 KCAL/MOL
REMARK 924 INTRA-LIGAND FREE ENERGY PREDICTED BY IDOCK:   -0.41 KCAL/MOL
REMARK 927      BINDING AFFINITY PREDICTED BY RF-SCORE:    0.00 PKD
ROOT
HETATM    1  C   UNL     1     -11.141  15.044  65.711  1.00  0.00    -0.346 C  
HETATM    2  C   UNL     1     -11.311  14.375  67.080  1.00  0.00    -0.343 C  
ENDROOT
BRANCH   2   3
HETATM    3  C   UNL     1     -11.339  15.497  68.150  1.00  0.00    -0.345 C  
HETATM    4  O   UNL     1     -12.231  15.573  68.998  1.00  0.00    -0.267 OA 
BRANCH   3   5
HETATM    5  C   UNL     1     -10.242  16.520  68.220  1.00  0.00    -0.268 A  
HETATM    6  C   UNL     1     -10.518  17.801  67.709  1.00  0.00    -0.402 A  
HETATM    7  C   UNL     1      -9.527  18.779  67.683  1.00  0.00    -0.300 A  
HETATM    8  C   UNL     1      -8.248  18.499  68.157  1.00  0.00    -0.315 A  
HETATM    9 CL   UNL     1      -9.883  20.340  67.054  1.00  0.00    -0.584 Cl 
HETATM   10  C   UNL     1      -7.973  17.242  68.695  1.00  0.00    -0.267 A  
HETATM   11  C   UNL     1      -8.970  16.260  68.743  1.00  0.00    -0.243 A  
ENDBRANCH   3   5
ENDBRANCH   2   3
BRANCH   2  12
HETATM   12  N   UNL     1     -10.215  13.421  67.375  1.00  0.00    -0.235 NA 
HETATM   13  H   UNL     1      -9.248  13.742  67.428  1.00  0.00     0.000 HD 
HETATM   14  C   UNL     1     -10.545  11.995  67.591  1.00  0.00    -0.210 C  
HETATM   15  C   UNL     1     -10.737  11.252  66.260  1.00  0.00    -0.312 C  
HETATM   16  C   UNL     1     -11.759  11.776  68.503  1.00  0.00    -0.390 C  
HETATM   17  C   UNL     1      -9.315  11.356  68.279  1.00  0.00    -0.187 C  
ENDBRANCH   2  12
TORSDOF 3
ENDMDL
MODEL      107
REMARK 921   NORMALIZED FREE ENERGY PREDICTED BY IDOCK:   -4.21 KCAL/MOL
REMARK 922        TOTAL FREE ENERGY PREDICTED BY IDOCK:   -5.41 KCAL/MOL
REMARK 923 INTER-LIGAND FREE ENERGY PREDICTED BY IDOCK:   -4.83 KCAL/MOL
REMARK 924 INTRA-LIGAND FREE ENERGY PREDICTED BY IDOCK:   -0.58 KCAL/MOL
REMARK 927      BINDING AFFINITY PREDICTED BY RF-SCORE:    0.00 PKD
ROOT
HETATM    1  C   UNL     1      -8.487  19.973  66.980  1.00  0.00    -0.390 C  
HETATM    2  C   UNL     1      -8.660  18.461  67.165  1.00  0.00    -0.262 C  
ENDROOT
BRANCH   2   3
HETATM    3  C   UNL     1     -10.171  18.183  67.380  1.00  0.00    -0.372 C  
HETATM    4  O   UNL     1     -11.036  19.020  67.112  1.00  0.00    -0.433 OA 
BRANCH   3   5
HETATM    5  C   UNL     1     -10.643  16.852  67.890  1.00  0.00    -0.361 A  
HETATM    6  C   UNL     1     -10.990  15.880  66.935  1.00  0.00    -0.172 A  
HETATM    7  C   UNL     1     -11.496  14.646  67.336  1.00  0.00    -0.369 A  
HETATM    8  C   UNL     1     -11.671  14.362  68.688  1.00  0.00    -0.367 A  
HETATM    9 CL   UNL     1     -11.915  13.468  66.155  1.00  0.00    -0.423 Cl 
HETATM   10  C   UNL     1     -11.300  15.307  69.644  1.00  0.00    -0.304 A  
HETATM   11  C   UNL     1     -10.771  16.542  69.249  1.00  0.00    -0.331 A  
ENDBRANCH   3   5
ENDBRANCH   2   3
BRANCH   2  12
HETATM   12  N   UNL     1      -7.881  17.947  68.317  1.00  0.00    -0.275 NA 
HETATM   13  H   UNL     1      -8.008  18.345  69.248  1.00  0.00     0.000 HD 
HETATM   14  C   UNL     1      -6.916  16.847  68.097  1.00  0.00    -0.162 C  
HETATM   15  C   UNL     1      -5.589  17.366  67.524  1.00  0.00    -0.150 C  
HETATM   16  C   UNL     1      -7.467  15.712  67.223  1.00  0.00    -0.257 C  
HETATM   17  C   UNL     1      -6.594  16.257  69.491  1.00  0.00    -0.202 C  
ENDBRANCH   2  12
TORSDOF 3
ENDMDL
MODEL      108
REMARK 921   NORMALIZED FREE ENERGY PREDICTED BY IDOCK:   -4.18 KCAL/MOL
REMARK 922        TOTAL FREE ENERGY PREDICTED BY IDOCK:   -5.38 KCAL/MOL
REMARK 923 INTER-LIGAND FREE ENERGY PREDICTED BY IDOCK:   -4.77 KCAL/MOL
REMARK 924 INTRA-LIGAND FREE ENERGY PREDICTED BY IDOCK:   -0.61 KCAL/MOL
REMARK 927      BINDING AFFINITY PREDICTED BY RF-SCORE:    0.00 PKD
ROOT
HETATM    1  C   UNL     1      -9.489   6.129  69.708  1.00  0.00    -0.168 C  
HETATM    2  C   UNL     1     -10.107   7.123  70.698  1.00  0.00    -0.191 C  
ENDROOT
BRANCH   2   3
HETATM    3  C   UNL     1     -10.722   8.285  69.874  1.00  0.00    -0.234 C  
HETATM    4  O   UNL     1     -10.536   8.398  68.660  1.00  0.00    -0.196 OA 
BRANCH   3   5
HETATM    5  C   UNL     1     -11.614   9.302  70.526  1.00  0.00    -0.266 A  
HETATM    6  C   UNL     1     -11.497  10.635  70.097  1.00  0.00    -0.411 A  
HETATM    7  C   UNL     1     -12.248  11.640  70.703  1.00  0.00    -0.366 A  
HETATM    8  C   UNL     1     -13.118  11.337  71.746  1.00  0.00    -0.527 A  
HETATM    9 CL   UNL     1     -12.092  13.267  70.165  1.00  0.00    -0.418 Cl 
HETATM   10  C   UNL     1     -13.265  10.013  72.159  1.00  0.00    -0.489 A  
HETATM   11  C   UNL     1     -12.529   8.995  71.540  1.00  0.00    -0.395 A  
ENDBRANCH   3   5
ENDBRANCH   2   3
BRANCH   2  12
HETATM   12  N   UNL     1      -9.106   7.655  71.653  1.00  0.00    -0.133 NA 
HETATM   13  H   UNL     1      -8.447   8.378  71.365  1.00  0.00     0.000 HD 
HETATM   14  C   UNL     1      -9.077   7.121  73.032  1.00  0.00    -0.136 C  
HETATM   15  C   UNL     1      -8.327   5.781  73.104  1.00  0.00    -0.117 C  
HETATM   16  C   UNL     1     -10.466   6.988  73.669  1.00  0.00    -0.414 C  
HETATM   17  C   UNL     1      -8.262   8.127  73.879  1.00  0.00    -0.311 C  
ENDBRANCH   2  12
TORSDOF 3
ENDMDL
MODEL      109
REMARK 921   NORMALIZED FREE ENERGY PREDICTED BY IDOCK:   -4.18 KCAL/MOL
REMARK 922        TOTAL FREE ENERGY PREDICTED BY IDOCK:   -5.38 KCAL/MOL
REMARK 923 INTER-LIGAND FREE ENERGY PREDICTED BY IDOCK:   -4.86 KCAL/MOL
REMARK 924 INTRA-LIGAND FREE ENERGY PREDICTED BY IDOCK:   -0.52 KCAL/MOL
REMARK 927      BINDING AFFINITY PREDICTED BY RF-SCORE:    0.00 PKD
ROOT
HETATM    1  C   UNL     1     -10.467   8.028  67.393  1.00  0.00    -0.357 C  
HETATM    2  C   UNL     1     -10.763   8.327  68.867  1.00  0.00    -0.062 C  
ENDROOT
BRANCH   2   3
HETATM    3  C   UNL     1     -10.643   9.860  69.069  1.00  0.00    -0.220 C  
HETATM    4  O   UNL     1      -9.806  10.537  68.467  1.00  0.00    -0.156 OA 
BRANCH   3   5
HETATM    5  C   UNL     1     -11.582  10.591  69.984  1.00  0.00    -0.392 A  
HETATM    6  C   UNL     1     -11.655  11.989  69.855  1.00  0.00    -0.315 A  
HETATM    7  C   UNL     1     -12.457  12.737  70.714  1.00  0.00    -0.271 A  
HETATM    8  C   UNL     1     -13.191  12.109  71.717  1.00  0.00    -0.423 A  
HETATM    9 CL   UNL     1     -12.534  14.446  70.541  1.00  0.00    -0.395 Cl 
HETATM   10  C   UNL     1     -13.151  10.720  71.833  1.00  0.00    -0.557 A  
HETATM   11  C   UNL     1     -12.363   9.960  70.960  1.00  0.00    -0.451 A  
ENDBRANCH   3   5
ENDBRANCH   2   3
BRANCH   2  12
HETATM   12  N   UNL     1      -9.830   7.621  69.778  1.00  0.00    -0.179 NA 
HETATM   13  H   UNL     1      -8.888   7.979  69.934  1.00  0.00     0.000 HD 
HETATM   14  C   UNL     1     -10.286   6.389  70.457  1.00  0.00    -0.202 C  
HETATM   15  C   UNL     1     -10.194   5.166  69.531  1.00  0.00    -0.318 C  
HETATM   16  C   UNL     1     -11.696   6.500  71.052  1.00  0.00    -0.402 C  
HETATM   17  C   UNL     1      -9.300   6.135  71.622  1.00  0.00    -0.157 C  
ENDBRANCH   2  12
TORSDOF 3
ENDMDL
MODEL      110
REMARK 921   NORMALIZED FREE ENERGY PREDICTED BY IDOCK:   -4.17 KCAL/MOL
REMARK 922        TOTAL FREE ENERGY PREDICTED BY IDOCK:   -5.37 KCAL/MOL
REMARK 923 INTER-LIGAND FREE ENERGY PREDICTED BY IDOCK:   -4.75 KCAL/MOL
REMARK 924 INTRA-LIGAND FREE ENERGY PREDICTED BY IDOCK:   -0.62 KCAL/MOL
REMARK 927      BINDING AFFINITY PREDICTED BY RF-SCORE:    0.00 PKD
ROOT
HETATM    1  C   UNL     1      -9.665   8.082  66.481  1.00  0.00    -0.297 C  
HETATM    2  C   UNL     1     -10.101   8.133  67.950  1.00  0.00    -0.196 C  
ENDROOT
BRANCH   2   3
HETATM    3  C   UNL     1     -10.762   6.772  68.291  1.00  0.00    -0.235 C  
HETATM    4  O   UNL     1     -11.143   5.990  67.415  1.00  0.00    -0.302 OA 
BRANCH   3   5
HETATM    5  C   UNL     1     -10.926   6.332  69.717  1.00  0.00    -0.444 A  
HETATM    6  C   UNL     1     -10.098   5.291  70.172  1.00  0.00    -0.333 A  
HETATM    7  C   UNL     1     -10.240   4.790  71.465  1.00  0.00    -0.176 A  
HETATM    8  C   UNL     1     -11.209   5.310  72.319  1.00  0.00    -0.181 A  
HETATM    9 CL   UNL     1      -9.218   3.516  72.005  1.00  0.00    -0.158 Cl 
HETATM   10  C   UNL     1     -12.014   6.364  71.888  1.00  0.00    -0.381 A  
HETATM   11  C   UNL     1     -11.863   6.887  70.598  1.00  0.00    -0.418 A  
ENDBRANCH   3   5
ENDBRANCH   2   3
BRANCH   2  12
HETATM   12  N   UNL     1     -11.053   9.239  68.212  1.00  0.00    -0.487 NA 
HETATM   13  H   UNL     1     -11.972   9.246  67.771  1.00  0.00     0.000 HD 
HETATM   14  C   UNL     1     -10.648  10.332  69.123  1.00  0.00    -0.230 C  
HETATM   15  C   UNL     1      -9.759  11.362  68.410  1.00  0.00    -0.203 C  
HETATM   16  C   UNL     1      -9.969   9.841  70.409  1.00  0.00    -0.294 C  
HETATM   17  C   UNL     1     -11.945  11.073  69.527  1.00  0.00    -0.413 C  
ENDBRANCH   2  12
TORSDOF 3
ENDMDL
MODEL      111
REMARK 921   NORMALIZED FREE ENERGY PREDICTED BY IDOCK:   -4.17 KCAL/MOL
REMARK 922        TOTAL FREE ENERGY PREDICTED BY IDOCK:   -5.36 KCAL/MOL
REMARK 923 INTER-LIGAND FREE ENERGY PREDICTED BY IDOCK:   -4.72 KCAL/MOL
REMARK 924 INTRA-LIGAND FREE ENERGY PREDICTED BY IDOCK:   -0.64 KCAL/MOL
REMARK 927      BINDING AFFINITY PREDICTED BY RF-SCORE:    0.00 PKD
ROOT
HETATM    1  C   UNL     1      -7.648  15.566  69.304  1.00  0.00    -0.221 C  
HETATM    2  C   UNL     1      -8.676  15.843  68.201  1.00  0.00    -0.171 C  
ENDROOT
BRANCH   2   3
HETATM    3  C   UNL     1      -8.761  14.576  67.309  1.00  0.00    -0.210 C  
HETATM    4  O   UNL     1      -7.788  13.842  67.119  1.00  0.00    -0.139 OA 
BRANCH   3   5
HETATM    5  C   UNL     1     -10.058  14.170  66.673  1.00  0.00    -0.275 A  
HETATM    6  C   UNL     1      -9.993  13.516  65.430  1.00  0.00    -0.220 A  
HETATM    7  C   UNL     1     -11.160  13.168  64.753  1.00  0.00    -0.330 A  
HETATM    8  C   UNL     1     -12.405  13.470  65.296  1.00  0.00    -0.506 A  
HETATM    9 CL   UNL     1     -11.060  12.368  63.233  1.00  0.00    -0.446 Cl 
HETATM   10  C   UNL     1     -12.482  14.089  66.543  1.00  0.00    -0.351 A  
HETATM   11  C   UNL     1     -11.314  14.423  67.239  1.00  0.00    -0.357 A  
ENDBRANCH   3   5
ENDBRANCH   2   3
BRANCH   2  12
HETATM   12  N   UNL     1      -8.307  17.019  67.376  1.00  0.00    -0.189 NA 
HETATM   13  H   UNL     1      -7.517  16.972  66.732  1.00  0.00     0.000 HD 
HETATM   14  C   UNL     1      -9.100  18.260  67.503  1.00  0.00    -0.253 C  
HETATM   15  C   UNL     1      -8.676  19.080  68.732  1.00  0.00    -0.351 C  
HETATM   16  C   UNL     1     -10.616  18.023  67.518  1.00  0.00    -0.402 C  
HETATM   17  C   UNL     1      -8.770  19.124  66.262  1.00  0.00    -0.304 C  
ENDBRANCH   2  12
TORSDOF 3
ENDMDL
MODEL      112
REMARK 921   NORMALIZED FREE ENERGY PREDICTED BY IDOCK:   -4.15 KCAL/MOL
REMARK 922        TOTAL FREE ENERGY PREDICTED BY IDOCK:   -5.34 KCAL/MOL
REMARK 923 INTER-LIGAND FREE ENERGY PREDICTED BY IDOCK:   -4.68 KCAL/MOL
REMARK 924 INTRA-LIGAND FREE ENERGY PREDICTED BY IDOCK:   -0.66 KCAL/MOL
REMARK 927      BINDING AFFINITY PREDICTED BY RF-SCORE:    0.00 PKD
ROOT
HETATM    1  C   UNL     1      -7.218  11.667  68.477  1.00  0.00    -0.094 C  
HETATM    2  C   UNL     1      -8.651  11.649  67.933  1.00  0.00    -0.150 C  
ENDROOT
BRANCH   2   3
HETATM    3  C   UNL     1      -8.809  12.868  66.986  1.00  0.00    -0.208 C  
HETATM    4  O   UNL     1      -8.130  13.890  67.114  1.00  0.00    -0.162 OA 
BRANCH   3   5
HETATM    5  C   UNL     1      -9.776  12.829  65.838  1.00  0.00    -0.203 A  
HETATM    6  C   UNL     1     -10.524  13.992  65.583  1.00  0.00    -0.328 A  
HETATM    7  C   UNL     1     -11.486  14.005  64.575  1.00  0.00    -0.370 A  
HETATM    8  C   UNL     1     -11.722  12.865  63.812  1.00  0.00    -0.557 A  
HETATM    9 CL   UNL     1     -12.391  15.437  64.276  1.00  0.00    -0.256 Cl 
HETATM   10  C   UNL     1     -10.964  11.716  64.036  1.00  0.00    -0.456 A  
HETATM   11  C   UNL     1      -9.982  11.702  65.034  1.00  0.00    -0.297 A  
ENDBRANCH   3   5
ENDBRANCH   2   3
BRANCH   2  12
HETATM   12  N   UNL     1      -9.660  11.716  69.017  1.00  0.00    -0.413 NA 
HETATM   13  H   UNL     1      -9.766  12.563  69.575  1.00  0.00     0.000 HD 
HETATM   14  C   UNL     1     -10.512  10.535  69.277  1.00  0.00    -0.235 C  
HETATM   15  C   UNL     1      -9.777   9.484  70.124  1.00  0.00    -0.289 C  
HETATM   16  C   UNL     1     -11.077   9.892  68.004  1.00  0.00    -0.220 C  
HETATM   17  C   UNL     1     -11.706  11.030  70.128  1.00  0.00    -0.442 C  
ENDBRANCH   2  12
TORSDOF 3
ENDMDL
MODEL      113
REMARK 921   NORMALIZED FREE ENERGY PREDICTED BY IDOCK:   -4.14 KCAL/MOL
REMARK 922        TOTAL FREE ENERGY PREDICTED BY IDOCK:   -5.34 KCAL/MOL
REMARK 923 INTER-LIGAND FREE ENERGY PREDICTED BY IDOCK:   -4.79 KCAL/MOL
REMARK 924 INTRA-LIGAND FREE ENERGY PREDICTED BY IDOCK:   -0.54 KCAL/MOL
REMARK 927      BINDING AFFINITY PREDICTED BY RF-SCORE:    0.00 PKD
ROOT
HETATM    1  C   UNL     1     -11.773  10.646  70.206  1.00  0.00    -0.433 C  
HETATM    2  C   UNL     1     -11.047  11.466  69.133  1.00  0.00    -0.258 C  
ENDROOT
BRANCH   2   3
HETATM    3  C   UNL     1     -11.559  12.927  69.232  1.00  0.00    -0.310 C  
HETATM    4  O   UNL     1     -12.276  13.309  70.161  1.00  0.00    -0.334 OA 
BRANCH   3   5
HETATM    5  C   UNL     1     -11.159  13.952  68.211  1.00  0.00    -0.280 A  
HETATM    6  C   UNL     1     -11.800  13.905  66.961  1.00  0.00    -0.447 A  
HETATM    7  C   UNL     1     -11.433  14.785  65.945  1.00  0.00    -0.319 A  
HETATM    8  C   UNL     1     -10.421  15.719  66.155  1.00  0.00    -0.326 A  
HETATM    9 CL   UNL     1     -12.228  14.713  64.422  1.00  0.00    -0.511 Cl 
HETATM   10  C   UNL     1      -9.801  15.796  67.401  1.00  0.00    -0.233 A  
HETATM   11  C   UNL     1     -10.179  14.928  68.433  1.00  0.00    -0.231 A  
ENDBRANCH   3   5
ENDBRANCH   2   3
BRANCH   2  12
HETATM   12  N   UNL     1     -11.288  10.937  67.769  1.00  0.00    -0.428 NA 
HETATM   13  H   UNL     1     -12.234  10.895  67.388  1.00  0.00     0.000 HD 
HETATM   14  C   UNL     1     -10.136  10.468  66.968  1.00  0.00    -0.213 C  
HETATM   15  C   UNL     1      -9.711   9.046  67.367  1.00  0.00    -0.217 C  
HETATM   16  C   UNL     1      -8.931  11.416  67.013  1.00  0.00    -0.166 C  
HETATM   17  C   UNL     1     -10.621  10.388  65.501  1.00  0.00    -0.088 C  
ENDBRANCH   2  12
TORSDOF 3
ENDMDL
MODEL      114
REMARK 921   NORMALIZED FREE ENERGY PREDICTED BY IDOCK:   -4.14 KCAL/MOL
REMARK 922        TOTAL FREE ENERGY PREDICTED BY IDOCK:   -5.33 KCAL/MOL
REMARK 923 INTER-LIGAND FREE ENERGY PREDICTED BY IDOCK:   -4.80 KCAL/MOL
REMARK 924 INTRA-LIGAND FREE ENERGY PREDICTED BY IDOCK:   -0.53 KCAL/MOL
REMARK 927      BINDING AFFINITY PREDICTED BY RF-SCORE:    0.00 PKD
ROOT
HETATM    1  C   UNL     1      -8.267  12.267  68.078  1.00  0.00    -0.163 C  
HETATM    2  C   UNL     1      -9.711  12.602  67.689  1.00  0.00    -0.197 C  
ENDROOT
BRANCH   2   3
HETATM    3  C   UNL     1     -10.445  11.263  67.412  1.00  0.00    -0.212 C  
HETATM    4  O   UNL     1     -10.684  10.871  66.267  1.00  0.00    -0.243 OA 
BRANCH   3   5
HETATM    5  C   UNL     1     -10.857  10.364  68.542  1.00  0.00    -0.278 A  
HETATM    6  C   UNL     1     -11.669  10.918  69.547  1.00  0.00    -0.400 A  
HETATM    7  C   UNL     1     -12.036  10.160  70.656  1.00  0.00    -0.332 A  
HETATM    8  C   UNL     1     -11.596   8.846  70.787  1.00  0.00    -0.301 A  
HETATM    9 CL   UNL     1     -13.030  10.854  71.876  1.00  0.00    -0.557 Cl 
HETATM   10  C   UNL     1     -10.817   8.276  69.781  1.00  0.00    -0.186 A  
HETATM   11  C   UNL     1     -10.461   9.026  68.653  1.00  0.00    -0.229 A  
ENDBRANCH   3   5
ENDBRANCH   2   3
BRANCH   2  12
HETATM   12  N   UNL     1      -9.780  13.474  66.492  1.00  0.00    -0.277 NA 
HETATM   13  H   UNL     1      -9.185  13.292  65.684  1.00  0.00     0.000 HD 
HETATM   14  C   UNL     1     -10.724  14.613  66.488  1.00  0.00    -0.312 C  
HETATM   15  C   UNL     1     -10.155  15.821  67.248  1.00  0.00    -0.247 C  
HETATM   16  C   UNL     1     -12.118  14.257  67.021  1.00  0.00    -0.424 C  
HETATM   17  C   UNL     1     -10.879  15.053  65.013  1.00  0.00    -0.439 C  
ENDBRANCH   2  12
TORSDOF 3
ENDMDL
MODEL      115
REMARK 921   NORMALIZED FREE ENERGY PREDICTED BY IDOCK:   -4.12 KCAL/MOL
REMARK 922        TOTAL FREE ENERGY PREDICTED BY IDOCK:   -5.31 KCAL/MOL
REMARK 923 INTER-LIGAND FREE ENERGY PREDICTED BY IDOCK:   -5.33 KCAL/MOL
REMARK 924 INTRA-LIGAND FREE ENERGY PREDICTED BY IDOCK:    0.02 KCAL/MOL
REMARK 927      BINDING AFFINITY PREDICTED BY RF-SCORE:    0.00 PKD
ROOT
HETATM    1  C   UNL     1      -8.810  10.425  69.191  1.00  0.00    -0.180 C  
HETATM    2  C   UNL     1     -10.024   9.813  68.482  1.00  0.00    -0.160 C  
ENDROOT
BRANCH   2   3
HETATM    3  C   UNL     1     -11.146  10.883  68.463  1.00  0.00    -0.256 C  
HETATM    4  O   UNL     1     -11.537  11.405  67.416  1.00  0.00    -0.509 OA 
BRANCH   3   5
HETATM    5  C   UNL     1     -11.835  11.296  69.732  1.00  0.00    -0.437 A  
HETATM    6  C   UNL     1     -12.334  10.275  70.559  1.00  0.00    -0.371 A  
HETATM    7  C   UNL     1     -13.040  10.588  71.719  1.00  0.00    -0.464 A  
HETATM    8  C   UNL     1     -13.267  11.916  72.068  1.00  0.00    -0.461 A  
HETATM    9 CL   UNL     1     -13.643   9.325  72.720  1.00  0.00    -0.371 Cl 
HETATM   10  C   UNL     1     -12.749  12.936  71.271  1.00  0.00    -0.371 A  
HETATM   11  C   UNL     1     -12.021  12.630  70.116  1.00  0.00    -0.375 A  
ENDBRANCH   3   5
ENDBRANCH   2   3
BRANCH   2  12
HETATM   12  N   UNL     1     -10.505   8.585  69.160  1.00  0.00    -0.233 NA 
HETATM   13  H   UNL     1     -11.058   8.648  70.015  1.00  0.00     0.000 HD 
HETATM   14  C   UNL     1     -10.172   7.267  68.577  1.00  0.00    -0.181 C  
HETATM   15  C   UNL     1      -8.748   6.827  68.950  1.00  0.00    -0.129 C  
HETATM   16  C   UNL     1     -10.369   7.199  67.057  1.00  0.00    -0.368 C  
HETATM   17  C   UNL     1     -11.134   6.242  69.225  1.00  0.00    -0.461 C  
ENDBRANCH   2  12
TORSDOF 3
ENDMDL
MODEL      116
REMARK 921   NORMALIZED FREE ENERGY PREDICTED BY IDOCK:   -4.11 KCAL/MOL
REMARK 922        TOTAL FREE ENERGY PREDICTED BY IDOCK:   -5.30 KCAL/MOL
REMARK 923 INTER-LIGAND FREE ENERGY PREDICTED BY IDOCK:   -4.58 KCAL/MOL
REMARK 924 INTRA-LIGAND FREE ENERGY PREDICTED BY IDOCK:   -0.72 KCAL/MOL
REMARK 927      BINDING AFFINITY PREDICTED BY RF-SCORE:    0.00 PKD
ROOT
HETATM    1  C   UNL     1      -7.162  10.316  69.789  1.00  0.00    -0.147 C  
HETATM    2  C   UNL     1      -8.637   9.901  69.739  1.00  0.00    -0.203 C  
ENDROOT
BRANCH   2   3
HETATM    3  C   UNL     1      -8.929   9.052  71.003  1.00  0.00    -0.241 C  
HETATM    4  O   UNL     1      -8.129   8.973  71.939  1.00  0.00    -0.359 OA 
BRANCH   3   5
HETATM    5  C   UNL     1     -10.232   8.321  71.155  1.00  0.00    -0.244 A  
HETATM    6  C   UNL     1     -11.308   9.027  71.720  1.00  0.00    -0.447 A  
HETATM    7  C   UNL     1     -12.527   8.392  71.948  1.00  0.00    -0.347 A  
HETATM    8  C   UNL     1     -12.692   7.048  71.626  1.00  0.00    -0.417 A  
HETATM    9 CL   UNL     1     -13.833   9.272  72.640  1.00  0.00    -0.460 Cl 
HETATM   10  C   UNL     1     -11.641   6.347  71.036  1.00  0.00    -0.386 A  
HETATM   11  C   UNL     1     -10.420   6.984  70.784  1.00  0.00    -0.231 A  
ENDBRANCH   3   5
ENDBRANCH   2   3
BRANCH   2  12
HETATM   12  N   UNL     1      -8.955   9.119  68.519  1.00  0.00    -0.133 NA 
HETATM   13  H   UNL     1      -8.509   8.218  68.351  1.00  0.00     0.000 HD 
HETATM   14  C   UNL     1      -9.929   9.668  67.550  1.00  0.00    -0.183 C  
HETATM   15  C   UNL     1      -9.281  10.710  66.626  1.00  0.00    -0.184 C  
HETATM   16  C   UNL     1     -11.188  10.248  68.206  1.00  0.00    -0.295 C  
HETATM   17  C   UNL     1     -10.365   8.489  66.648  1.00  0.00    -0.303 C  
ENDBRANCH   2  12
TORSDOF 3
ENDMDL
MODEL      117
REMARK 921   NORMALIZED FREE ENERGY PREDICTED BY IDOCK:   -4.11 KCAL/MOL
REMARK 922        TOTAL FREE ENERGY PREDICTED BY IDOCK:   -5.30 KCAL/MOL
REMARK 923 INTER-LIGAND FREE ENERGY PREDICTED BY IDOCK:   -4.88 KCAL/MOL
REMARK 924 INTRA-LIGAND FREE ENERGY PREDICTED BY IDOCK:   -0.42 KCAL/MOL
REMARK 927      BINDING AFFINITY PREDICTED BY RF-SCORE:    0.00 PKD
ROOT
HETATM    1  C   UNL     1     -11.173  15.997  69.050  1.00  0.00    -0.347 C  
HETATM    2  C   UNL     1     -10.820  16.673  67.720  1.00  0.00    -0.292 C  
ENDROOT
BRANCH   2   3
HETATM    3  C   UNL     1     -10.652  15.557  66.657  1.00  0.00    -0.307 C  
HETATM    4  O   UNL     1     -11.035  15.697  65.492  1.00  0.00    -0.335 OA 
BRANCH   3   5
HETATM    5  C   UNL     1      -9.969  14.265  67.000  1.00  0.00    -0.258 A  
HETATM    6  C   UNL     1     -10.786  13.159  67.295  1.00  0.00    -0.262 A  
HETATM    7  C   UNL     1     -10.220  11.947  67.684  1.00  0.00    -0.201 A  
HETATM    8  C   UNL     1      -8.838  11.818  67.792  1.00  0.00    -0.163 A  
HETATM    9 CL   UNL     1     -11.235  10.604  68.040  1.00  0.00    -0.359 Cl 
HETATM   10  C   UNL     1      -8.017  12.898  67.471  1.00  0.00    -0.178 A  
HETATM   11  C   UNL     1      -8.578  14.114  67.060  1.00  0.00    -0.204 A  
ENDBRANCH   3   5
ENDBRANCH   2   3
BRANCH   2  12
HETATM   12  N   UNL     1      -9.576  17.475  67.814  1.00  0.00    -0.264 NA 
HETATM   13  H   UNL     1      -8.688  17.029  68.043  1.00  0.00     0.000 HD 
HETATM   14  C   UNL     1      -9.643  18.932  67.571  1.00  0.00    -0.305 C  
HETATM   15  C   UNL     1     -10.140  19.690  68.812  1.00  0.00    -0.532 C  
HETATM   16  C   UNL     1     -10.481  19.313  66.343  1.00  0.00    -0.563 C  
HETATM   17  C   UNL     1      -8.192  19.405  67.318  1.00  0.00    -0.311 C  
ENDBRANCH   2  12
TORSDOF 3
ENDMDL
MODEL      118
REMARK 921   NORMALIZED FREE ENERGY PREDICTED BY IDOCK:   -4.11 KCAL/MOL
REMARK 922        TOTAL FREE ENERGY PREDICTED BY IDOCK:   -5.29 KCAL/MOL
REMARK 923 INTER-LIGAND FREE ENERGY PREDICTED BY IDOCK:   -4.74 KCAL/MOL
REMARK 924 INTRA-LIGAND FREE ENERGY PREDICTED BY IDOCK:   -0.56 KCAL/MOL
REMARK 927      BINDING AFFINITY PREDICTED BY RF-SCORE:    0.00 PKD
ROOT
HETATM    1  C   UNL     1      -7.904   6.647  70.400  1.00  0.00    -0.106 C  
HETATM    2  C   UNL     1      -9.189   7.012  71.153  1.00  0.00    -0.157 C  
ENDROOT
BRANCH   2   3
HETATM    3  C   UNL     1      -9.250   8.559  71.253  1.00  0.00    -0.200 C  
HETATM    4  O   UNL     1      -8.244   9.243  71.455  1.00  0.00    -0.327 OA 
BRANCH   3   5
HETATM    5  C   UNL     1     -10.547   9.291  71.062  1.00  0.00    -0.386 A  
HETATM    6  C   UNL     1     -10.628  10.195  69.988  1.00  0.00    -0.338 A  
HETATM    7  C   UNL     1     -11.779  10.955  69.790  1.00  0.00    -0.338 A  
HETATM    8  C   UNL     1     -12.861  10.833  70.658  1.00  0.00    -0.377 A  
HETATM    9 CL   UNL     1     -11.860  12.056  68.472  1.00  0.00    -0.384 Cl 
HETATM   10  C   UNL     1     -12.804   9.916  71.707  1.00  0.00    -0.540 A  
HETATM   11  C   UNL     1     -11.658   9.134  71.900  1.00  0.00    -0.430 A  
ENDBRANCH   3   5
ENDBRANCH   2   3
BRANCH   2  12
HETATM   12  N   UNL     1      -9.230   6.415  72.509  1.00  0.00    -0.140 NA 
HETATM   13  H   UNL     1      -8.571   6.714  73.228  1.00  0.00     0.000 HD 
HETATM   14  C   UNL     1     -10.243   5.378  72.805  1.00  0.00    -0.187 C  
HETATM   15  C   UNL     1      -9.806   3.998  72.289  1.00  0.00    -0.224 C  
HETATM   16  C   UNL     1     -11.645   5.721  72.285  1.00  0.00    -0.300 C  
HETATM   17  C   UNL     1     -10.324   5.266  74.346  1.00  0.00    -0.302 C  
ENDBRANCH   2  12
TORSDOF 3
ENDMDL
MODEL      119
REMARK 921   NORMALIZED FREE ENERGY PREDICTED BY IDOCK:   -4.09 KCAL/MOL
REMARK 922        TOTAL FREE ENERGY PREDICTED BY IDOCK:   -5.27 KCAL/MOL
REMARK 923 INTER-LIGAND FREE ENERGY PREDICTED BY IDOCK:   -4.53 KCAL/MOL
REMARK 924 INTRA-LIGAND FREE ENERGY PREDICTED BY IDOCK:   -0.75 KCAL/MOL
REMARK 927      BINDING AFFINITY PREDICTED BY RF-SCORE:    0.00 PKD
ROOT
HETATM    1  C   UNL     1      -9.069  15.380  66.472  1.00  0.00    -0.334 C  
HETATM    2  C   UNL     1      -9.726  13.997  66.405  1.00  0.00    -0.296 C  
ENDROOT
BRANCH   2   3
HETATM    3  C   UNL     1      -8.706  12.966  66.956  1.00  0.00    -0.195 C  
HETATM    4  O   UNL     1      -7.578  13.296  67.332  1.00  0.00    -0.159 OA 
BRANCH   3   5
HETATM    5  C   UNL     1      -9.075  11.518  67.094  1.00  0.00    -0.167 A  
HETATM    6  C   UNL     1      -9.807  11.142  68.234  1.00  0.00    -0.195 A  
HETATM    7  C   UNL     1     -10.128   9.805  68.458  1.00  0.00    -0.166 A  
HETATM    8  C   UNL     1      -9.722   8.823  67.559  1.00  0.00    -0.214 A  
HETATM    9 CL   UNL     1     -11.025   9.364  69.858  1.00  0.00    -0.252 Cl 
HETATM   10  C   UNL     1      -9.023   9.188  66.409  1.00  0.00    -0.182 A  
HETATM   11  C   UNL     1      -8.715  10.533  66.166  1.00  0.00    -0.167 A  
ENDBRANCH   3   5
ENDBRANCH   2   3
BRANCH   2  12
HETATM   12  N   UNL     1     -10.119  13.632  65.023  1.00  0.00    -0.562 NA 
HETATM   13  H   UNL     1      -9.412  13.511  64.298  1.00  0.00     0.000 HD 
HETATM   14  C   UNL     1     -11.552  13.444  64.712  1.00  0.00    -0.339 C  
HETATM   15  C   UNL     1     -12.261  14.788  64.481  1.00  0.00    -0.443 C  
HETATM   16  C   UNL     1     -12.307  12.618  65.761  1.00  0.00    -0.323 C  
HETATM   17  C   UNL     1     -11.617  12.676  63.370  1.00  0.00    -0.536 C  
ENDBRANCH   2  12
TORSDOF 3
ENDMDL
MODEL      120
REMARK 921   NORMALIZED FREE ENERGY PREDICTED BY IDOCK:   -4.08 KCAL/MOL
REMARK 922        TOTAL FREE ENERGY PREDICTED BY IDOCK:   -5.26 KCAL/MOL
REMARK 923 INTER-LIGAND FREE ENERGY PREDICTED BY IDOCK:   -5.52 KCAL/MOL
REMARK 924 INTRA-LIGAND FREE ENERGY PREDICTED BY IDOCK:    0.26 KCAL/MOL
REMARK 927      BINDING AFFINITY PREDICTED BY RF-SCORE:    0.00 PKD
ROOT
HETATM    1  C   UNL     1     -10.209   9.946  70.479  1.00  0.00    -0.257 C  
HETATM    2  C   UNL     1     -11.536   9.211  70.706  1.00  0.00    -0.282 C  
ENDROOT
BRANCH   2   3
HETATM    3  C   UNL     1     -12.553  10.241  71.264  1.00  0.00    -0.418 C  
HETATM    4  O   UNL     1     -13.428   9.925  72.074  1.00  0.00    -0.413 OA 
BRANCH   3   5
HETATM    5  C   UNL     1     -12.480  11.687  70.866  1.00  0.00    -0.440 A  
HETATM    6  C   UNL     1     -12.890  12.640  71.814  1.00  0.00    -0.343 A  
HETATM    7  C   UNL     1     -12.909  13.995  71.490  1.00  0.00    -0.362 A  
HETATM    8  C   UNL     1     -12.529  14.420  70.220  1.00  0.00    -0.413 A  
HETATM    9 CL   UNL     1     -13.414  15.148  72.662  1.00  0.00    -0.524 Cl 
HETATM   10  C   UNL     1     -12.090  13.486  69.283  1.00  0.00    -0.335 A  
HETATM   11  C   UNL     1     -12.049  12.125  69.608  1.00  0.00    -0.283 A  
ENDBRANCH   3   5
ENDBRANCH   2   3
BRANCH   2  12
HETATM   12  N   UNL     1     -11.391   8.078  71.651  1.00  0.00    -0.253 NA 
HETATM   13  H   UNL     1     -11.644   8.187  72.633  1.00  0.00     0.000 HD 
HETATM   14  C   UNL     1     -10.875   6.787  71.148  1.00  0.00    -0.238 C  
HETATM   15  C   UNL     1      -9.342   6.795  71.037  1.00  0.00    -0.160 C  
HETATM   16  C   UNL     1     -11.503   6.350  69.818  1.00  0.00    -0.468 C  
HETATM   17  C   UNL     1     -11.234   5.722  72.213  1.00  0.00    -0.333 C  
ENDBRANCH   2  12
TORSDOF 3
ENDMDL
MODEL      121
REMARK 921   NORMALIZED FREE ENERGY PREDICTED BY IDOCK:   -4.07 KCAL/MOL
REMARK 922        TOTAL FREE ENERGY PREDICTED BY IDOCK:   -5.25 KCAL/MOL
REMARK 923 INTER-LIGAND FREE ENERGY PREDICTED BY IDOCK:   -4.76 KCAL/MOL
REMARK 924 INTRA-LIGAND FREE ENERGY PREDICTED BY IDOCK:   -0.49 KCAL/MOL
REMARK 927      BINDING AFFINITY PREDICTED BY RF-SCORE:    0.00 PKD
ROOT
HETATM    1  C   UNL     1     -12.528  11.641  70.757  1.00  0.00    -0.425 C  
HETATM    2  C   UNL     1     -11.477  10.780  70.047  1.00  0.00    -0.331 C  
ENDROOT
BRANCH   2   3
HETATM    3  C   UNL     1     -11.285  11.355  68.619  1.00  0.00    -0.243 C  
HETATM    4  O   UNL     1     -12.146  11.237  67.743  1.00  0.00    -0.631 OA 
BRANCH   3   5
HETATM    5  C   UNL     1     -10.047  12.124  68.261  1.00  0.00    -0.210 A  
HETATM    6  C   UNL     1     -10.218  13.380  67.651  1.00  0.00    -0.228 A  
HETATM    7  C   UNL     1      -9.113  14.119  67.235  1.00  0.00    -0.213 A  
HETATM    8  C   UNL     1      -7.825  13.620  67.410  1.00  0.00    -0.162 A  
HETATM    9 CL   UNL     1      -9.341  15.653  66.491  1.00  0.00    -0.277 Cl 
HETATM   10  C   UNL     1      -7.643  12.390  68.042  1.00  0.00    -0.128 A  
HETATM   11  C   UNL     1      -8.748  11.651  68.483  1.00  0.00    -0.130 A  
ENDBRANCH   3   5
ENDBRANCH   2   3
BRANCH   2  12
HETATM   12  N   UNL     1     -11.884   9.356  69.969  1.00  0.00    -0.459 NA 
HETATM   13  H   UNL     1     -12.557   9.047  69.267  1.00  0.00     0.000 HD 
HETATM   14  C   UNL     1     -11.298   8.390  70.923  1.00  0.00    -0.268 C  
HETATM   15  C   UNL     1     -12.006   8.442  72.286  1.00  0.00    -0.455 C  
HETATM   16  C   UNL     1      -9.783   8.546  71.104  1.00  0.00    -0.257 C  
HETATM   17  C   UNL     1     -11.562   6.980  70.344  1.00  0.00    -0.341 C  
ENDBRANCH   2  12
TORSDOF 3
ENDMDL
MODEL      122
REMARK 921   NORMALIZED FREE ENERGY PREDICTED BY IDOCK:   -4.07 KCAL/MOL
REMARK 922        TOTAL FREE ENERGY PREDICTED BY IDOCK:   -5.25 KCAL/MOL
REMARK 923 INTER-LIGAND FREE ENERGY PREDICTED BY IDOCK:   -4.66 KCAL/MOL
REMARK 924 INTRA-LIGAND FREE ENERGY PREDICTED BY IDOCK:   -0.60 KCAL/MOL
REMARK 927      BINDING AFFINITY PREDICTED BY RF-SCORE:    0.00 PKD
ROOT
HETATM    1  C   UNL     1      -7.134  16.968  69.062  1.00  0.00    -0.233 C  
HETATM    2  C   UNL     1      -8.298  17.130  68.078  1.00  0.00    -0.218 C  
ENDROOT
BRANCH   2   3
HETATM    3  C   UNL     1      -8.067  16.135  66.910  1.00  0.00    -0.240 C  
HETATM    4  O   UNL     1      -6.970  16.013  66.360  1.00  0.00    -0.070 OA 
BRANCH   3   5
HETATM    5  C   UNL     1      -9.175  15.243  66.430  1.00  0.00    -0.342 A  
HETATM    6  C   UNL     1      -9.361  14.023  67.102  1.00  0.00    -0.244 A  
HETATM    7  C   UNL     1     -10.329  13.119  66.669  1.00  0.00    -0.265 A  
HETATM    8  C   UNL     1     -11.118  13.410  65.560  1.00  0.00    -0.296 A  
HETATM    9 CL   UNL     1     -10.543  11.630  67.505  1.00  0.00    -0.231 Cl 
HETATM   10  C   UNL     1     -10.964  14.631  64.905  1.00  0.00    -0.419 A  
HETATM   11  C   UNL     1     -10.008  15.554  65.347  1.00  0.00    -0.339 A  
ENDBRANCH   3   5
ENDBRANCH   2   3
BRANCH   2  12
HETATM   12  N   UNL     1      -8.397  18.513  67.553  1.00  0.00    -0.255 NA 
HETATM   13  H   UNL     1      -7.594  18.956  67.105  1.00  0.00     0.000 HD 
HETATM   14  C   UNL     1      -9.677  19.242  67.689  1.00  0.00    -0.328 C  
HETATM   15  C   UNL     1      -9.840  19.841  69.095  1.00  0.00    -0.368 C  
HETATM   16  C   UNL     1     -10.906  18.400  67.323  1.00  0.00    -0.296 C  
HETATM   17  C   UNL     1      -9.612  20.436  66.707  1.00  0.00    -0.512 C  
ENDBRANCH   2  12
TORSDOF 3
ENDMDL
MODEL      123
REMARK 921   NORMALIZED FREE ENERGY PREDICTED BY IDOCK:   -4.06 KCAL/MOL
REMARK 922        TOTAL FREE ENERGY PREDICTED BY IDOCK:   -5.24 KCAL/MOL
REMARK 923 INTER-LIGAND FREE ENERGY PREDICTED BY IDOCK:   -4.70 KCAL/MOL
REMARK 924 INTRA-LIGAND FREE ENERGY PREDICTED BY IDOCK:   -0.53 KCAL/MOL
REMARK 927      BINDING AFFINITY PREDICTED BY RF-SCORE:    0.00 PKD
ROOT
HETATM    1  C   UNL     1     -12.222  11.988  63.385  1.00  0.00    -0.627 C  
HETATM    2  C   UNL     1     -11.139  12.073  64.467  1.00  0.00    -0.331 C  
ENDROOT
BRANCH   2   3
HETATM    3  C   UNL     1     -10.146  10.905  64.230  1.00  0.00    -0.351 C  
HETATM    4  O   UNL     1      -9.880  10.490  63.099  1.00  0.00    -0.319 OA 
BRANCH   3   5
HETATM    5  C   UNL     1      -9.431  10.259  65.381  1.00  0.00    -0.287 A  
HETATM    6  C   UNL     1      -8.127  10.701  65.664  1.00  0.00    -0.146 A  
HETATM    7  C   UNL     1      -7.382  10.101  66.677  1.00  0.00    -0.106 A  
HETATM    8  C   UNL     1      -7.918   9.051  67.417  1.00  0.00    -0.100 A  
HETATM    9 CL   UNL     1      -5.788  10.656  67.009  1.00  0.00    -0.051 Cl 
HETATM   10  C   UNL     1      -9.221   8.625  67.166  1.00  0.00    -0.175 A  
HETATM   11  C   UNL     1      -9.984   9.237  66.163  1.00  0.00    -0.348 A  
ENDBRANCH   3   5
ENDBRANCH   2   3
BRANCH   2  12
HETATM   12  N   UNL     1     -11.707  11.986  65.834  1.00  0.00    -0.473 NA 
HETATM   13  H   UNL     1     -12.308  11.204  66.096  1.00  0.00     0.000 HD 
HETATM   14  C   UNL     1     -11.390  13.050  66.811  1.00  0.00    -0.324 C  
HETATM   15  C   UNL     1     -12.272  14.291  66.601  1.00  0.00    -0.411 C  
HETATM   16  C   UNL     1      -9.908  13.447  66.828  1.00  0.00    -0.265 C  
HETATM   17  C   UNL     1     -11.745  12.488  68.208  1.00  0.00    -0.390 C  
ENDBRANCH   2  12
TORSDOF 3
ENDMDL
MODEL      124
REMARK 921   NORMALIZED FREE ENERGY PREDICTED BY IDOCK:   -4.04 KCAL/MOL
REMARK 922        TOTAL FREE ENERGY PREDICTED BY IDOCK:   -5.22 KCAL/MOL
REMARK 923 INTER-LIGAND FREE ENERGY PREDICTED BY IDOCK:   -4.49 KCAL/MOL
REMARK 924 INTRA-LIGAND FREE ENERGY PREDICTED BY IDOCK:   -0.73 KCAL/MOL
REMARK 927      BINDING AFFINITY PREDICTED BY RF-SCORE:    0.00 PKD
ROOT
HETATM    1  C   UNL     1     -11.950  11.721  63.791  1.00  0.00    -0.468 C  
HETATM    2  C   UNL     1     -10.935  11.861  64.932  1.00  0.00    -0.313 C  
ENDROOT
BRANCH   2   3
HETATM    3  C   UNL     1     -10.063  10.578  64.943  1.00  0.00    -0.333 C  
HETATM    4  O   UNL     1      -9.741   9.995  63.905  1.00  0.00    -0.257 OA 
BRANCH   3   5
HETATM    5  C   UNL     1      -9.538  10.018  66.233  1.00  0.00    -0.256 A  
HETATM    6  C   UNL     1     -10.215   8.916  66.784  1.00  0.00    -0.348 A  
HETATM    7  C   UNL     1      -9.821   8.386  68.011  1.00  0.00    -0.169 A  
HETATM    8  C   UNL     1      -8.755   8.946  68.709  1.00  0.00    -0.137 A  
HETATM    9 CL   UNL     1     -10.662   7.038  68.669  1.00  0.00    -0.234 Cl 
HETATM   10  C   UNL     1      -8.056  10.018  68.157  1.00  0.00    -0.108 A  
HETATM   11  C   UNL     1      -8.433  10.543  66.915  1.00  0.00    -0.125 A  
ENDBRANCH   3   5
ENDBRANCH   2   3
BRANCH   2  12
HETATM   12  N   UNL     1     -11.596  12.037  66.248  1.00  0.00    -0.486 NA 
HETATM   13  H   UNL     1     -12.162  11.288  66.647  1.00  0.00     0.000 HD 
HETATM   14  C   UNL     1     -11.422  13.315  66.971  1.00  0.00    -0.339 C  
HETATM   15  C   UNL     1     -12.366  14.402  66.434  1.00  0.00    -0.298 C  
HETATM   16  C   UNL     1      -9.975  13.824  66.982  1.00  0.00    -0.251 C  
HETATM   17  C   UNL     1     -11.842  13.052  68.438  1.00  0.00    -0.370 C  
ENDBRANCH   2  12
TORSDOF 3
ENDMDL
MODEL      125
REMARK 921   NORMALIZED FREE ENERGY PREDICTED BY IDOCK:   -4.04 KCAL/MOL
REMARK 922        TOTAL FREE ENERGY PREDICTED BY IDOCK:   -5.22 KCAL/MOL
REMARK 923 INTER-LIGAND FREE ENERGY PREDICTED BY IDOCK:   -4.99 KCAL/MOL
REMARK 924 INTRA-LIGAND FREE ENERGY PREDICTED BY IDOCK:   -0.23 KCAL/MOL
REMARK 927      BINDING AFFINITY PREDICTED BY RF-SCORE:    0.00 PKD
ROOT
HETATM    1  C   UNL     1     -11.020  10.179  67.584  1.00  0.00    -0.331 C  
HETATM    2  C   UNL     1     -10.483  11.322  66.715  1.00  0.00    -0.248 C  
ENDROOT
BRANCH   2   3
HETATM    3  C   UNL     1     -11.581  12.415  66.646  1.00  0.00    -0.385 C  
HETATM    4  O   UNL     1     -12.512  12.359  65.839  1.00  0.00    -0.583 OA 
BRANCH   3   5
HETATM    5  C   UNL     1     -11.573  13.573  67.601  1.00  0.00    -0.374 A  
HETATM    6  C   UNL     1     -11.086  14.802  67.124  1.00  0.00    -0.333 A  
HETATM    7  C   UNL     1     -10.991  15.902  67.975  1.00  0.00    -0.336 A  
HETATM    8  C   UNL     1     -11.371  15.794  69.310  1.00  0.00    -0.350 A  
HETATM    9 CL   UNL     1     -10.392  17.398  67.374  1.00  0.00    -0.334 Cl 
HETATM   10  C   UNL     1     -11.885  14.589  69.785  1.00  0.00    -0.367 A  
HETATM   11  C   UNL     1     -12.003  13.485  68.931  1.00  0.00    -0.378 A  
ENDBRANCH   3   5
ENDBRANCH   2   3
BRANCH   2  12
HETATM   12  N   UNL     1     -10.134  10.867  65.347  1.00  0.00    -0.262 NA 
HETATM   13  H   UNL     1     -10.768  11.039  64.567  1.00  0.00     0.000 HD 
HETATM   14  C   UNL     1      -8.854  10.158  65.132  1.00  0.00    -0.183 C  
HETATM   15  C   UNL     1      -8.956   8.675  65.522  1.00  0.00    -0.209 C  
HETATM   16  C   UNL     1      -7.662  10.814  65.840  1.00  0.00    -0.118 C  
HETATM   17  C   UNL     1      -8.579  10.196  63.610  1.00  0.00    -0.199 C  
ENDBRANCH   2  12
TORSDOF 3
ENDMDL
MODEL      126
REMARK 921   NORMALIZED FREE ENERGY PREDICTED BY IDOCK:   -4.03 KCAL/MOL
REMARK 922        TOTAL FREE ENERGY PREDICTED BY IDOCK:   -5.20 KCAL/MOL
REMARK 923 INTER-LIGAND FREE ENERGY PREDICTED BY IDOCK:   -4.69 KCAL/MOL
REMARK 924 INTRA-LIGAND FREE ENERGY PREDICTED BY IDOCK:   -0.51 KCAL/MOL
REMARK 927      BINDING AFFINITY PREDICTED BY RF-SCORE:    0.00 PKD
ROOT
HETATM    1  C   UNL     1      -8.797  12.549  68.114  1.00  0.00    -0.191 C  
HETATM    2  C   UNL     1      -9.303  11.111  67.952  1.00  0.00    -0.161 C  
ENDROOT
BRANCH   2   3
HETATM    3  C   UNL     1      -9.144  10.400  69.321  1.00  0.00    -0.175 C  
HETATM    4  O   UNL     1      -8.041  10.069  69.763  1.00  0.00    -0.159 OA 
BRANCH   3   5
HETATM    5  C   UNL     1     -10.339  10.124  70.187  1.00  0.00    -0.280 A  
HETATM    6  C   UNL     1     -10.224   9.096  71.139  1.00  0.00    -0.384 A  
HETATM    7  C   UNL     1     -11.314   8.744  71.933  1.00  0.00    -0.361 A  
HETATM    8  C   UNL     1     -12.533   9.401  71.786  1.00  0.00    -0.471 A  
HETATM    9 CL   UNL     1     -11.155   7.484  73.093  1.00  0.00    -0.424 Cl 
HETATM   10  C   UNL     1     -12.648  10.443  70.867  1.00  0.00    -0.478 A  
HETATM   11  C   UNL     1     -11.551  10.816  70.081  1.00  0.00    -0.424 A  
ENDBRANCH   3   5
ENDBRANCH   2   3
BRANCH   2  12
HETATM   12  N   UNL     1      -8.556  10.371  66.906  1.00  0.00    -0.127 NA 
HETATM   13  H   UNL     1      -7.541  10.452  66.839  1.00  0.00     0.000 HD 
HETATM   14  C   UNL     1      -9.305   9.515  65.961  1.00  0.00    -0.216 C  
HETATM   15  C   UNL     1      -9.933  10.340  64.826  1.00  0.00    -0.392 C  
HETATM   16  C   UNL     1     -10.369   8.639  66.635  1.00  0.00    -0.303 C  
HETATM   17  C   UNL     1      -8.268   8.575  65.300  1.00  0.00    -0.149 C  
ENDBRANCH   2  12
TORSDOF 3
ENDMDL
MODEL      127
REMARK 921   NORMALIZED FREE ENERGY PREDICTED BY IDOCK:   -4.02 KCAL/MOL
REMARK 922        TOTAL FREE ENERGY PREDICTED BY IDOCK:   -5.19 KCAL/MOL
REMARK 923 INTER-LIGAND FREE ENERGY PREDICTED BY IDOCK:   -4.61 KCAL/MOL
REMARK 924 INTRA-LIGAND FREE ENERGY PREDICTED BY IDOCK:   -0.58 KCAL/MOL
REMARK 927      BINDING AFFINITY PREDICTED BY RF-SCORE:    0.00 PKD
ROOT
HETATM    1  C   UNL     1      -8.016  12.365  67.532  1.00  0.00    -0.173 C  
HETATM    2  C   UNL     1      -9.477  12.030  67.853  1.00  0.00    -0.196 C  
ENDROOT
BRANCH   2   3
HETATM    3  C   UNL     1      -9.604  10.485  67.904  1.00  0.00    -0.150 C  
HETATM    4  O   UNL     1      -9.115   9.758  67.035  1.00  0.00    -0.136 OA 
BRANCH   3   5
HETATM    5  C   UNL     1     -10.299   9.808  69.049  1.00  0.00    -0.222 A  
HETATM    6  C   UNL     1     -10.335   8.403  69.045  1.00  0.00    -0.231 A  
HETATM    7  C   UNL     1     -11.018   7.711  70.043  1.00  0.00    -0.228 A  
HETATM    8  C   UNL     1     -11.680   8.404  71.053  1.00  0.00    -0.296 A  
HETATM    9 CL   UNL     1     -11.052   5.991  70.023  1.00  0.00    -0.447 Cl 
HETATM   10  C   UNL     1     -11.624   9.797  71.085  1.00  0.00    -0.469 A  
HETATM   11  C   UNL     1     -10.922  10.498  70.097  1.00  0.00    -0.338 A  
ENDBRANCH   3   5
ENDBRANCH   2   3
BRANCH   2  12
HETATM   12  N   UNL     1     -10.411  12.583  66.843  1.00  0.00    -0.228 NA 
HETATM   13  H   UNL     1     -10.486  12.158  65.919  1.00  0.00     0.000 HD 
HETATM   14  C   UNL     1     -11.233  13.761  67.196  1.00  0.00    -0.311 C  
HETATM   15  C   UNL     1     -10.434  15.067  67.066  1.00  0.00    -0.278 C  
HETATM   16  C   UNL     1     -11.878  13.667  68.585  1.00  0.00    -0.409 C  
HETATM   17  C   UNL     1     -12.371  13.835  66.150  1.00  0.00    -0.496 C  
ENDBRANCH   2  12
TORSDOF 3
ENDMDL
MODEL      128
REMARK 921   NORMALIZED FREE ENERGY PREDICTED BY IDOCK:   -4.00 KCAL/MOL
REMARK 922        TOTAL FREE ENERGY PREDICTED BY IDOCK:   -5.17 KCAL/MOL
REMARK 923 INTER-LIGAND FREE ENERGY PREDICTED BY IDOCK:   -4.64 KCAL/MOL
REMARK 924 INTRA-LIGAND FREE ENERGY PREDICTED BY IDOCK:   -0.53 KCAL/MOL
REMARK 927      BINDING AFFINITY PREDICTED BY RF-SCORE:    0.00 PKD
ROOT
HETATM    1  C   UNL     1     -11.107  16.071  64.717  1.00  0.00    -0.378 C  
HETATM    2  C   UNL     1     -10.141  15.426  65.717  1.00  0.00    -0.363 C  
ENDROOT
BRANCH   2   3
HETATM    3  C   UNL     1     -10.729  14.047  66.115  1.00  0.00    -0.289 C  
HETATM    4  O   UNL     1     -11.501  13.914  67.068  1.00  0.00    -0.315 OA 
BRANCH   3   5
HETATM    5  C   UNL     1     -10.409  12.816  65.318  1.00  0.00    -0.313 A  
HETATM    6  C   UNL     1      -9.429  11.948  65.831  1.00  0.00    -0.227 A  
HETATM    7  C   UNL     1      -9.037  10.821  65.112  1.00  0.00    -0.203 A  
HETATM    8  C   UNL     1      -9.606  10.544  63.873  1.00  0.00    -0.363 A  
HETATM    9 CL   UNL     1      -7.837   9.771  65.757  1.00  0.00    -0.106 Cl 
HETATM   10  C   UNL     1     -10.602  11.380  63.368  1.00  0.00    -0.435 A  
HETATM   11  C   UNL     1     -11.016  12.503  64.095  1.00  0.00    -0.425 A  
ENDBRANCH   3   5
ENDBRANCH   2   3
BRANCH   2  12
HETATM   12  N   UNL     1      -9.948  16.263  66.926  1.00  0.00    -0.253 NA 
HETATM   13  H   UNL     1     -10.745  16.522  67.509  1.00  0.00     0.000 HD 
HETATM   14  C   UNL     1      -8.584  16.716  67.274  1.00  0.00    -0.191 C  
HETATM   15  C   UNL     1      -8.168  17.942  66.447  1.00  0.00    -0.287 C  
HETATM   16  C   UNL     1      -7.523  15.613  67.163  1.00  0.00    -0.253 C  
HETATM   17  C   UNL     1      -8.635  17.177  68.750  1.00  0.00    -0.236 C  
ENDBRANCH   2  12
TORSDOF 3
ENDMDL
MODEL      129
REMARK 921   NORMALIZED FREE ENERGY PREDICTED BY IDOCK:   -3.99 KCAL/MOL
REMARK 922        TOTAL FREE ENERGY PREDICTED BY IDOCK:   -5.16 KCAL/MOL
REMARK 923 INTER-LIGAND FREE ENERGY PREDICTED BY IDOCK:   -4.64 KCAL/MOL
REMARK 924 INTRA-LIGAND FREE ENERGY PREDICTED BY IDOCK:   -0.51 KCAL/MOL
REMARK 927      BINDING AFFINITY PREDICTED BY RF-SCORE:    0.00 PKD
ROOT
HETATM    1  C   UNL     1     -10.326   8.583  68.761  1.00  0.00    -0.233 C  
HETATM    2  C   UNL     1     -10.846   7.643  69.854  1.00  0.00    -0.235 C  
ENDROOT
BRANCH   2   3
HETATM    3  C   UNL     1     -10.792   6.198  69.294  1.00  0.00    -0.351 C  
HETATM    4  O   UNL     1     -11.123   5.930  68.136  1.00  0.00    -0.251 OA 
BRANCH   3   5
HETATM    5  C   UNL     1     -10.289   5.064  70.140  1.00  0.00    -0.306 A  
HETATM    6  C   UNL     1     -10.523   5.136  71.525  1.00  0.00    -0.256 A  
HETATM    7  C   UNL     1     -10.028   4.151  72.377  1.00  0.00    -0.166 A  
HETATM    8  C   UNL     1      -9.289   3.086  71.868  1.00  0.00    -0.189 A  
HETATM    9 CL   UNL     1     -10.325   4.254  74.068  1.00  0.00    -0.243 Cl 
HETATM   10  C   UNL     1      -9.078   2.989  70.493  1.00  0.00    -0.190 A  
HETATM   11  C   UNL     1      -9.590   3.964  69.628  1.00  0.00    -0.259 A  
ENDBRANCH   3   5
ENDBRANCH   2   3
BRANCH   2  12
HETATM   12  N   UNL     1     -12.231   7.977  70.265  1.00  0.00    -0.223 NA 
HETATM   13  H   UNL     1     -13.026   7.671  69.703  1.00  0.00     0.000 HD 
HETATM   14  C   UNL     1     -12.443   8.760  71.501  1.00  0.00    -0.326 C  
HETATM   15  C   UNL     1     -12.229  10.263  71.262  1.00  0.00    -0.496 C  
HETATM   16  C   UNL     1     -11.591   8.283  72.685  1.00  0.00    -0.419 C  
HETATM   17  C   UNL     1     -13.931   8.583  71.887  1.00  0.00    -0.498 C  
ENDBRANCH   2  12
TORSDOF 3
ENDMDL
MODEL      130
REMARK 921   NORMALIZED FREE ENERGY PREDICTED BY IDOCK:   -3.99 KCAL/MOL
REMARK 922        TOTAL FREE ENERGY PREDICTED BY IDOCK:   -5.15 KCAL/MOL
REMARK 923 INTER-LIGAND FREE ENERGY PREDICTED BY IDOCK:   -4.90 KCAL/MOL
REMARK 924 INTRA-LIGAND FREE ENERGY PREDICTED BY IDOCK:   -0.25 KCAL/MOL
REMARK 927      BINDING AFFINITY PREDICTED BY RF-SCORE:    0.00 PKD
ROOT
HETATM    1  C   UNL     1     -11.772  11.704  69.098  1.00  0.00    -0.390 C  
HETATM    2  C   UNL     1     -10.697  10.622  69.248  1.00  0.00    -0.238 C  
ENDROOT
BRANCH   2   3
HETATM    3  C   UNL     1      -9.826  10.644  67.965  1.00  0.00    -0.160 C  
HETATM    4  O   UNL     1      -8.875   9.875  67.804  1.00  0.00    -0.128 OA 
BRANCH   3   5
HETATM    5  C   UNL     1     -10.141  11.585  66.838  1.00  0.00    -0.241 A  
HETATM    6  C   UNL     1      -9.650  12.899  66.936  1.00  0.00    -0.240 A  
HETATM    7  C   UNL     1      -9.958  13.842  65.958  1.00  0.00    -0.310 A  
HETATM    8  C   UNL     1     -10.763  13.497  64.876  1.00  0.00    -0.391 A  
HETATM    9 CL   UNL     1      -9.348  15.445  66.094  1.00  0.00    -0.347 Cl 
HETATM   10  C   UNL     1     -11.229  12.189  64.753  1.00  0.00    -0.373 A  
HETATM   11  C   UNL     1     -10.907  11.230  65.721  1.00  0.00    -0.257 A  
ENDBRANCH   3   5
ENDBRANCH   2   3
BRANCH   2  12
HETATM   12  N   UNL     1     -11.284   9.274  69.439  1.00  0.00    -0.436 NA 
HETATM   13  H   UNL     1     -11.737   8.791  68.663  1.00  0.00     0.000 HD 
HETATM   14  C   UNL     1     -11.204   8.639  70.773  1.00  0.00    -0.261 C  
HETATM   15  C   UNL     1     -12.293   9.169  71.718  1.00  0.00    -0.444 C  
HETATM   16  C   UNL     1      -9.823   8.763  71.430  1.00  0.00    -0.353 C  
HETATM   17  C   UNL     1     -11.495   7.134  70.564  1.00  0.00    -0.334 C  
ENDBRANCH   2  12
TORSDOF 3
ENDMDL
MODEL      131
REMARK 921   NORMALIZED FREE ENERGY PREDICTED BY IDOCK:   -3.98 KCAL/MOL
REMARK 922        TOTAL FREE ENERGY PREDICTED BY IDOCK:   -5.14 KCAL/MOL
REMARK 923 INTER-LIGAND FREE ENERGY PREDICTED BY IDOCK:   -4.73 KCAL/MOL
REMARK 924 INTRA-LIGAND FREE ENERGY PREDICTED BY IDOCK:   -0.42 KCAL/MOL
REMARK 927      BINDING AFFINITY PREDICTED BY RF-SCORE:    0.00 PKD
ROOT
HETATM    1  C   UNL     1      -5.788  17.803  66.962  1.00  0.00    -0.170 C  
HETATM    2  C   UNL     1      -7.267  17.555  67.279  1.00  0.00    -0.170 C  
ENDROOT
BRANCH   2   3
HETATM    3  C   UNL     1      -7.547  16.045  67.060  1.00  0.00    -0.230 C  
HETATM    4  O   UNL     1      -6.638  15.214  66.981  1.00  0.00    -0.233 OA 
BRANCH   3   5
HETATM    5  C   UNL     1      -8.954  15.528  66.978  1.00  0.00    -0.249 A  
HETATM    6  C   UNL     1      -9.677  15.802  65.804  1.00  0.00    -0.372 A  
HETATM    7  C   UNL     1     -11.008  15.408  65.686  1.00  0.00    -0.326 A  
HETATM    8  C   UNL     1     -11.640  14.743  66.734  1.00  0.00    -0.333 A  
HETATM    9 CL   UNL     1     -11.877  15.751  64.242  1.00  0.00    -0.269 Cl 
HETATM   10  C   UNL     1     -10.924  14.438  67.890  1.00  0.00    -0.272 A  
HETATM   11  C   UNL     1      -9.579  14.813  68.007  1.00  0.00    -0.209 A  
ENDBRANCH   3   5
ENDBRANCH   2   3
BRANCH   2  12
HETATM   12  N   UNL     1      -8.165  18.366  66.422  1.00  0.00    -0.331 NA 
HETATM   13  H   UNL     1      -8.252  18.164  65.426  1.00  0.00     0.000 HD 
HETATM   14  C   UNL     1      -8.932  19.472  67.034  1.00  0.00    -0.308 C  
HETATM   15  C   UNL     1      -8.071  20.734  67.201  1.00  0.00    -0.244 C  
HETATM   16  C   UNL     1      -9.593  19.099  68.368  1.00  0.00    -0.437 C  
HETATM   17  C   UNL     1     -10.057  19.836  66.035  1.00  0.00    -0.574 C  
ENDBRANCH   2  12
TORSDOF 3
ENDMDL
MODEL      132
REMARK 921   NORMALIZED FREE ENERGY PREDICTED BY IDOCK:   -3.96 KCAL/MOL
REMARK 922        TOTAL FREE ENERGY PREDICTED BY IDOCK:   -5.12 KCAL/MOL
REMARK 923 INTER-LIGAND FREE ENERGY PREDICTED BY IDOCK:   -4.57 KCAL/MOL
REMARK 924 INTRA-LIGAND FREE ENERGY PREDICTED BY IDOCK:   -0.56 KCAL/MOL
REMARK 927      BINDING AFFINITY PREDICTED BY RF-SCORE:    0.00 PKD
ROOT
HETATM    1  C   UNL     1      -8.127   6.636  70.126  1.00  0.00    -0.124 C  
HETATM    2  C   UNL     1      -9.209   6.690  71.211  1.00  0.00    -0.155 C  
ENDROOT
BRANCH   2   3
HETATM    3  C   UNL     1      -9.314   8.159  71.697  1.00  0.00    -0.174 C  
HETATM    4  O   UNL     1      -8.390   8.720  72.291  1.00  0.00    -0.367 OA 
BRANCH   3   5
HETATM    5  C   UNL     1     -10.543   8.975  71.419  1.00  0.00    -0.393 A  
HETATM    6  C   UNL     1     -11.719   8.627  72.106  1.00  0.00    -0.442 A  
HETATM    7  C   UNL     1     -12.912   9.300  71.849  1.00  0.00    -0.411 A  
HETATM    8  C   UNL     1     -12.955  10.321  70.904  1.00  0.00    -0.456 A  
HETATM    9 CL   UNL     1     -14.341   8.862  72.700  1.00  0.00    -0.365 Cl 
HETATM   10  C   UNL     1     -11.788  10.695  70.239  1.00  0.00    -0.430 A  
HETATM   11  C   UNL     1     -10.581  10.037  70.507  1.00  0.00    -0.313 A  
ENDBRANCH   3   5
ENDBRANCH   2   3
BRANCH   2  12
HETATM   12  N   UNL     1      -8.898   5.799  72.354  1.00  0.00    -0.131 NA 
HETATM   13  H   UNL     1      -8.037   5.923  72.889  1.00  0.00     0.000 HD 
HETATM   14  C   UNL     1      -9.853   4.726  72.708  1.00  0.00    -0.144 C  
HETATM   15  C   UNL     1      -9.687   3.499  71.799  1.00  0.00    -0.235 C  
HETATM   16  C   UNL     1     -11.317   5.186  72.720  1.00  0.00    -0.311 C  
HETATM   17  C   UNL     1      -9.490   4.267  74.140  1.00  0.00    -0.120 C  
ENDBRANCH   2  12
TORSDOF 3
ENDMDL
MODEL      133
REMARK 921   NORMALIZED FREE ENERGY PREDICTED BY IDOCK:   -3.96 KCAL/MOL
REMARK 922        TOTAL FREE ENERGY PREDICTED BY IDOCK:   -5.12 KCAL/MOL
REMARK 923 INTER-LIGAND FREE ENERGY PREDICTED BY IDOCK:   -4.39 KCAL/MOL
REMARK 924 INTRA-LIGAND FREE ENERGY PREDICTED BY IDOCK:   -0.74 KCAL/MOL
REMARK 927      BINDING AFFINITY PREDICTED BY RF-SCORE:    0.00 PKD
ROOT
HETATM    1  C   UNL     1     -12.467  15.568  70.308  1.00  0.00    -0.403 C  
HETATM    2  C   UNL     1     -11.515  15.213  69.161  1.00  0.00    -0.306 C  
ENDROOT
BRANCH   2   3
HETATM    3  C   UNL     1     -11.428  13.666  69.084  1.00  0.00    -0.297 C  
HETATM    4  O   UNL     1     -12.111  12.934  69.806  1.00  0.00    -0.299 OA 
BRANCH   3   5
HETATM    5  C   UNL     1     -10.531  12.995  68.085  1.00  0.00    -0.252 A  
HETATM    6  C   UNL     1     -11.049  12.773  66.797  1.00  0.00    -0.314 A  
HETATM    7  C   UNL     1     -10.294  12.098  65.839  1.00  0.00    -0.255 A  
HETATM    8  C   UNL     1      -9.021  11.629  66.149  1.00  0.00    -0.180 A  
HETATM    9 CL   UNL     1     -10.943  11.836  64.268  1.00  0.00    -0.391 Cl 
HETATM   10  C   UNL     1      -8.485  11.871  67.414  1.00  0.00    -0.166 A  
HETATM   11  C   UNL     1      -9.230  12.567  68.374  1.00  0.00    -0.139 A  
ENDBRANCH   3   5
ENDBRANCH   2   3
BRANCH   2  12
HETATM   12  N   UNL     1     -10.162  15.786  69.361  1.00  0.00    -0.243 NA 
HETATM   13  H   UNL     1      -9.593  15.506  70.160  1.00  0.00     0.000 HD 
HETATM   14  C   UNL     1      -9.650  16.771  68.384  1.00  0.00    -0.241 C  
HETATM   15  C   UNL     1     -10.207  18.177  68.653  1.00  0.00    -0.382 C  
HETATM   16  C   UNL     1      -9.895  16.372  66.923  1.00  0.00    -0.266 C  
HETATM   17  C   UNL     1      -8.120  16.855  68.601  1.00  0.00    -0.253 C  
ENDBRANCH   2  12
TORSDOF 3
ENDMDL
MODEL      134
REMARK 921   NORMALIZED FREE ENERGY PREDICTED BY IDOCK:   -3.95 KCAL/MOL
REMARK 922        TOTAL FREE ENERGY PREDICTED BY IDOCK:   -5.11 KCAL/MOL
REMARK 923 INTER-LIGAND FREE ENERGY PREDICTED BY IDOCK:   -4.78 KCAL/MOL
REMARK 924 INTRA-LIGAND FREE ENERGY PREDICTED BY IDOCK:   -0.33 KCAL/MOL
REMARK 927      BINDING AFFINITY PREDICTED BY RF-SCORE:    0.00 PKD
ROOT
HETATM    1  C   UNL     1      -8.387   8.523  68.782  1.00  0.00    -0.122 C  
HETATM    2  C   UNL     1      -9.855   8.099  68.900  1.00  0.00    -0.176 C  
ENDROOT
BRANCH   2   3
HETATM    3  C   UNL     1     -10.489   8.207  67.488  1.00  0.00    -0.256 C  
HETATM    4  O   UNL     1     -11.084   7.263  66.963  1.00  0.00    -0.308 OA 
BRANCH   3   5
HETATM    5  C   UNL     1     -10.437   9.496  66.719  1.00  0.00    -0.263 A  
HETATM    6  C   UNL     1     -11.110  10.603  67.264  1.00  0.00    -0.313 A  
HETATM    7  C   UNL     1     -11.157  11.812  66.573  1.00  0.00    -0.310 A  
HETATM    8  C   UNL     1     -10.543  11.935  65.329  1.00  0.00    -0.320 A  
HETATM    9 CL   UNL     1     -11.984  13.156  67.256  1.00  0.00    -0.413 Cl 
HETATM   10  C   UNL     1      -9.846  10.853  64.793  1.00  0.00    -0.343 A  
HETATM   11  C   UNL     1      -9.777   9.641  65.492  1.00  0.00    -0.372 A  
ENDBRANCH   3   5
ENDBRANCH   2   3
BRANCH   2  12
HETATM   12  N   UNL     1     -10.605   8.946  69.858  1.00  0.00    -0.218 NA 
HETATM   13  H   UNL     1     -10.677   9.953  69.714  1.00  0.00     0.000 HD 
HETATM   14  C   UNL     1     -11.248   8.307  71.027  1.00  0.00    -0.259 C  
HETATM   15  C   UNL     1     -10.239   8.049  72.157  1.00  0.00    -0.308 C  
HETATM   16  C   UNL     1     -12.005   7.018  70.685  1.00  0.00    -0.361 C  
HETATM   17  C   UNL     1     -12.275   9.326  71.578  1.00  0.00    -0.439 C  
ENDBRANCH   2  12
TORSDOF 3
ENDMDL
MODEL      135
REMARK 921   NORMALIZED FREE ENERGY PREDICTED BY IDOCK:   -3.95 KCAL/MOL
REMARK 922        TOTAL FREE ENERGY PREDICTED BY IDOCK:   -5.11 KCAL/MOL
REMARK 923 INTER-LIGAND FREE ENERGY PREDICTED BY IDOCK:   -4.92 KCAL/MOL
REMARK 924 INTRA-LIGAND FREE ENERGY PREDICTED BY IDOCK:   -0.19 KCAL/MOL
REMARK 927      BINDING AFFINITY PREDICTED BY RF-SCORE:    0.00 PKD
ROOT
HETATM    1  C   UNL     1     -11.884  11.395  70.558  1.00  0.00    -0.394 C  
HETATM    2  C   UNL     1     -11.197  10.357  69.662  1.00  0.00    -0.277 C  
ENDROOT
BRANCH   2   3
HETATM    3  C   UNL     1     -11.369  10.820  68.191  1.00  0.00    -0.308 C  
HETATM    4  O   UNL     1     -12.196  11.675  67.865  1.00  0.00    -0.560 OA 
BRANCH   3   5
HETATM    5  C   UNL     1     -10.493  10.267  67.104  1.00  0.00    -0.311 A  
HETATM    6  C   UNL     1     -10.208   8.891  67.140  1.00  0.00    -0.339 A  
HETATM    7  C   UNL     1      -9.350   8.323  66.200  1.00  0.00    -0.188 A  
HETATM    8  C   UNL     1      -8.760   9.114  65.217  1.00  0.00    -0.219 A  
HETATM    9 CL   UNL     1      -9.012   6.638  66.259  1.00  0.00    -0.162 Cl 
HETATM   10  C   UNL     1      -9.062  10.474  65.153  1.00  0.00    -0.227 A  
HETATM   11  C   UNL     1      -9.938  11.047  66.082  1.00  0.00    -0.277 A  
ENDBRANCH   3   5
ENDBRANCH   2   3
BRANCH   2  12
HETATM   12  N   UNL     1     -11.772   9.001  69.837  1.00  0.00    -0.413 NA 
HETATM   13  H   UNL     1     -12.691   8.775  69.457  1.00  0.00     0.000 HD 
HETATM   14  C   UNL     1     -10.992   7.982  70.571  1.00  0.00    -0.247 C  
HETATM   15  C   UNL     1     -11.124   8.155  72.092  1.00  0.00    -0.386 C  
HETATM   16  C   UNL     1      -9.512   7.931  70.167  1.00  0.00    -0.160 C  
HETATM   17  C   UNL     1     -11.623   6.611  70.228  1.00  0.00    -0.454 C  
ENDBRANCH   2  12
TORSDOF 3
ENDMDL
MODEL      136
REMARK 921   NORMALIZED FREE ENERGY PREDICTED BY IDOCK:   -3.94 KCAL/MOL
REMARK 922        TOTAL FREE ENERGY PREDICTED BY IDOCK:   -5.10 KCAL/MOL
REMARK 923 INTER-LIGAND FREE ENERGY PREDICTED BY IDOCK:   -4.58 KCAL/MOL
REMARK 924 INTRA-LIGAND FREE ENERGY PREDICTED BY IDOCK:   -0.52 KCAL/MOL
REMARK 927      BINDING AFFINITY PREDICTED BY RF-SCORE:    0.00 PKD
ROOT
HETATM    1  C   UNL     1     -10.646  16.678  65.701  1.00  0.00    -0.282 C  
HETATM    2  C   UNL     1      -9.917  16.183  66.956  1.00  0.00    -0.258 C  
ENDROOT
BRANCH   2   3
HETATM    3  C   UNL     1     -10.973  15.526  67.883  1.00  0.00    -0.316 C  
HETATM    4  O   UNL     1     -11.814  16.190  68.494  1.00  0.00    -0.300 OA 
BRANCH   3   5
HETATM    5  C   UNL     1     -11.038  14.034  68.038  1.00  0.00    -0.282 A  
HETATM    6  C   UNL     1     -11.623  13.529  69.212  1.00  0.00    -0.369 A  
HETATM    7  C   UNL     1     -11.658  12.157  69.451  1.00  0.00    -0.317 A  
HETATM    8  C   UNL     1     -11.108  11.269  68.531  1.00  0.00    -0.288 A  
HETATM    9 CL   UNL     1     -12.378  11.558  70.894  1.00  0.00    -0.480 Cl 
HETATM   10  C   UNL     1     -10.554  11.756  67.348  1.00  0.00    -0.258 A  
HETATM   11  C   UNL     1     -10.534  13.133  67.092  1.00  0.00    -0.247 A  
ENDBRANCH   3   5
ENDBRANCH   2   3
BRANCH   2  12
HETATM   12  N   UNL     1      -9.230  17.284  67.673  1.00  0.00    -0.228 NA 
HETATM   13  H   UNL     1      -9.767  17.983  68.186  1.00  0.00     0.000 HD 
HETATM   14  C   UNL     1      -7.753  17.353  67.632  1.00  0.00    -0.193 C  
HETATM   15  C   UNL     1      -7.253  17.988  66.325  1.00  0.00    -0.310 C  
HETATM   16  C   UNL     1      -7.067  16.000  67.863  1.00  0.00    -0.151 C  
HETATM   17  C   UNL     1      -7.323  18.303  68.775  1.00  0.00    -0.298 C  
ENDBRANCH   2  12
TORSDOF 3
ENDMDL
MODEL      137
REMARK 921   NORMALIZED FREE ENERGY PREDICTED BY IDOCK:   -3.94 KCAL/MOL
REMARK 922        TOTAL FREE ENERGY PREDICTED BY IDOCK:   -5.10 KCAL/MOL
REMARK 923 INTER-LIGAND FREE ENERGY PREDICTED BY IDOCK:   -4.49 KCAL/MOL
REMARK 924 INTRA-LIGAND FREE ENERGY PREDICTED BY IDOCK:   -0.61 KCAL/MOL
REMARK 927      BINDING AFFINITY PREDICTED BY RF-SCORE:    0.00 PKD
ROOT
HETATM    1  C   UNL     1      -9.263  16.848  66.296  1.00  0.00    -0.299 C  
HETATM    2  C   UNL     1      -9.007  16.476  67.761  1.00  0.00    -0.202 C  
ENDROOT
BRANCH   2   3
HETATM    3  C   UNL     1     -10.296  16.803  68.561  1.00  0.00    -0.316 C  
HETATM    4  O   UNL     1     -10.848  17.904  68.493  1.00  0.00    -0.186 OA 
BRANCH   3   5
HETATM    5  C   UNL     1     -10.949  15.763  69.423  1.00  0.00    -0.296 A  
HETATM    6  C   UNL     1     -11.032  14.456  68.912  1.00  0.00    -0.269 A  
HETATM    7  C   UNL     1     -11.683  13.456  69.631  1.00  0.00    -0.310 A  
HETATM    8  C   UNL     1     -12.265  13.740  70.863  1.00  0.00    -0.427 A  
HETATM    9 CL   UNL     1     -11.774  11.863  68.989  1.00  0.00    -0.362 Cl 
HETATM   10  C   UNL     1     -12.161  15.025  71.395  1.00  0.00    -0.396 A  
HETATM   11  C   UNL     1     -11.491  16.030  70.687  1.00  0.00    -0.427 A  
ENDBRANCH   3   5
ENDBRANCH   2   3
BRANCH   2  12
HETATM   12  N   UNL     1      -7.855  17.215  68.332  1.00  0.00    -0.233 NA 
HETATM   13  H   UNL     1      -7.886  18.231  68.424  1.00  0.00     0.000 HD 
HETATM   14  C   UNL     1      -6.661  16.458  68.765  1.00  0.00    -0.158 C  
HETATM   15  C   UNL     1      -5.753  16.106  67.577  1.00  0.00    -0.173 C  
HETATM   16  C   UNL     1      -6.993  15.197  69.574  1.00  0.00    -0.189 C  
HETATM   17  C   UNL     1      -5.845  17.404  69.678  1.00  0.00    -0.242 C  
ENDBRANCH   2  12
TORSDOF 3
ENDMDL
MODEL      138
REMARK 921   NORMALIZED FREE ENERGY PREDICTED BY IDOCK:   -3.93 KCAL/MOL
REMARK 922        TOTAL FREE ENERGY PREDICTED BY IDOCK:   -5.09 KCAL/MOL
REMARK 923 INTER-LIGAND FREE ENERGY PREDICTED BY IDOCK:   -4.36 KCAL/MOL
REMARK 924 INTRA-LIGAND FREE ENERGY PREDICTED BY IDOCK:   -0.73 KCAL/MOL
REMARK 927      BINDING AFFINITY PREDICTED BY RF-SCORE:    0.00 PKD
ROOT
HETATM    1  C   UNL     1     -10.772   9.860  66.901  1.00  0.00    -0.195 C  
HETATM    2  C   UNL     1     -10.548  11.369  66.754  1.00  0.00    -0.255 C  
ENDROOT
BRANCH   2   3
HETATM    3  C   UNL     1     -10.071  11.908  68.128  1.00  0.00    -0.198 C  
HETATM    4  O   UNL     1      -9.963  11.178  69.117  1.00  0.00    -0.179 OA 
BRANCH   3   5
HETATM    5  C   UNL     1      -9.676  13.347  68.295  1.00  0.00    -0.226 A  
HETATM    6  C   UNL     1      -8.399  13.724  67.846  1.00  0.00    -0.172 A  
HETATM    7  C   UNL     1      -7.943  15.028  68.026  1.00  0.00    -0.130 A  
HETATM    8  C   UNL     1      -8.746  15.973  68.661  1.00  0.00    -0.206 A  
HETATM    9 CL   UNL     1      -6.377  15.472  67.470  1.00  0.00    -0.181 Cl 
HETATM   10  C   UNL     1     -10.026  15.618  69.082  1.00  0.00    -0.244 A  
HETATM   11  C   UNL     1     -10.499  14.314  68.885  1.00  0.00    -0.241 A  
ENDBRANCH   3   5
ENDBRANCH   2   3
BRANCH   2  12
HETATM   12  N   UNL     1     -11.780  12.078  66.332  1.00  0.00    -0.565 NA 
HETATM   13  H   UNL     1     -12.616  12.057  66.917  1.00  0.00     0.000 HD 
HETATM   14  C   UNL     1     -11.779  12.816  65.051  1.00  0.00    -0.354 C  
HETATM   15  C   UNL     1     -11.998  11.875  63.856  1.00  0.00    -0.503 C  
HETATM   16  C   UNL     1     -10.522  13.669  64.833  1.00  0.00    -0.426 C  
HETATM   17  C   UNL     1     -12.997  13.770  65.089  1.00  0.00    -0.279 C  
ENDBRANCH   2  12
TORSDOF 3
ENDMDL
MODEL      139
REMARK 921   NORMALIZED FREE ENERGY PREDICTED BY IDOCK:   -3.93 KCAL/MOL
REMARK 922        TOTAL FREE ENERGY PREDICTED BY IDOCK:   -5.09 KCAL/MOL
REMARK 923 INTER-LIGAND FREE ENERGY PREDICTED BY IDOCK:   -5.34 KCAL/MOL
REMARK 924 INTRA-LIGAND FREE ENERGY PREDICTED BY IDOCK:    0.25 KCAL/MOL
REMARK 927      BINDING AFFINITY PREDICTED BY RF-SCORE:    0.00 PKD
ROOT
HETATM    1  C   UNL     1     -12.114  15.358  69.800  1.00  0.00    -0.373 C  
HETATM    2  C   UNL     1     -11.626  15.511  68.355  1.00  0.00    -0.357 C  
ENDROOT
BRANCH   2   3
HETATM    3  C   UNL     1     -11.979  14.204  67.599  1.00  0.00    -0.370 C  
HETATM    4  O   UNL     1     -12.441  14.212  66.455  1.00  0.00    -0.461 OA 
BRANCH   3   5
HETATM    5  C   UNL     1     -11.728  12.863  68.224  1.00  0.00    -0.390 A  
HETATM    6  C   UNL     1     -11.206  11.851  67.399  1.00  0.00    -0.366 A  
HETATM    7  C   UNL     1     -11.008  10.565  67.897  1.00  0.00    -0.295 A  
HETATM    8  C   UNL     1     -11.333  10.264  69.217  1.00  0.00    -0.253 A  
HETATM    9 CL   UNL     1     -10.368   9.340  66.873  1.00  0.00    -0.325 Cl 
HETATM   10  C   UNL     1     -11.821  11.267  70.053  1.00  0.00    -0.448 A  
HETATM   11  C   UNL     1     -12.003  12.567  69.565  1.00  0.00    -0.329 A  
ENDBRANCH   3   5
ENDBRANCH   2   3
BRANCH   2  12
HETATM   12  N   UNL     1     -10.166  15.760  68.282  1.00  0.00    -0.222 NA 
HETATM   13  H   UNL     1      -9.509  15.123  68.732  1.00  0.00     0.000 HD 
HETATM   14  C   UNL     1      -9.677  16.946  67.546  1.00  0.00    -0.249 C  
HETATM   15  C   UNL     1      -9.778  18.221  68.398  1.00  0.00    -0.373 C  
HETATM   16  C   UNL     1     -10.364  17.155  66.190  1.00  0.00    -0.327 C  
HETATM   17  C   UNL     1      -8.170  16.712  67.282  1.00  0.00    -0.197 C  
ENDBRANCH   2  12
TORSDOF 3
ENDMDL
MODEL      140
REMARK 921   NORMALIZED FREE ENERGY PREDICTED BY IDOCK:   -3.92 KCAL/MOL
REMARK 922        TOTAL FREE ENERGY PREDICTED BY IDOCK:   -5.07 KCAL/MOL
REMARK 923 INTER-LIGAND FREE ENERGY PREDICTED BY IDOCK:   -4.52 KCAL/MOL
REMARK 924 INTRA-LIGAND FREE ENERGY PREDICTED BY IDOCK:   -0.55 KCAL/MOL
REMARK 927      BINDING AFFINITY PREDICTED BY RF-SCORE:    0.00 PKD
ROOT
HETATM    1  C   UNL     1      -8.949  13.919  68.464  1.00  0.00    -0.141 C  
HETATM    2  C   UNL     1      -9.617  14.571  67.248  1.00  0.00    -0.226 C  
ENDROOT
BRANCH   2   3
HETATM    3  C   UNL     1      -9.700  16.096  67.518  1.00  0.00    -0.233 C  
HETATM    4  O   UNL     1     -10.729  16.633  67.935  1.00  0.00    -0.336 OA 
BRANCH   3   5
HETATM    5  C   UNL     1      -8.500  16.977  67.322  1.00  0.00    -0.210 A  
HETATM    6  C   UNL     1      -8.007  17.660  68.447  1.00  0.00    -0.270 A  
HETATM    7  C   UNL     1      -6.937  18.544  68.324  1.00  0.00    -0.249 A  
HETATM    8  C   UNL     1      -6.348  18.767  67.083  1.00  0.00    -0.193 A  
HETATM    9 CL   UNL     1      -6.347  19.370  69.712  1.00  0.00    -0.329 Cl 
HETATM   10  C   UNL     1      -6.809  18.071  65.966  1.00  0.00    -0.332 A  
HETATM   11  C   UNL     1      -7.870  17.166  66.086  1.00  0.00    -0.303 A  
ENDBRANCH   3   5
ENDBRANCH   2   3
BRANCH   2  12
HETATM   12  N   UNL     1     -10.973  14.026  66.998  1.00  0.00    -0.294 NA 
HETATM   13  H   UNL     1     -11.710  14.131  67.695  1.00  0.00     0.000 HD 
HETATM   14  C   UNL     1     -11.241  13.328  65.721  1.00  0.00    -0.294 C  
HETATM   15  C   UNL     1     -10.743  11.875  65.756  1.00  0.00    -0.327 C  
HETATM   16  C   UNL     1     -10.678  14.055  64.493  1.00  0.00    -0.355 C  
HETATM   17  C   UNL     1     -12.780  13.263  65.568  1.00  0.00    -0.429 C  
ENDBRANCH   2  12
TORSDOF 3
ENDMDL
MODEL      141
REMARK 921   NORMALIZED FREE ENERGY PREDICTED BY IDOCK:   -3.91 KCAL/MOL
REMARK 922        TOTAL FREE ENERGY PREDICTED BY IDOCK:   -5.07 KCAL/MOL
REMARK 923 INTER-LIGAND FREE ENERGY PREDICTED BY IDOCK:   -4.54 KCAL/MOL
REMARK 924 INTRA-LIGAND FREE ENERGY PREDICTED BY IDOCK:   -0.53 KCAL/MOL
REMARK 927      BINDING AFFINITY PREDICTED BY RF-SCORE:    0.00 PKD
ROOT
HETATM    1  C   UNL     1     -10.344   7.237  67.798  1.00  0.00    -0.267 C  
HETATM    2  C   UNL     1     -10.201   8.513  68.635  1.00  0.00    -0.197 C  
ENDROOT
BRANCH   2   3
HETATM    3  C   UNL     1      -9.361   9.523  67.810  1.00  0.00    -0.127 C  
HETATM    4  O   UNL     1      -8.156   9.693  68.012  1.00  0.00    -0.104 OA 
BRANCH   3   5
HETATM    5  C   UNL     1      -9.983  10.309  66.692  1.00  0.00    -0.270 A  
HETATM    6  C   UNL     1      -9.587   9.993  65.380  1.00  0.00    -0.342 A  
HETATM    7  C   UNL     1     -10.076  10.724  64.300  1.00  0.00    -0.361 A  
HETATM    8  C   UNL     1     -10.957  11.781  64.507  1.00  0.00    -0.382 A  
HETATM    9 CL   UNL     1      -9.581  10.323  62.702  1.00  0.00    -0.312 Cl 
HETATM   10  C   UNL     1     -11.381  12.083  65.801  1.00  0.00    -0.384 A  
HETATM   11  C   UNL     1     -10.910  11.339  66.890  1.00  0.00    -0.333 A  
ENDBRANCH   3   5
ENDBRANCH   2   3
BRANCH   2  12
HETATM   12  N   UNL     1      -9.546   8.255  69.939  1.00  0.00    -0.170 NA 
HETATM   13  H   UNL     1      -8.569   7.962  69.980  1.00  0.00     0.000 HD 
HETATM   14  C   UNL     1     -10.329   8.429  71.182  1.00  0.00    -0.212 C  
HETATM   15  C   UNL     1     -11.216   7.207  71.467  1.00  0.00    -0.273 C  
HETATM   16  C   UNL     1     -11.169   9.713  71.204  1.00  0.00    -0.454 C  
HETATM   17  C   UNL     1      -9.307   8.512  72.341  1.00  0.00    -0.349 C  
ENDBRANCH   2  12
TORSDOF 3
ENDMDL
MODEL      142
REMARK 921   NORMALIZED FREE ENERGY PREDICTED BY IDOCK:   -3.91 KCAL/MOL
REMARK 922        TOTAL FREE ENERGY PREDICTED BY IDOCK:   -5.07 KCAL/MOL
REMARK 923 INTER-LIGAND FREE ENERGY PREDICTED BY IDOCK:   -4.61 KCAL/MOL
REMARK 924 INTRA-LIGAND FREE ENERGY PREDICTED BY IDOCK:   -0.45 KCAL/MOL
REMARK 927      BINDING AFFINITY PREDICTED BY RF-SCORE:    0.00 PKD
ROOT
HETATM    1  C   UNL     1     -12.036  11.551  69.383  1.00  0.00    -0.392 C  
HETATM    2  C   UNL     1     -11.004  11.348  68.268  1.00  0.00    -0.216 C  
ENDROOT
BRANCH   2   3
HETATM    3  C   UNL     1      -9.981  10.291  68.761  1.00  0.00    -0.179 C  
HETATM    4  O   UNL     1      -8.813  10.584  69.029  1.00  0.00    -0.159 OA 
BRANCH   3   5
HETATM    5  C   UNL     1     -10.394   8.864  68.974  1.00  0.00    -0.226 A  
HETATM    6  C   UNL     1     -10.330   7.999  67.867  1.00  0.00    -0.282 A  
HETATM    7  C   UNL     1     -10.758   6.678  67.977  1.00  0.00    -0.265 A  
HETATM    8  C   UNL     1     -11.262   6.200  69.184  1.00  0.00    -0.409 A  
HETATM    9 CL   UNL     1     -10.672   5.634  66.613  1.00  0.00    -0.364 Cl 
HETATM   10  C   UNL     1     -11.301   7.039  70.296  1.00  0.00    -0.339 A  
HETATM   11  C   UNL     1     -10.853   8.362  70.198  1.00  0.00    -0.238 A  
ENDBRANCH   3   5
ENDBRANCH   2   3
BRANCH   2  12
HETATM   12  N   UNL     1     -10.303  12.608  67.921  1.00  0.00    -0.213 NA 
HETATM   13  H   UNL     1      -9.630  13.022  68.567  1.00  0.00     0.000 HD 
HETATM   14  C   UNL     1     -10.594  13.256  66.624  1.00  0.00    -0.281 C  
HETATM   15  C   UNL     1     -11.891  14.078  66.681  1.00  0.00    -0.443 C  
HETATM   16  C   UNL     1     -10.636  12.277  65.443  1.00  0.00    -0.309 C  
HETATM   17  C   UNL     1      -9.446  14.261  66.364  1.00  0.00    -0.297 C  
ENDBRANCH   2  12
TORSDOF 3
ENDMDL
MODEL      143
REMARK 921   NORMALIZED FREE ENERGY PREDICTED BY IDOCK:   -3.91 KCAL/MOL
REMARK 922        TOTAL FREE ENERGY PREDICTED BY IDOCK:   -5.06 KCAL/MOL
REMARK 923 INTER-LIGAND FREE ENERGY PREDICTED BY IDOCK:   -4.40 KCAL/MOL
REMARK 924 INTRA-LIGAND FREE ENERGY PREDICTED BY IDOCK:   -0.66 KCAL/MOL
REMARK 927      BINDING AFFINITY PREDICTED BY RF-SCORE:    0.00 PKD
ROOT
HETATM    1  C   UNL     1      -8.832  13.084  67.094  1.00  0.00    -0.218 C  
HETATM    2  C   UNL     1      -8.921  14.524  67.612  1.00  0.00    -0.193 C  
ENDROOT
BRANCH   2   3
HETATM    3  C   UNL     1      -7.491  15.125  67.576  1.00  0.00    -0.198 C  
HETATM    4  O   UNL     1      -6.490  14.424  67.412  1.00  0.00    -0.307 OA 
BRANCH   3   5
HETATM    5  C   UNL     1      -7.276  16.606  67.697  1.00  0.00    -0.158 A  
HETATM    6  C   UNL     1      -7.118  17.336  66.506  1.00  0.00    -0.300 A  
HETATM    7  C   UNL     1      -6.851  18.703  66.547  1.00  0.00    -0.206 A  
HETATM    8  C   UNL     1      -6.731  19.361  67.768  1.00  0.00    -0.251 A  
HETATM    9 CL   UNL     1      -6.661  19.581  65.080  1.00  0.00    -0.306 Cl 
HETATM   10  C   UNL     1      -6.918  18.652  68.954  1.00  0.00    -0.314 A  
HETATM   11  C   UNL     1      -7.207  17.283  68.921  1.00  0.00    -0.243 A  
ENDBRANCH   3   5
ENDBRANCH   2   3
BRANCH   2  12
HETATM   12  N   UNL     1      -9.463  14.590  68.991  1.00  0.00    -0.369 NA 
HETATM   13  H   UNL     1      -8.907  14.265  69.782  1.00  0.00     0.000 HD 
HETATM   14  C   UNL     1     -10.823  15.132  69.201  1.00  0.00    -0.251 C  
HETATM   15  C   UNL     1     -11.903  14.081  68.903  1.00  0.00    -0.390 C  
HETATM   16  C   UNL     1     -11.100  16.419  68.413  1.00  0.00    -0.351 C  
HETATM   17  C   UNL     1     -10.937  15.466  70.708  1.00  0.00    -0.349 C  
ENDBRANCH   2  12
TORSDOF 3
ENDMDL
MODEL      144
REMARK 921   NORMALIZED FREE ENERGY PREDICTED BY IDOCK:   -3.91 KCAL/MOL
REMARK 922        TOTAL FREE ENERGY PREDICTED BY IDOCK:   -5.06 KCAL/MOL
REMARK 923 INTER-LIGAND FREE ENERGY PREDICTED BY IDOCK:   -4.79 KCAL/MOL
REMARK 924 INTRA-LIGAND FREE ENERGY PREDICTED BY IDOCK:   -0.27 KCAL/MOL
REMARK 927      BINDING AFFINITY PREDICTED BY RF-SCORE:    0.00 PKD
ROOT
HETATM    1  C   UNL     1     -11.018  10.225  66.746  1.00  0.00    -0.082 C  
HETATM    2  C   UNL     1     -10.372  11.471  67.363  1.00  0.00    -0.207 C  
ENDROOT
BRANCH   2   3
HETATM    3  C   UNL     1      -9.881  11.090  68.784  1.00  0.00    -0.198 C  
HETATM    4  O   UNL     1      -8.685  11.079  69.084  1.00  0.00    -0.108 OA 
BRANCH   3   5
HETATM    5  C   UNL     1     -10.861  10.758  69.872  1.00  0.00    -0.264 A  
HETATM    6  C   UNL     1     -10.708   9.524  70.527  1.00  0.00    -0.359 A  
HETATM    7  C   UNL     1     -11.619   9.124  71.502  1.00  0.00    -0.368 A  
HETATM    8  C   UNL     1     -12.697   9.939  71.835  1.00  0.00    -0.501 A  
HETATM    9 CL   UNL     1     -11.416   7.610  72.293  1.00  0.00    -0.336 Cl 
HETATM   10  C   UNL     1     -12.841  11.180  71.215  1.00  0.00    -0.515 A  
HETATM   11  C   UNL     1     -11.917  11.597  70.248  1.00  0.00    -0.445 A  
ENDBRANCH   3   5
ENDBRANCH   2   3
BRANCH   2  12
HETATM   12  N   UNL     1     -11.318  12.610  67.442  1.00  0.00    -0.294 NA 
HETATM   13  H   UNL     1     -12.198  12.518  67.950  1.00  0.00     0.000 HD 
HETATM   14  C   UNL     1     -10.968  13.881  66.772  1.00  0.00    -0.299 C  
HETATM   15  C   UNL     1     -11.269  13.829  65.267  1.00  0.00    -0.311 C  
HETATM   16  C   UNL     1      -9.518  14.322  67.010  1.00  0.00    -0.259 C  
HETATM   17  C   UNL     1     -11.896  14.966  67.370  1.00  0.00    -0.245 C  
ENDBRANCH   2  12
TORSDOF 3
ENDMDL
MODEL      145
REMARK 921   NORMALIZED FREE ENERGY PREDICTED BY IDOCK:   -3.89 KCAL/MOL
REMARK 922        TOTAL FREE ENERGY PREDICTED BY IDOCK:   -5.04 KCAL/MOL
REMARK 923 INTER-LIGAND FREE ENERGY PREDICTED BY IDOCK:   -4.52 KCAL/MOL
REMARK 924 INTRA-LIGAND FREE ENERGY PREDICTED BY IDOCK:   -0.51 KCAL/MOL
REMARK 927      BINDING AFFINITY PREDICTED BY RF-SCORE:    0.00 PKD
ROOT
HETATM    1  C   UNL     1      -7.991  13.193  67.338  1.00  0.00    -0.174 C  
HETATM    2  C   UNL     1      -8.753  14.270  66.557  1.00  0.00     0.023 C  
ENDROOT
BRANCH   2   3
HETATM    3  C   UNL     1      -8.123  15.642  66.915  1.00  0.00    -0.255 C  
HETATM    4  O   UNL     1      -6.909  15.844  66.844  1.00  0.00    -0.238 OA 
BRANCH   3   5
HETATM    5  C   UNL     1      -8.987  16.800  67.323  1.00  0.00    -0.222 A  
HETATM    6  C   UNL     1      -9.433  17.664  66.308  1.00  0.00    -0.232 A  
HETATM    7  C   UNL     1     -10.184  18.795  66.622  1.00  0.00    -0.408 A  
HETATM    8  C   UNL     1     -10.495  19.087  67.947  1.00  0.00    -0.474 A  
HETATM    9 CL   UNL     1     -10.721  19.841  65.367  1.00  0.00    -0.398 Cl 
HETATM   10  C   UNL     1     -10.085  18.219  68.959  1.00  0.00    -0.283 A  
HETATM   11  C   UNL     1      -9.348  17.070  68.648  1.00  0.00    -0.270 A  
ENDBRANCH   3   5
ENDBRANCH   2   3
BRANCH   2  12
HETATM   12  N   UNL     1     -10.200  14.276  66.881  1.00  0.00    -0.263 NA 
HETATM   13  H   UNL     1     -10.537  14.719  67.736  1.00  0.00     0.000 HD 
HETATM   14  C   UNL     1     -11.146  13.629  65.947  1.00  0.00    -0.284 C  
HETATM   15  C   UNL     1     -11.182  12.106  66.143  1.00  0.00    -0.386 C  
HETATM   16  C   UNL     1     -10.886  13.970  64.474  1.00  0.00    -0.362 C  
HETATM   17  C   UNL     1     -12.555  14.154  66.312  1.00  0.00    -0.297 C  
ENDBRANCH   2  12
TORSDOF 3
ENDMDL
MODEL      146
REMARK 921   NORMALIZED FREE ENERGY PREDICTED BY IDOCK:   -3.88 KCAL/MOL
REMARK 922        TOTAL FREE ENERGY PREDICTED BY IDOCK:   -5.03 KCAL/MOL
REMARK 923 INTER-LIGAND FREE ENERGY PREDICTED BY IDOCK:   -4.70 KCAL/MOL
REMARK 924 INTRA-LIGAND FREE ENERGY PREDICTED BY IDOCK:   -0.32 KCAL/MOL
REMARK 927      BINDING AFFINITY PREDICTED BY RF-SCORE:    0.00 PKD
ROOT
HETATM    1  C   UNL     1     -11.852  11.362  69.580  1.00  0.00    -0.431 C  
HETATM    2  C   UNL     1     -11.418  11.094  68.134  1.00  0.00    -0.303 C  
ENDROOT
BRANCH   2   3
HETATM    3  C   UNL     1     -10.643   9.750  68.119  1.00  0.00    -0.231 C  
HETATM    4  O   UNL     1     -10.331   9.185  67.067  1.00  0.00    -0.250 OA 
BRANCH   3   5
HETATM    5  C   UNL     1     -10.199   9.104  69.399  1.00  0.00    -0.212 A  
HETATM    6  C   UNL     1     -11.015   8.088  69.927  1.00  0.00    -0.172 A  
HETATM    7  C   UNL     1     -10.697   7.489  71.144  1.00  0.00    -0.227 A  
HETATM    8  C   UNL     1      -9.572   7.895  71.857  1.00  0.00    -0.226 A  
HETATM    9 CL   UNL     1     -11.706   6.247  71.775  1.00  0.00    -0.364 Cl 
HETATM   10  C   UNL     1      -8.740   8.880  71.327  1.00  0.00    -0.279 A  
HETATM   11  C   UNL     1      -9.041   9.472  70.094  1.00  0.00    -0.276 A  
ENDBRANCH   3   5
ENDBRANCH   2   3
BRANCH   2  12
HETATM   12  N   UNL     1     -10.563  12.179  67.597  1.00  0.00    -0.206 NA 
HETATM   13  H   UNL     1      -9.607  12.299  67.931  1.00  0.00     0.000 HD 
HETATM   14  C   UNL     1     -11.118  13.087  66.569  1.00  0.00    -0.288 C  
HETATM   15  C   UNL     1     -11.992  14.184  67.197  1.00  0.00    -0.460 C  
HETATM   16  C   UNL     1     -11.890  12.360  65.460  1.00  0.00    -0.469 C  
HETATM   17  C   UNL     1      -9.913  13.804  65.916  1.00  0.00    -0.308 C  
ENDBRANCH   2  12
TORSDOF 3
ENDMDL
MODEL      147
REMARK 921   NORMALIZED FREE ENERGY PREDICTED BY IDOCK:   -3.87 KCAL/MOL
REMARK 922        TOTAL FREE ENERGY PREDICTED BY IDOCK:   -5.02 KCAL/MOL
REMARK 923 INTER-LIGAND FREE ENERGY PREDICTED BY IDOCK:   -4.65 KCAL/MOL
REMARK 924 INTRA-LIGAND FREE ENERGY PREDICTED BY IDOCK:   -0.37 KCAL/MOL
REMARK 927      BINDING AFFINITY PREDICTED BY RF-SCORE:    0.00 PKD
ROOT
HETATM    1  C   UNL     1     -10.330  10.037  65.836  1.00  0.00    -0.202 C  
HETATM    2  C   UNL     1     -10.671  11.309  66.621  1.00  0.00    -0.272 C  
ENDROOT
BRANCH   2   3
HETATM    3  C   UNL     1     -11.164  10.875  68.027  1.00  0.00    -0.314 C  
HETATM    4  O   UNL     1     -12.284  11.171  68.449  1.00  0.00    -0.610 OA 
BRANCH   3   5
HETATM    5  C   UNL     1     -10.298  10.031  68.918  1.00  0.00    -0.217 A  
HETATM    6  C   UNL     1      -9.002  10.500  69.193  1.00  0.00    -0.171 A  
HETATM    7  C   UNL     1      -8.124   9.737  69.960  1.00  0.00    -0.189 A  
HETATM    8  C   UNL     1      -8.517   8.498  70.458  1.00  0.00    -0.143 A  
HETATM    9 CL   UNL     1      -6.541  10.326  70.287  1.00  0.00    -0.133 Cl 
HETATM   10  C   UNL     1      -9.812   8.039  70.218  1.00  0.00    -0.184 A  
HETATM   11  C   UNL     1     -10.707   8.809  69.465  1.00  0.00    -0.196 A  
ENDBRANCH   3   5
ENDBRANCH   2   3
BRANCH   2  12
HETATM   12  N   UNL     1     -11.713  12.119  65.946  1.00  0.00    -0.482 NA 
HETATM   13  H   UNL     1     -12.701  11.969  66.155  1.00  0.00     0.000 HD 
HETATM   14  C   UNL     1     -11.300  13.146  64.966  1.00  0.00    -0.299 C  
HETATM   15  C   UNL     1     -10.994  12.527  63.593  1.00  0.00    -0.507 C  
HETATM   16  C   UNL     1     -10.120  14.006  65.437  1.00  0.00    -0.343 C  
HETATM   17  C   UNL     1     -12.516  14.081  64.767  1.00  0.00    -0.392 C  
ENDBRANCH   2  12
TORSDOF 3
ENDMDL
MODEL      148
REMARK 921   NORMALIZED FREE ENERGY PREDICTED BY IDOCK:   -3.87 KCAL/MOL
REMARK 922        TOTAL FREE ENERGY PREDICTED BY IDOCK:   -5.02 KCAL/MOL
REMARK 923 INTER-LIGAND FREE ENERGY PREDICTED BY IDOCK:   -4.65 KCAL/MOL
REMARK 924 INTRA-LIGAND FREE ENERGY PREDICTED BY IDOCK:   -0.37 KCAL/MOL
REMARK 927      BINDING AFFINITY PREDICTED BY RF-SCORE:    0.00 PKD
ROOT
HETATM    1  C   UNL     1     -11.951  11.370  69.782  1.00  0.00    -0.422 C  
HETATM    2  C   UNL     1     -11.808  12.619  68.905  1.00  0.00    -0.302 C  
ENDROOT
BRANCH   2   3
HETATM    3  C   UNL     1     -11.526  12.145  67.455  1.00  0.00    -0.340 C  
HETATM    4  O   UNL     1     -12.231  12.491  66.504  1.00  0.00    -0.569 OA 
BRANCH   3   5
HETATM    5  C   UNL     1     -10.345  11.272  67.148  1.00  0.00    -0.244 A  
HETATM    6  C   UNL     1     -10.569   9.886  67.061  1.00  0.00    -0.272 A  
HETATM    7  C   UNL     1      -9.507   9.012  66.843  1.00  0.00    -0.167 A  
HETATM    8  C   UNL     1      -8.209   9.498  66.715  1.00  0.00    -0.113 A  
HETATM    9 CL   UNL     1      -9.800   7.320  66.738  1.00  0.00    -0.273 Cl 
HETATM   10  C   UNL     1      -7.979  10.872  66.769  1.00  0.00    -0.143 A  
HETATM   11  C   UNL     1      -9.045  11.759  66.967  1.00  0.00    -0.187 A  
ENDBRANCH   3   5
ENDBRANCH   2   3
BRANCH   2  12
HETATM   12  N   UNL     1     -10.715  13.506  69.370  1.00  0.00    -0.444 NA 
HETATM   13  H   UNL     1      -9.766  13.147  69.475  1.00  0.00     0.000 HD 
HETATM   14  C   UNL     1     -11.020  14.920  69.679  1.00  0.00    -0.274 C  
HETATM   15  C   UNL     1     -11.640  15.071  71.077  1.00  0.00    -0.367 C  
HETATM   16  C   UNL     1     -11.906  15.601  68.628  1.00  0.00    -0.306 C  
HETATM   17  C   UNL     1      -9.666  15.667  69.714  1.00  0.00    -0.231 C  
ENDBRANCH   2  12
TORSDOF 3
ENDMDL
MODEL      149
REMARK 921   NORMALIZED FREE ENERGY PREDICTED BY IDOCK:   -3.87 KCAL/MOL
REMARK 922        TOTAL FREE ENERGY PREDICTED BY IDOCK:   -5.02 KCAL/MOL
REMARK 923 INTER-LIGAND FREE ENERGY PREDICTED BY IDOCK:   -4.48 KCAL/MOL
REMARK 924 INTRA-LIGAND FREE ENERGY PREDICTED BY IDOCK:   -0.54 KCAL/MOL
REMARK 927      BINDING AFFINITY PREDICTED BY RF-SCORE:    0.00 PKD
ROOT
HETATM    1  C   UNL     1     -11.618   6.702  70.282  1.00  0.00    -0.454 C  
HETATM    2  C   UNL     1     -10.711   7.114  71.447  1.00  0.00    -0.225 C  
ENDROOT
BRANCH   2   3
HETATM    3  C   UNL     1      -9.930   8.381  71.008  1.00  0.00    -0.190 C  
HETATM    4  O   UNL     1      -8.705   8.470  71.126  1.00  0.00    -0.142 OA 
BRANCH   3   5
HETATM    5  C   UNL     1     -10.641   9.542  70.376  1.00  0.00    -0.333 A  
HETATM    6  C   UNL     1     -11.541  10.264  71.179  1.00  0.00    -0.385 A  
HETATM    7  C   UNL     1     -12.283  11.313  70.640  1.00  0.00    -0.393 A  
HETATM    8  C   UNL     1     -12.147  11.654  69.297  1.00  0.00    -0.323 A  
HETATM    9 CL   UNL     1     -13.380  12.186  71.637  1.00  0.00    -0.356 Cl 
HETATM   10  C   UNL     1     -11.234  10.966  68.500  1.00  0.00    -0.335 A  
HETATM   11  C   UNL     1     -10.470   9.924  69.040  1.00  0.00    -0.227 A  
ENDBRANCH   3   5
ENDBRANCH   2   3
BRANCH   2  12
HETATM   12  N   UNL     1      -9.762   6.039  71.823  1.00  0.00    -0.151 NA 
HETATM   13  H   UNL     1      -9.039   5.734  71.171  1.00  0.00     0.000 HD 
HETATM   14  C   UNL     1      -9.880   5.414  73.158  1.00  0.00    -0.162 C  
HETATM   15  C   UNL     1     -10.986   4.348  73.188  1.00  0.00    -0.332 C  
HETATM   16  C   UNL     1     -10.083   6.424  74.295  1.00  0.00    -0.365 C  
HETATM   17  C   UNL     1      -8.547   4.672  73.418  1.00  0.00    -0.101 C  
ENDBRANCH   2  12
TORSDOF 3
ENDMDL
MODEL      150
REMARK 921   NORMALIZED FREE ENERGY PREDICTED BY IDOCK:   -3.87 KCAL/MOL
REMARK 922        TOTAL FREE ENERGY PREDICTED BY IDOCK:   -5.01 KCAL/MOL
REMARK 923 INTER-LIGAND FREE ENERGY PREDICTED BY IDOCK:   -4.70 KCAL/MOL
REMARK 924 INTRA-LIGAND FREE ENERGY PREDICTED BY IDOCK:   -0.31 KCAL/MOL
REMARK 927      BINDING AFFINITY PREDICTED BY RF-SCORE:    0.00 PKD
ROOT
HETATM    1  C   UNL     1     -12.283   8.027  72.435  1.00  0.00    -0.337 C  
HETATM    2  C   UNL     1     -10.807   7.613  72.465  1.00  0.00    -0.314 C  
ENDROOT
BRANCH   2   3
HETATM    3  C   UNL     1     -10.000   8.699  71.706  1.00  0.00    -0.301 C  
HETATM    4  O   UNL     1      -8.855   9.016  72.037  1.00  0.00    -0.373 OA 
BRANCH   3   5
HETATM    5  C   UNL     1     -10.576   9.381  70.499  1.00  0.00    -0.331 A  
HETATM    6  C   UNL     1     -10.229   8.867  69.238  1.00  0.00    -0.214 A  
HETATM    7  C   UNL     1     -10.676   9.489  68.074  1.00  0.00    -0.212 A  
HETATM    8  C   UNL     1     -11.465  10.634  68.146  1.00  0.00    -0.303 A  
HETATM    9 CL   UNL     1     -10.242   8.845  66.539  1.00  0.00    -0.348 Cl 
HETATM   10  C   UNL     1     -11.841  11.134  69.392  1.00  0.00    -0.415 A  
HETATM   11  C   UNL     1     -11.413  10.501  70.566  1.00  0.00    -0.433 A  
ENDBRANCH   3   5
ENDBRANCH   2   3
BRANCH   2  12
HETATM   12  N   UNL     1     -10.587   6.287  71.838  1.00  0.00    -0.213 NA 
HETATM   13  H   UNL     1     -10.711   6.162  70.833  1.00  0.00     0.000 HD 
HETATM   14  C   UNL     1     -10.184   5.149  72.692  1.00  0.00    -0.186 C  
HETATM   15  C   UNL     1     -11.390   4.527  73.412  1.00  0.00    -0.376 C  
HETATM   16  C   UNL     1      -9.083   5.498  73.702  1.00  0.00    -0.124 C  
HETATM   17  C   UNL     1      -9.628   4.060  71.743  1.00  0.00    -0.223 C  
ENDBRANCH   2  12
TORSDOF 3
ENDMDL
MODEL      151
REMARK 921   NORMALIZED FREE ENERGY PREDICTED BY IDOCK:   -3.87 KCAL/MOL
REMARK 922        TOTAL FREE ENERGY PREDICTED BY IDOCK:   -5.01 KCAL/MOL
REMARK 923 INTER-LIGAND FREE ENERGY PREDICTED BY IDOCK:   -4.29 KCAL/MOL
REMARK 924 INTRA-LIGAND FREE ENERGY PREDICTED BY IDOCK:   -0.73 KCAL/MOL
REMARK 927      BINDING AFFINITY PREDICTED BY RF-SCORE:    0.00 PKD
ROOT
HETATM    1  C   UNL     1      -9.313   3.500  69.258  1.00  0.00    -0.242 C  
HETATM    2  C   UNL     1      -9.348   5.002  69.564  1.00  0.00    -0.128 C  
ENDROOT
BRANCH   2   3
HETATM    3  C   UNL     1      -9.951   5.178  70.982  1.00  0.00    -0.206 C  
HETATM    4  O   UNL     1      -9.889   4.290  71.836  1.00  0.00    -0.163 OA 
BRANCH   3   5
HETATM    5  C   UNL     1     -10.601   6.470  71.386  1.00  0.00    -0.266 A  
HETATM    6  C   UNL     1     -12.006   6.520  71.367  1.00  0.00    -0.371 A  
HETATM    7  C   UNL     1     -12.674   7.706  71.668  1.00  0.00    -0.343 A  
HETATM    8  C   UNL     1     -11.957   8.856  71.984  1.00  0.00    -0.439 A  
HETATM    9 CL   UNL     1     -14.393   7.749  71.640  1.00  0.00    -0.567 Cl 
HETATM   10  C   UNL     1     -10.565   8.809  72.037  1.00  0.00    -0.414 A  
HETATM   11  C   UNL     1      -9.888   7.616  71.756  1.00  0.00    -0.200 A  
ENDBRANCH   3   5
ENDBRANCH   2   3
BRANCH   2  12
HETATM   12  N   UNL     1     -10.155   5.754  68.573  1.00  0.00    -0.164 NA 
HETATM   13  H   UNL     1     -11.160   5.594  68.494  1.00  0.00     0.000 HD 
HETATM   14  C   UNL     1      -9.482   6.741  67.701  1.00  0.00    -0.118 C  
HETATM   15  C   UNL     1      -8.787   6.062  66.511  1.00  0.00    -0.131 C  
HETATM   16  C   UNL     1      -8.495   7.648  68.447  1.00  0.00    -0.125 C  
HETATM   17  C   UNL     1     -10.594   7.638  67.108  1.00  0.00    -0.410 C  
ENDBRANCH   2  12
TORSDOF 3
ENDMDL
MODEL      152
REMARK 921   NORMALIZED FREE ENERGY PREDICTED BY IDOCK:   -3.86 KCAL/MOL
REMARK 922        TOTAL FREE ENERGY PREDICTED BY IDOCK:   -5.01 KCAL/MOL
REMARK 923 INTER-LIGAND FREE ENERGY PREDICTED BY IDOCK:   -4.46 KCAL/MOL
REMARK 924 INTRA-LIGAND FREE ENERGY PREDICTED BY IDOCK:   -0.55 KCAL/MOL
REMARK 927      BINDING AFFINITY PREDICTED BY RF-SCORE:    0.00 PKD
ROOT
HETATM    1  C   UNL     1      -8.428  19.727  66.156  1.00  0.00    -0.367 C  
HETATM    2  C   UNL     1      -8.335  18.886  67.435  1.00  0.00    -0.275 C  
ENDROOT
BRANCH   2   3
HETATM    3  C   UNL     1      -9.766  18.398  67.780  1.00  0.00    -0.301 C  
HETATM    4  O   UNL     1     -10.751  19.135  67.685  1.00  0.00    -0.448 OA 
BRANCH   3   5
HETATM    5  C   UNL     1     -10.013  16.980  68.208  1.00  0.00    -0.285 A  
HETATM    6  C   UNL     1      -8.915  16.102  68.201  1.00  0.00    -0.185 A  
HETATM    7  C   UNL     1      -9.085  14.758  68.525  1.00  0.00    -0.187 A  
HETATM    8  C   UNL     1     -10.345  14.266  68.852  1.00  0.00    -0.218 A  
HETATM    9 CL   UNL     1      -7.730  13.698  68.511  1.00  0.00    -0.130 Cl 
HETATM   10  C   UNL     1     -11.435  15.135  68.892  1.00  0.00    -0.337 A  
HETATM   11  C   UNL     1     -11.269  16.492  68.589  1.00  0.00    -0.297 A  
ENDBRANCH   3   5
ENDBRANCH   2   3
BRANCH   2  12
HETATM   12  N   UNL     1      -7.775  19.657  68.570  1.00  0.00    -0.344 NA 
HETATM   13  H   UNL     1      -8.373  20.266  69.129  1.00  0.00     0.000 HD 
HETATM   14  C   UNL     1      -6.334  19.531  68.881  1.00  0.00    -0.271 C  
HETATM   15  C   UNL     1      -5.477  20.409  67.956  1.00  0.00    -0.237 C  
HETATM   16  C   UNL     1      -5.826  18.083  68.863  1.00  0.00    -0.201 C  
HETATM   17  C   UNL     1      -6.141  20.082  70.314  1.00  0.00    -0.382 C  
ENDBRANCH   2  12
TORSDOF 3
ENDMDL
MODEL      153
REMARK 921   NORMALIZED FREE ENERGY PREDICTED BY IDOCK:   -3.86 KCAL/MOL
REMARK 922        TOTAL FREE ENERGY PREDICTED BY IDOCK:   -5.00 KCAL/MOL
REMARK 923 INTER-LIGAND FREE ENERGY PREDICTED BY IDOCK:   -4.29 KCAL/MOL
REMARK 924 INTRA-LIGAND FREE ENERGY PREDICTED BY IDOCK:   -0.71 KCAL/MOL
REMARK 927      BINDING AFFINITY PREDICTED BY RF-SCORE:    0.00 PKD
ROOT
HETATM    1  C   UNL     1     -10.827   6.811  68.021  1.00  0.00    -0.306 C  
HETATM    2  C   UNL     1     -10.509   7.010  69.508  1.00  0.00    -0.220 C  
ENDROOT
BRANCH   2   3
HETATM    3  C   UNL     1     -10.247   5.610  70.123  1.00  0.00    -0.250 C  
HETATM    4  O   UNL     1     -10.140   4.598  69.426  1.00  0.00    -0.211 OA 
BRANCH   3   5
HETATM    5  C   UNL     1     -10.068   5.442  71.604  1.00  0.00    -0.259 A  
HETATM    6  C   UNL     1      -8.761   5.539  72.113  1.00  0.00    -0.130 A  
HETATM    7  C   UNL     1      -8.515   5.330  73.468  1.00  0.00    -0.112 A  
HETATM    8  C   UNL     1      -9.559   5.017  74.334  1.00  0.00    -0.151 A  
HETATM    9 CL   UNL     1      -6.909   5.452  74.074  1.00  0.00    -0.076 Cl 
HETATM   10  C   UNL     1     -10.863   4.950  73.845  1.00  0.00    -0.355 A  
HETATM   11  C   UNL     1     -11.121   5.179  72.488  1.00  0.00    -0.257 A  
ENDBRANCH   3   5
ENDBRANCH   2   3
BRANCH   2  12
HETATM   12  N   UNL     1     -11.615   7.682  70.231  1.00  0.00    -0.477 NA 
HETATM   13  H   UNL     1     -12.541   7.255  70.273  1.00  0.00     0.000 HD 
HETATM   14  C   UNL     1     -11.356   8.981  70.889  1.00  0.00    -0.293 C  
HETATM   15  C   UNL     1     -11.403  10.143  69.885  1.00  0.00    -0.335 C  
HETATM   16  C   UNL     1     -10.045   9.017  71.684  1.00  0.00    -0.405 C  
HETATM   17  C   UNL     1     -12.519   9.211  71.884  1.00  0.00    -0.459 C  
ENDBRANCH   2  12
TORSDOF 3
ENDMDL
MODEL      154
REMARK 921   NORMALIZED FREE ENERGY PREDICTED BY IDOCK:   -3.85 KCAL/MOL
REMARK 922        TOTAL FREE ENERGY PREDICTED BY IDOCK:   -5.00 KCAL/MOL
REMARK 923 INTER-LIGAND FREE ENERGY PREDICTED BY IDOCK:   -4.48 KCAL/MOL
REMARK 924 INTRA-LIGAND FREE ENERGY PREDICTED BY IDOCK:   -0.51 KCAL/MOL
REMARK 927      BINDING AFFINITY PREDICTED BY RF-SCORE:    0.00 PKD
ROOT
HETATM    1  C   UNL     1     -11.092  16.896  68.330  1.00  0.00    -0.216 C  
HETATM    2  C   UNL     1     -10.018  16.004  67.697  1.00  0.00    -0.239 C  
ENDROOT
BRANCH   2   3
HETATM    3  C   UNL     1      -8.967  16.932  67.035  1.00  0.00    -0.215 C  
HETATM    4  O   UNL     1      -8.891  17.070  65.812  1.00  0.00    -0.523 OA 
BRANCH   3   5
HETATM    5  C   UNL     1      -8.019  17.741  67.874  1.00  0.00    -0.233 A  
HETATM    6  C   UNL     1      -7.136  17.038  68.712  1.00  0.00    -0.219 A  
HETATM    7  C   UNL     1      -6.274  17.725  69.564  1.00  0.00    -0.238 A  
HETATM    8  C   UNL     1      -6.282  19.116  69.601  1.00  0.00    -0.295 A  
HETATM    9 CL   UNL     1      -5.200  16.848  70.583  1.00  0.00    -0.225 Cl 
HETATM   10  C   UNL     1      -7.131  19.824  68.751  1.00  0.00    -0.365 A  
HETATM   11  C   UNL     1      -7.986  19.140  67.877  1.00  0.00    -0.318 A  
ENDBRANCH   3   5
ENDBRANCH   2   3
BRANCH   2  12
HETATM   12  N   UNL     1     -10.586  15.079  66.686  1.00  0.00    -0.295 NA 
HETATM   13  H   UNL     1     -10.823  15.415  65.752  1.00  0.00     0.000 HD 
HETATM   14  C   UNL     1     -10.803  13.663  67.051  1.00  0.00    -0.286 C  
HETATM   15  C   UNL     1     -12.104  13.477  67.846  1.00  0.00    -0.304 C  
HETATM   16  C   UNL     1      -9.623  13.035  67.806  1.00  0.00    -0.208 C  
HETATM   17  C   UNL     1     -10.982  12.887  65.725  1.00  0.00    -0.303 C  
ENDBRANCH   2  12
TORSDOF 3
ENDMDL
MODEL      155
REMARK 921   NORMALIZED FREE ENERGY PREDICTED BY IDOCK:   -3.85 KCAL/MOL
REMARK 922        TOTAL FREE ENERGY PREDICTED BY IDOCK:   -4.99 KCAL/MOL
REMARK 923 INTER-LIGAND FREE ENERGY PREDICTED BY IDOCK:   -4.86 KCAL/MOL
REMARK 924 INTRA-LIGAND FREE ENERGY PREDICTED BY IDOCK:   -0.12 KCAL/MOL
REMARK 927      BINDING AFFINITY PREDICTED BY RF-SCORE:    0.00 PKD
ROOT
HETATM    1  C   UNL     1      -9.978   8.979  71.701  1.00  0.00    -0.383 C  
HETATM    2  C   UNL     1     -11.331   8.968  70.982  1.00  0.00    -0.297 C  
ENDROOT
BRANCH   2   3
HETATM    3  C   UNL     1     -11.980   7.580  71.223  1.00  0.00    -0.307 C  
HETATM    4  O   UNL     1     -13.158   7.459  71.571  1.00  0.00    -0.359 OA 
BRANCH   3   5
HETATM    5  C   UNL     1     -11.201   6.318  70.998  1.00  0.00    -0.372 A  
HETATM    6  C   UNL     1     -10.931   5.514  72.120  1.00  0.00    -0.291 A  
HETATM    7  C   UNL     1     -10.158   4.362  71.993  1.00  0.00    -0.186 A  
HETATM    8  C   UNL     1      -9.638   3.995  70.755  1.00  0.00    -0.263 A  
HETATM    9 CL   UNL     1      -9.838   3.391  73.377  1.00  0.00    -0.151 Cl 
HETATM   10  C   UNL     1      -9.926   4.767  69.630  1.00  0.00    -0.297 A  
HETATM   11  C   UNL     1     -10.719   5.916  69.746  1.00  0.00    -0.411 A  
ENDBRANCH   3   5
ENDBRANCH   2   3
BRANCH   2  12
HETATM   12  N   UNL     1     -11.192   9.216  69.526  1.00  0.00    -0.437 NA 
HETATM   13  H   UNL     1     -11.275   8.448  68.860  1.00  0.00     0.000 HD 
HETATM   14  C   UNL     1     -10.930  10.593  69.056  1.00  0.00    -0.248 C  
HETATM   15  C   UNL     1      -9.444  10.963  69.187  1.00  0.00    -0.107 C  
HETATM   16  C   UNL     1     -11.805  11.653  69.737  1.00  0.00    -0.428 C  
HETATM   17  C   UNL     1     -11.256  10.613  67.543  1.00  0.00    -0.326 C  
ENDBRANCH   2  12
TORSDOF 3
ENDMDL
MODEL      156
REMARK 921   NORMALIZED FREE ENERGY PREDICTED BY IDOCK:   -3.84 KCAL/MOL
REMARK 922        TOTAL FREE ENERGY PREDICTED BY IDOCK:   -4.98 KCAL/MOL
REMARK 923 INTER-LIGAND FREE ENERGY PREDICTED BY IDOCK:   -4.37 KCAL/MOL
REMARK 924 INTRA-LIGAND FREE ENERGY PREDICTED BY IDOCK:   -0.61 KCAL/MOL
REMARK 927      BINDING AFFINITY PREDICTED BY RF-SCORE:    0.00 PKD
ROOT
HETATM    1  C   UNL     1      -5.949  13.223  67.725  1.00  0.00    -0.145 C  
HETATM    2  C   UNL     1      -7.382  13.762  67.653  1.00  0.00    -0.172 C  
ENDROOT
BRANCH   2   3
HETATM    3  C   UNL     1      -8.288  12.618  67.128  1.00  0.00    -0.172 C  
HETATM    4  O   UNL     1      -7.895  11.451  67.056  1.00  0.00    -0.143 OA 
BRANCH   3   5
HETATM    5  C   UNL     1      -9.709  12.886  66.723  1.00  0.00    -0.246 A  
HETATM    6  C   UNL     1     -10.117  12.433  65.457  1.00  0.00    -0.287 A  
HETATM    7  C   UNL     1     -11.403  12.703  64.991  1.00  0.00    -0.309 A  
HETATM    8  C   UNL     1     -12.295  13.432  65.771  1.00  0.00    -0.513 A  
HETATM    9 CL   UNL     1     -11.886  12.140  63.439  1.00  0.00    -0.557 Cl 
HETATM   10  C   UNL     1     -11.911  13.859  67.042  1.00  0.00    -0.447 A  
HETATM   11  C   UNL     1     -10.628  13.573  67.525  1.00  0.00    -0.247 A  
ENDBRANCH   3   5
ENDBRANCH   2   3
BRANCH   2  12
HETATM   12  N   UNL     1      -7.491  14.943  66.764  1.00  0.00    -0.266 NA 
HETATM   13  H   UNL     1      -7.559  14.826  65.753  1.00  0.00     0.000 HD 
HETATM   14  C   UNL     1      -7.500  16.295  67.365  1.00  0.00    -0.161 C  
HETATM   15  C   UNL     1      -6.079  16.772  67.705  1.00  0.00    -0.167 C  
HETATM   16  C   UNL     1      -8.410  16.415  68.594  1.00  0.00    -0.221 C  
HETATM   17  C   UNL     1      -8.040  17.257  66.281  1.00  0.00    -0.315 C  
ENDBRANCH   2  12
TORSDOF 3
ENDMDL
MODEL      157
REMARK 921   NORMALIZED FREE ENERGY PREDICTED BY IDOCK:   -3.82 KCAL/MOL
REMARK 922        TOTAL FREE ENERGY PREDICTED BY IDOCK:   -4.96 KCAL/MOL
REMARK 923 INTER-LIGAND FREE ENERGY PREDICTED BY IDOCK:   -4.52 KCAL/MOL
REMARK 924 INTRA-LIGAND FREE ENERGY PREDICTED BY IDOCK:   -0.44 KCAL/MOL
REMARK 927      BINDING AFFINITY PREDICTED BY RF-SCORE:    0.00 PKD
ROOT
HETATM    1  C   UNL     1      -8.101   8.445  64.138  1.00  0.00    -0.145 C  
HETATM    2  C   UNL     1      -8.959   8.847  65.343  1.00  0.00    -0.182 C  
ENDROOT
BRANCH   2   3
HETATM    3  C   UNL     1      -8.879  10.390  65.482  1.00  0.00    -0.176 C  
HETATM    4  O   UNL     1      -7.856  10.961  65.869  1.00  0.00    -0.153 OA 
BRANCH   3   5
HETATM    5  C   UNL     1     -10.045  11.257  65.104  1.00  0.00    -0.326 A  
HETATM    6  C   UNL     1     -10.468  12.217  66.039  1.00  0.00    -0.281 A  
HETATM    7  C   UNL     1     -11.582  13.012  65.781  1.00  0.00    -0.356 A  
HETATM    8  C   UNL     1     -12.295  12.860  64.595  1.00  0.00    -0.501 A  
HETATM    9 CL   UNL     1     -12.086  14.181  66.937  1.00  0.00    -0.476 Cl 
HETATM   10  C   UNL     1     -11.866  11.933  63.646  1.00  0.00    -0.573 A  
HETATM   11  C   UNL     1     -10.734  11.145  63.890  1.00  0.00    -0.407 A  
ENDBRANCH   3   5
ENDBRANCH   2   3
BRANCH   2  12
HETATM   12  N   UNL     1      -8.499   8.201  66.596  1.00  0.00    -0.124 NA 
HETATM   13  H   UNL     1      -7.716   8.590  67.122  1.00  0.00     0.000 HD 
HETATM   14  C   UNL     1      -9.192   6.984  67.071  1.00  0.00    -0.147 C  
HETATM   15  C   UNL     1      -8.704   5.729  66.330  1.00  0.00    -0.128 C  
HETATM   16  C   UNL     1     -10.722   7.082  67.003  1.00  0.00    -0.423 C  
HETATM   17  C   UNL     1      -8.796   6.801  68.556  1.00  0.00    -0.123 C  
ENDBRANCH   2  12
TORSDOF 3
ENDMDL
MODEL      158
REMARK 921   NORMALIZED FREE ENERGY PREDICTED BY IDOCK:   -3.82 KCAL/MOL
REMARK 922        TOTAL FREE ENERGY PREDICTED BY IDOCK:   -4.95 KCAL/MOL
REMARK 923 INTER-LIGAND FREE ENERGY PREDICTED BY IDOCK:   -4.55 KCAL/MOL
REMARK 924 INTRA-LIGAND FREE ENERGY PREDICTED BY IDOCK:   -0.41 KCAL/MOL
REMARK 927      BINDING AFFINITY PREDICTED BY RF-SCORE:    0.00 PKD
ROOT
HETATM    1  C   UNL     1     -12.404  13.828  66.048  1.00  0.00    -0.499 C  
HETATM    2  C   UNL     1     -11.643  13.075  67.145  1.00  0.00    -0.358 C  
ENDROOT
BRANCH   2   3
HETATM    3  C   UNL     1     -11.558  14.008  68.381  1.00  0.00    -0.331 C  
HETATM    4  O   UNL     1     -12.188  13.783  69.417  1.00  0.00    -0.334 OA 
BRANCH   3   5
HETATM    5  C   UNL     1     -10.659  15.211  68.377  1.00  0.00    -0.238 A  
HETATM    6  C   UNL     1      -9.373  15.061  68.925  1.00  0.00    -0.208 A  
HETATM    7  C   UNL     1      -8.511  16.151  69.011  1.00  0.00    -0.251 A  
HETATM    8  C   UNL     1      -8.914  17.405  68.561  1.00  0.00    -0.276 A  
HETATM    9 CL   UNL     1      -6.941  15.948  69.684  1.00  0.00    -0.183 Cl 
HETATM   10  C   UNL     1     -10.176  17.559  67.987  1.00  0.00    -0.354 A  
HETATM   11  C   UNL     1     -11.040  16.463  67.878  1.00  0.00    -0.249 A  
ENDBRANCH   3   5
ENDBRANCH   2   3
BRANCH   2  12
HETATM   12  N   UNL     1     -10.280  12.684  66.711  1.00  0.00    -0.235 NA 
HETATM   13  H   UNL     1      -9.547  13.387  66.610  1.00  0.00     0.000 HD 
HETATM   14  C   UNL     1     -10.000  11.261  66.425  1.00  0.00    -0.215 C  
HETATM   15  C   UNL     1     -10.483  10.859  65.023  1.00  0.00    -0.331 C  
HETATM   16  C   UNL     1     -10.565  10.299  67.479  1.00  0.00    -0.320 C  
HETATM   17  C   UNL     1      -8.460  11.105  66.421  1.00  0.00    -0.167 C  
ENDBRANCH   2  12
TORSDOF 3
ENDMDL
MODEL      159
REMARK 921   NORMALIZED FREE ENERGY PREDICTED BY IDOCK:   -3.80 KCAL/MOL
REMARK 922        TOTAL FREE ENERGY PREDICTED BY IDOCK:   -4.93 KCAL/MOL
REMARK 923 INTER-LIGAND FREE ENERGY PREDICTED BY IDOCK:   -4.36 KCAL/MOL
REMARK 924 INTRA-LIGAND FREE ENERGY PREDICTED BY IDOCK:   -0.57 KCAL/MOL
REMARK 927      BINDING AFFINITY PREDICTED BY RF-SCORE:    0.00 PKD
ROOT
HETATM    1  C   UNL     1      -7.248  10.282  66.216  1.00  0.00    -0.117 C  
HETATM    2  C   UNL     1      -8.159   9.748  65.105  1.00  0.00    -0.132 C  
ENDROOT
BRANCH   2   3
HETATM    3  C   UNL     1      -9.626   9.915  65.581  1.00  0.00    -0.256 C  
HETATM    4  O   UNL     1     -10.159   9.118  66.357  1.00  0.00    -0.283 OA 
BRANCH   3   5
HETATM    5  C   UNL     1     -10.447  11.094  65.143  1.00  0.00    -0.341 A  
HETATM    6  C   UNL     1     -10.804  12.035  66.124  1.00  0.00    -0.325 A  
HETATM    7  C   UNL     1     -11.618  13.118  65.800  1.00  0.00    -0.347 A  
HETATM    8  C   UNL     1     -12.093  13.278  64.502  1.00  0.00    -0.461 A  
HETATM    9 CL   UNL     1     -12.045  14.260  67.014  1.00  0.00    -0.459 Cl 
HETATM   10  C   UNL     1     -11.718  12.369  63.514  1.00  0.00    -0.592 A  
HETATM   11  C   UNL     1     -10.884  11.289  63.827  1.00  0.00    -0.424 A  
ENDBRANCH   3   5
ENDBRANCH   2   3
BRANCH   2  12
HETATM   12  N   UNL     1      -7.887   8.324  64.795  1.00  0.00    -0.121 NA 
HETATM   13  H   UNL     1      -7.948   7.614  65.525  1.00  0.00     0.000 HD 
HETATM   14  C   UNL     1      -7.523   7.948  63.412  1.00  0.00    -0.122 C  
HETATM   15  C   UNL     1      -6.038   8.220  63.124  1.00  0.00    -0.077 C  
HETATM   16  C   UNL     1      -8.402   8.611  62.344  1.00  0.00    -0.200 C  
HETATM   17  C   UNL     1      -7.719   6.417  63.304  1.00  0.00    -0.098 C  
ENDBRANCH   2  12
TORSDOF 3
ENDMDL
MODEL      160
REMARK 921   NORMALIZED FREE ENERGY PREDICTED BY IDOCK:   -3.79 KCAL/MOL
REMARK 922        TOTAL FREE ENERGY PREDICTED BY IDOCK:   -4.92 KCAL/MOL
REMARK 923 INTER-LIGAND FREE ENERGY PREDICTED BY IDOCK:   -4.33 KCAL/MOL
REMARK 924 INTRA-LIGAND FREE ENERGY PREDICTED BY IDOCK:   -0.60 KCAL/MOL
REMARK 927      BINDING AFFINITY PREDICTED BY RF-SCORE:    0.00 PKD
ROOT
HETATM    1  C   UNL     1      -8.460   6.833  66.339  1.00  0.00    -0.126 C  
HETATM    2  C   UNL     1      -9.296   8.074  66.675  1.00  0.00    -0.197 C  
ENDROOT
BRANCH   2   3
HETATM    3  C   UNL     1     -10.511   7.606  67.519  1.00  0.00    -0.266 C  
HETATM    4  O   UNL     1     -11.385   6.868  67.057  1.00  0.00    -0.304 OA 
BRANCH   3   5
HETATM    5  C   UNL     1     -10.646   8.006  68.960  1.00  0.00    -0.169 A  
HETATM    6  C   UNL     1     -10.897   6.985  69.893  1.00  0.00    -0.280 A  
HETATM    7  C   UNL     1     -11.097   7.292  71.238  1.00  0.00    -0.247 A  
HETATM    8  C   UNL     1     -11.057   8.614  71.672  1.00  0.00    -0.375 A  
HETATM    9 CL   UNL     1     -11.403   6.030  72.366  1.00  0.00    -0.332 Cl 
HETATM   10  C   UNL     1     -10.777   9.631  70.759  1.00  0.00    -0.401 A  
HETATM   11  C   UNL     1     -10.554   9.328  69.410  1.00  0.00    -0.234 A  
ENDBRANCH   3   5
ENDBRANCH   2   3
BRANCH   2  12
HETATM   12  N   UNL     1      -9.765   8.777  65.458  1.00  0.00    -0.431 NA 
HETATM   13  H   UNL     1     -10.445   8.340  64.836  1.00  0.00     0.000 HD 
HETATM   14  C   UNL     1      -9.231  10.124  65.157  1.00  0.00    -0.213 C  
HETATM   15  C   UNL     1      -7.848  10.048  64.493  1.00  0.00    -0.145 C  
HETATM   16  C   UNL     1      -9.186  11.053  66.377  1.00  0.00    -0.192 C  
HETATM   17  C   UNL     1     -10.186  10.756  64.116  1.00  0.00    -0.412 C  
ENDBRANCH   2  12
TORSDOF 3
ENDMDL
MODEL      161
REMARK 921   NORMALIZED FREE ENERGY PREDICTED BY IDOCK:   -3.79 KCAL/MOL
REMARK 922        TOTAL FREE ENERGY PREDICTED BY IDOCK:   -4.92 KCAL/MOL
REMARK 923 INTER-LIGAND FREE ENERGY PREDICTED BY IDOCK:   -5.00 KCAL/MOL
REMARK 924 INTRA-LIGAND FREE ENERGY PREDICTED BY IDOCK:    0.08 KCAL/MOL
REMARK 927      BINDING AFFINITY PREDICTED BY RF-SCORE:    0.00 PKD
ROOT
HETATM    1  C   UNL     1     -10.809   9.571  67.841  1.00  0.00    -0.240 C  
HETATM    2  C   UNL     1     -10.319  10.793  67.056  1.00  0.00    -0.228 C  
ENDROOT
BRANCH   2   3
HETATM    3  C   UNL     1     -11.411  11.890  67.165  1.00  0.00    -0.331 C  
HETATM    4  O   UNL     1     -12.133  12.193  66.213  1.00  0.00    -0.626 OA 
BRANCH   3   5
HETATM    5  C   UNL     1     -11.660  12.600  68.465  1.00  0.00    -0.363 A  
HETATM    6  C   UNL     1     -12.160  11.837  69.534  1.00  0.00    -0.314 A  
HETATM    7  C   UNL     1     -12.474  12.444  70.748  1.00  0.00    -0.267 A  
HETATM    8  C   UNL     1     -12.302  13.815  70.915  1.00  0.00    -0.456 A  
HETATM    9 CL   UNL     1     -13.086  11.494  72.046  1.00  0.00    -0.549 Cl 
HETATM   10  C   UNL     1     -11.777  14.576  69.872  1.00  0.00    -0.354 A  
HETATM   11  C   UNL     1     -11.439  13.970  68.655  1.00  0.00    -0.337 A  
ENDBRANCH   3   5
ENDBRANCH   2   3
BRANCH   2  12
HETATM   12  N   UNL     1     -10.061  10.475  65.631  1.00  0.00    -0.264 NA 
HETATM   13  H   UNL     1     -10.794  10.599  64.932  1.00  0.00     0.000 HD 
HETATM   14  C   UNL     1      -8.726   9.976  65.239  1.00  0.00    -0.163 C  
HETATM   15  C   UNL     1      -8.577   8.473  65.526  1.00  0.00    -0.204 C  
HETATM   16  C   UNL     1      -7.567  10.756  65.872  1.00  0.00    -0.106 C  
HETATM   17  C   UNL     1      -8.625  10.142  63.704  1.00  0.00    -0.199 C  
ENDBRANCH   2  12
TORSDOF 3
ENDMDL
MODEL      162
REMARK 921   NORMALIZED FREE ENERGY PREDICTED BY IDOCK:   -3.78 KCAL/MOL
REMARK 922        TOTAL FREE ENERGY PREDICTED BY IDOCK:   -4.91 KCAL/MOL
REMARK 923 INTER-LIGAND FREE ENERGY PREDICTED BY IDOCK:   -4.40 KCAL/MOL
REMARK 924 INTRA-LIGAND FREE ENERGY PREDICTED BY IDOCK:   -0.51 KCAL/MOL
REMARK 927      BINDING AFFINITY PREDICTED BY RF-SCORE:    0.00 PKD
ROOT
HETATM    1  C   UNL     1     -11.025   6.328  67.987  1.00  0.00    -0.418 C  
HETATM    2  C   UNL     1     -10.175   7.485  68.522  1.00  0.00    -0.197 C  
ENDROOT
BRANCH   2   3
HETATM    3  C   UNL     1      -9.201   6.902  69.579  1.00  0.00    -0.148 C  
HETATM    4  O   UNL     1      -8.089   6.463  69.275  1.00  0.00    -0.108 OA 
BRANCH   3   5
HETATM    5  C   UNL     1      -9.564   6.891  71.036  1.00  0.00    -0.172 A  
HETATM    6  C   UNL     1     -10.190   5.736  71.538  1.00  0.00    -0.255 A  
HETATM    7  C   UNL     1     -10.612   5.681  72.864  1.00  0.00    -0.232 A  
HETATM    8  C   UNL     1     -10.426   6.773  73.708  1.00  0.00    -0.383 A  
HETATM    9 CL   UNL     1     -11.375   4.260  73.461  1.00  0.00    -0.359 Cl 
HETATM   10  C   UNL     1      -9.779   7.912  73.229  1.00  0.00    -0.352 A  
HETATM   11  C   UNL     1      -9.333   7.966  71.903  1.00  0.00    -0.204 A  
ENDBRANCH   3   5
ENDBRANCH   2   3
BRANCH   2  12
HETATM   12  N   UNL     1     -11.004   8.553  69.132  1.00  0.00    -0.430 NA 
HETATM   13  H   UNL     1     -11.816   8.316  69.702  1.00  0.00     0.000 HD 
HETATM   14  C   UNL     1     -10.637   9.966  68.899  1.00  0.00    -0.218 C  
HETATM   15  C   UNL     1     -11.132  10.462  67.532  1.00  0.00    -0.336 C  
HETATM   16  C   UNL     1      -9.136  10.245  69.055  1.00  0.00    -0.187 C  
HETATM   17  C   UNL     1     -11.386  10.799  69.968  1.00  0.00    -0.397 C  
ENDBRANCH   2  12
TORSDOF 3
ENDMDL
MODEL      163
REMARK 921   NORMALIZED FREE ENERGY PREDICTED BY IDOCK:   -3.77 KCAL/MOL
REMARK 922        TOTAL FREE ENERGY PREDICTED BY IDOCK:   -4.90 KCAL/MOL
REMARK 923 INTER-LIGAND FREE ENERGY PREDICTED BY IDOCK:   -4.28 KCAL/MOL
REMARK 924 INTRA-LIGAND FREE ENERGY PREDICTED BY IDOCK:   -0.62 KCAL/MOL
REMARK 927      BINDING AFFINITY PREDICTED BY RF-SCORE:    0.00 PKD
ROOT
HETATM    1  C   UNL     1      -9.533  10.850  69.054  1.00  0.00    -0.160 C  
HETATM    2  C   UNL     1     -10.359  11.396  67.883  1.00  0.00    -0.182 C  
ENDROOT
BRANCH   2   3
HETATM    3  C   UNL     1     -10.455  10.276  66.814  1.00  0.00    -0.214 C  
HETATM    4  O   UNL     1     -10.868   9.145  67.085  1.00  0.00    -0.212 OA 
BRANCH   3   5
HETATM    5  C   UNL     1     -10.086  10.545  65.384  1.00  0.00    -0.358 A  
HETATM    6  C   UNL     1      -8.855  10.043  64.928  1.00  0.00    -0.219 A  
HETATM    7  C   UNL     1      -8.420  10.310  63.631  1.00  0.00    -0.183 A  
HETATM    8  C   UNL     1      -9.198  11.083  62.774  1.00  0.00    -0.374 A  
HETATM    9 CL   UNL     1      -6.911   9.687  63.090  1.00  0.00    -0.104 Cl 
HETATM   10  C   UNL     1     -10.435  11.559  63.205  1.00  0.00    -0.421 A  
HETATM   11  C   UNL     1     -10.888  11.278  64.500  1.00  0.00    -0.354 A  
ENDBRANCH   3   5
ENDBRANCH   2   3
BRANCH   2  12
HETATM   12  N   UNL     1      -9.751  12.611  67.291  1.00  0.00    -0.204 NA 
HETATM   13  H   UNL     1      -8.801  12.587  66.920  1.00  0.00     0.000 HD 
HETATM   14  C   UNL     1     -10.543  13.860  67.246  1.00  0.00    -0.276 C  
HETATM   15  C   UNL     1     -10.519  14.594  68.596  1.00  0.00    -0.244 C  
HETATM   16  C   UNL     1     -11.989  13.654  66.778  1.00  0.00    -0.458 C  
HETATM   17  C   UNL     1      -9.844  14.790  66.226  1.00  0.00    -0.316 C  
ENDBRANCH   2  12
TORSDOF 3
ENDMDL
MODEL      164
REMARK 921   NORMALIZED FREE ENERGY PREDICTED BY IDOCK:   -3.77 KCAL/MOL
REMARK 922        TOTAL FREE ENERGY PREDICTED BY IDOCK:   -4.90 KCAL/MOL
REMARK 923 INTER-LIGAND FREE ENERGY PREDICTED BY IDOCK:   -4.45 KCAL/MOL
REMARK 924 INTRA-LIGAND FREE ENERGY PREDICTED BY IDOCK:   -0.45 KCAL/MOL
REMARK 927      BINDING AFFINITY PREDICTED BY RF-SCORE:    0.00 PKD
ROOT
HETATM    1  C   UNL     1     -11.262   6.309  69.315  1.00  0.00    -0.458 C  
HETATM    2  C   UNL     1      -9.874   6.821  69.718  1.00  0.00    -0.166 C  
ENDROOT
BRANCH   2   3
HETATM    3  C   UNL     1     -10.028   7.595  71.053  1.00  0.00    -0.182 C  
HETATM    4  O   UNL     1      -9.215   7.482  71.974  1.00  0.00    -0.130 OA 
BRANCH   3   5
HETATM    5  C   UNL     1     -11.165   8.554  71.259  1.00  0.00    -0.321 A  
HETATM    6  C   UNL     1     -11.071   9.812  70.638  1.00  0.00    -0.398 A  
HETATM    7  C   UNL     1     -12.059  10.773  70.839  1.00  0.00    -0.370 A  
HETATM    8  C   UNL     1     -13.148  10.503  71.662  1.00  0.00    -0.551 A  
HETATM    9 CL   UNL     1     -11.927  12.307  70.071  1.00  0.00    -0.404 Cl 
HETATM   10  C   UNL     1     -13.268   9.247  72.257  1.00  0.00    -0.535 A  
HETATM   11  C   UNL     1     -12.289   8.268  72.043  1.00  0.00    -0.395 A  
ENDBRANCH   3   5
ENDBRANCH   2   3
BRANCH   2  12
HETATM   12  N   UNL     1      -9.284   7.706  68.685  1.00  0.00    -0.142 NA 
HETATM   13  H   UNL     1      -9.756   8.567  68.409  1.00  0.00     0.000 HD 
HETATM   14  C   UNL     1      -8.000   7.321  68.060  1.00  0.00    -0.119 C  
HETATM   15  C   UNL     1      -8.202   6.279  66.949  1.00  0.00    -0.109 C  
HETATM   16  C   UNL     1      -6.949   6.831  69.065  1.00  0.00    -0.082 C  
HETATM   17  C   UNL     1      -7.443   8.593  67.376  1.00  0.00    -0.089 C  
ENDBRANCH   2  12
TORSDOF 3
ENDMDL
MODEL      165
REMARK 921   NORMALIZED FREE ENERGY PREDICTED BY IDOCK:   -3.77 KCAL/MOL
REMARK 922        TOTAL FREE ENERGY PREDICTED BY IDOCK:   -4.90 KCAL/MOL
REMARK 923 INTER-LIGAND FREE ENERGY PREDICTED BY IDOCK:   -4.35 KCAL/MOL
REMARK 924 INTRA-LIGAND FREE ENERGY PREDICTED BY IDOCK:   -0.55 KCAL/MOL
REMARK 927      BINDING AFFINITY PREDICTED BY RF-SCORE:    0.00 PKD
ROOT
HETATM    1  C   UNL     1     -10.611  16.662  65.768  1.00  0.00    -0.278 C  
HETATM    2  C   UNL     1      -9.725  16.087  66.879  1.00  0.00    -0.235 C  
ENDROOT
BRANCH   2   3
HETATM    3  C   UNL     1     -10.652  15.360  67.889  1.00  0.00    -0.267 C  
HETATM    4  O   UNL     1     -11.320  15.973  68.724  1.00  0.00    -0.344 OA 
BRANCH   3   5
HETATM    5  C   UNL     1     -10.803  13.867  67.855  1.00  0.00    -0.256 A  
HETATM    6  C   UNL     1     -10.020  13.157  66.928  1.00  0.00    -0.245 A  
HETATM    7  C   UNL     1     -10.156  11.777  66.798  1.00  0.00    -0.209 A  
HETATM    8  C   UNL     1     -11.075  11.084  67.582  1.00  0.00    -0.363 A  
HETATM    9 CL   UNL     1      -9.189  10.926  65.658  1.00  0.00    -0.216 Cl 
HETATM   10  C   UNL     1     -11.833  11.773  68.527  1.00  0.00    -0.365 A  
HETATM   11  C   UNL     1     -11.687  13.157  68.677  1.00  0.00    -0.362 A  
ENDBRANCH   3   5
ENDBRANCH   2   3
BRANCH   2  12
HETATM   12  N   UNL     1      -8.947  17.141  67.574  1.00  0.00    -0.219 NA 
HETATM   13  H   UNL     1      -9.411  17.801  68.198  1.00  0.00     0.000 HD 
HETATM   14  C   UNL     1      -7.488  17.221  67.348  1.00  0.00    -0.170 C  
HETATM   15  C   UNL     1      -7.158  17.946  66.034  1.00  0.00    -0.340 C  
HETATM   16  C   UNL     1      -6.782  15.860  67.397  1.00  0.00    -0.229 C  
HETATM   17  C   UNL     1      -6.911  18.094  68.488  1.00  0.00    -0.250 C  
ENDBRANCH   2  12
TORSDOF 3
ENDMDL
MODEL      166
REMARK 921   NORMALIZED FREE ENERGY PREDICTED BY IDOCK:   -3.75 KCAL/MOL
REMARK 922        TOTAL FREE ENERGY PREDICTED BY IDOCK:   -4.88 KCAL/MOL
REMARK 923 INTER-LIGAND FREE ENERGY PREDICTED BY IDOCK:   -4.54 KCAL/MOL
REMARK 924 INTRA-LIGAND FREE ENERGY PREDICTED BY IDOCK:   -0.34 KCAL/MOL
REMARK 927      BINDING AFFINITY PREDICTED BY RF-SCORE:    0.00 PKD
ROOT
HETATM    1  C   UNL     1      -9.030  11.442  67.537  1.00  0.00    -0.150 C  
HETATM    2  C   UNL     1     -10.077  11.554  66.423  1.00  0.00    -0.216 C  
ENDROOT
BRANCH   2   3
HETATM    3  C   UNL     1      -9.684  10.550  65.307  1.00  0.00    -0.270 C  
HETATM    4  O   UNL     1      -9.547  10.897  64.131  1.00  0.00    -0.233 OA 
BRANCH   3   5
HETATM    5  C   UNL     1      -9.410   9.110  65.630  1.00  0.00    -0.300 A  
HETATM    6  C   UNL     1     -10.257   8.483  66.561  1.00  0.00    -0.286 A  
HETATM    7  C   UNL     1     -10.023   7.168  66.956  1.00  0.00    -0.217 A  
HETATM    8  C   UNL     1      -8.941   6.460  66.438  1.00  0.00    -0.162 A  
HETATM    9 CL   UNL     1     -11.070   6.417  68.095  1.00  0.00    -0.387 Cl 
HETATM   10  C   UNL     1      -8.114   7.061  65.490  1.00  0.00    -0.132 A  
HETATM   11  C   UNL     1      -8.356   8.376  65.073  1.00  0.00    -0.169 A  
ENDBRANCH   3   5
ENDBRANCH   2   3
BRANCH   2  12
HETATM   12  N   UNL     1     -10.154  12.926  65.866  1.00  0.00    -0.286 NA 
HETATM   13  H   UNL     1      -9.305  13.432  65.614  1.00  0.00     0.000 HD 
HETATM   14  C   UNL     1     -11.482  13.550  65.681  1.00  0.00    -0.315 C  
HETATM   15  C   UNL     1     -12.022  14.132  66.997  1.00  0.00    -0.471 C  
HETATM   16  C   UNL     1     -12.519  12.613  65.048  1.00  0.00    -0.556 C  
HETATM   17  C   UNL     1     -11.278  14.747  64.722  1.00  0.00    -0.392 C  
ENDBRANCH   2  12
TORSDOF 3
ENDMDL
MODEL      167
REMARK 921   NORMALIZED FREE ENERGY PREDICTED BY IDOCK:   -3.74 KCAL/MOL
REMARK 922        TOTAL FREE ENERGY PREDICTED BY IDOCK:   -4.86 KCAL/MOL
REMARK 923 INTER-LIGAND FREE ENERGY PREDICTED BY IDOCK:   -4.26 KCAL/MOL
REMARK 924 INTRA-LIGAND FREE ENERGY PREDICTED BY IDOCK:   -0.60 KCAL/MOL
REMARK 927      BINDING AFFINITY PREDICTED BY RF-SCORE:    0.00 PKD
ROOT
HETATM    1  C   UNL     1      -7.491  13.596  68.671  1.00  0.00    -0.113 C  
HETATM    2  C   UNL     1      -8.875  13.589  68.011  1.00  0.00    -0.181 C  
ENDROOT
BRANCH   2   3
HETATM    3  C   UNL     1      -9.636  14.848  68.505  1.00  0.00    -0.215 C  
HETATM    4  O   UNL     1      -9.985  14.984  69.680  1.00  0.00    -0.189 OA 
BRANCH   3   5
HETATM    5  C   UNL     1      -9.942  15.978  67.566  1.00  0.00    -0.240 A  
HETATM    6  C   UNL     1      -9.955  17.278  68.101  1.00  0.00    -0.303 A  
HETATM    7  C   UNL     1     -10.294  18.368  67.301  1.00  0.00    -0.392 A  
HETATM    8  C   UNL     1     -10.631  18.181  65.963  1.00  0.00    -0.278 A  
HETATM    9 CL   UNL     1     -10.304  19.951  67.972  1.00  0.00    -0.561 Cl 
HETATM   10  C   UNL     1     -10.591  16.899  65.414  1.00  0.00    -0.177 A  
HETATM   11  C   UNL     1     -10.231  15.802  66.207  1.00  0.00    -0.317 A  
ENDBRANCH   3   5
ENDBRANCH   2   3
BRANCH   2  12
HETATM   12  N   UNL     1      -9.646  12.367  68.345  1.00  0.00    -0.301 NA 
HETATM   13  H   UNL     1      -9.962  12.198  69.300  1.00  0.00     0.000 HD 
HETATM   14  C   UNL     1      -9.950  11.397  67.271  1.00  0.00    -0.194 C  
HETATM   15  C   UNL     1      -8.753  10.476  66.985  1.00  0.00    -0.132 C  
HETATM   16  C   UNL     1     -10.441  12.050  65.972  1.00  0.00    -0.284 C  
HETATM   17  C   UNL     1     -11.086  10.490  67.803  1.00  0.00    -0.382 C  
ENDBRANCH   2  12
TORSDOF 3
ENDMDL
MODEL      168
REMARK 921   NORMALIZED FREE ENERGY PREDICTED BY IDOCK:   -3.73 KCAL/MOL
REMARK 922        TOTAL FREE ENERGY PREDICTED BY IDOCK:   -4.85 KCAL/MOL
REMARK 923 INTER-LIGAND FREE ENERGY PREDICTED BY IDOCK:   -4.26 KCAL/MOL
REMARK 924 INTRA-LIGAND FREE ENERGY PREDICTED BY IDOCK:   -0.59 KCAL/MOL
REMARK 927      BINDING AFFINITY PREDICTED BY RF-SCORE:    0.00 PKD
ROOT
HETATM    1  C   UNL     1      -9.844  10.315  69.498  1.00  0.00    -0.244 C  
HETATM    2  C   UNL     1      -9.101  10.405  68.159  1.00  0.00    -0.142 C  
ENDROOT
BRANCH   2   3
HETATM    3  C   UNL     1     -10.062   9.895  67.054  1.00  0.00    -0.218 C  
HETATM    4  O   UNL     1     -10.578   8.775  67.099  1.00  0.00    -0.291 OA 
BRANCH   3   5
HETATM    5  C   UNL     1     -10.437  10.774  65.896  1.00  0.00    -0.270 A  
HETATM    6  C   UNL     1     -11.281  11.867  66.160  1.00  0.00    -0.387 A  
HETATM    7  C   UNL     1     -11.720  12.686  65.123  1.00  0.00    -0.367 A  
HETATM    8  C   UNL     1     -11.335  12.428  63.810  1.00  0.00    -0.536 A  
HETATM    9 CL   UNL     1     -12.752  14.020  65.464  1.00  0.00    -0.554 Cl 
HETATM   10  C   UNL     1     -10.473  11.365  63.541  1.00  0.00    -0.477 A  
HETATM   11  C   UNL     1     -10.011  10.550  64.581  1.00  0.00    -0.415 A  
ENDBRANCH   3   5
ENDBRANCH   2   3
BRANCH   2  12
HETATM   12  N   UNL     1      -7.855   9.602  68.158  1.00  0.00    -0.086 NA 
HETATM   13  H   UNL     1      -7.867   8.625  68.451  1.00  0.00     0.000 HD 
HETATM   14  C   UNL     1      -6.592  10.239  67.724  1.00  0.00    -0.066 C  
HETATM   15  C   UNL     1      -5.966  11.076  68.850  1.00  0.00    -0.040 C  
HETATM   16  C   UNL     1      -6.735  11.082  66.450  1.00  0.00    -0.123 C  
HETATM   17  C   UNL     1      -5.599   9.092  67.423  1.00  0.00    -0.042 C  
ENDBRANCH   2  12
TORSDOF 3
ENDMDL
MODEL      169
REMARK 921   NORMALIZED FREE ENERGY PREDICTED BY IDOCK:   -3.73 KCAL/MOL
REMARK 922        TOTAL FREE ENERGY PREDICTED BY IDOCK:   -4.85 KCAL/MOL
REMARK 923 INTER-LIGAND FREE ENERGY PREDICTED BY IDOCK:   -4.20 KCAL/MOL
REMARK 924 INTRA-LIGAND FREE ENERGY PREDICTED BY IDOCK:   -0.64 KCAL/MOL
REMARK 927      BINDING AFFINITY PREDICTED BY RF-SCORE:    0.00 PKD
ROOT
HETATM    1  C   UNL     1      -8.144  11.532  67.306  1.00  0.00    -0.153 C  
HETATM    2  C   UNL     1      -8.683  12.871  66.790  1.00  0.00    -0.106 C  
ENDROOT
BRANCH   2   3
HETATM    3  C   UNL     1      -8.065  13.994  67.664  1.00  0.00    -0.174 C  
HETATM    4  O   UNL     1      -6.915  13.924  68.105  1.00  0.00    -0.092 OA 
BRANCH   3   5
HETATM    5  C   UNL     1      -8.839  15.243  67.971  1.00  0.00    -0.169 A  
HETATM    6  C   UNL     1      -9.686  15.220  69.093  1.00  0.00    -0.243 A  
HETATM    7  C   UNL     1     -10.481  16.322  69.400  1.00  0.00    -0.292 A  
HETATM    8  C   UNL     1     -10.453  17.457  68.595  1.00  0.00    -0.355 A  
HETATM    9 CL   UNL     1     -11.511  16.276  70.777  1.00  0.00    -0.399 Cl 
HETATM   10  C   UNL     1      -9.593  17.503  67.498  1.00  0.00    -0.265 A  
HETATM   11  C   UNL     1      -8.775  16.407  67.195  1.00  0.00    -0.207 A  
ENDBRANCH   3   5
ENDBRANCH   2   3
BRANCH   2  12
HETATM   12  N   UNL     1     -10.163  12.939  66.852  1.00  0.00    -0.240 NA 
HETATM   13  H   UNL     1     -10.650  12.823  67.741  1.00  0.00     0.000 HD 
HETATM   14  C   UNL     1     -10.922  13.175  65.605  1.00  0.00    -0.277 C  
HETATM   15  C   UNL     1     -11.087  11.882  64.790  1.00  0.00    -0.367 C  
HETATM   16  C   UNL     1     -10.333  14.286  64.727  1.00  0.00    -0.373 C  
HETATM   17  C   UNL     1     -12.345  13.612  66.030  1.00  0.00    -0.493 C  
ENDBRANCH   2  12
TORSDOF 3
ENDMDL
MODEL      170
REMARK 921   NORMALIZED FREE ENERGY PREDICTED BY IDOCK:   -3.71 KCAL/MOL
REMARK 922        TOTAL FREE ENERGY PREDICTED BY IDOCK:   -4.83 KCAL/MOL
REMARK 923 INTER-LIGAND FREE ENERGY PREDICTED BY IDOCK:   -4.37 KCAL/MOL
REMARK 924 INTRA-LIGAND FREE ENERGY PREDICTED BY IDOCK:   -0.46 KCAL/MOL
REMARK 927      BINDING AFFINITY PREDICTED BY RF-SCORE:    0.00 PKD
ROOT
HETATM    1  C   UNL     1     -10.909  16.183  65.058  1.00  0.00    -0.380 C  
HETATM    2  C   UNL     1      -9.913  16.466  66.188  1.00  0.00    -0.339 C  
ENDROOT
BRANCH   2   3
HETATM    3  C   UNL     1      -9.700  15.143  66.969  1.00  0.00    -0.231 C  
HETATM    4  O   UNL     1     -10.573  14.275  67.039  1.00  0.00    -0.276 OA 
BRANCH   3   5
HETATM    5  C   UNL     1      -8.389  14.849  67.638  1.00  0.00    -0.178 A  
HETATM    6  C   UNL     1      -7.850  15.844  68.473  1.00  0.00    -0.142 A  
HETATM    7  C   UNL     1      -6.607  15.664  69.075  1.00  0.00    -0.130 A  
HETATM    8  C   UNL     1      -5.879  14.498  68.852  1.00  0.00    -0.085 A  
HETATM    9 CL   UNL     1      -5.964  16.892  70.094  1.00  0.00    -0.194 Cl 
HETATM   10  C   UNL     1      -6.417  13.491  68.052  1.00  0.00    -0.135 A  
HETATM   11  C   UNL     1      -7.676  13.657  67.460  1.00  0.00    -0.183 A  
ENDBRANCH   3   5
ENDBRANCH   2   3
BRANCH   2  12
HETATM   12  N   UNL     1     -10.398  17.524  67.107  1.00  0.00    -0.329 NA 
HETATM   13  H   UNL     1     -11.108  17.315  67.810  1.00  0.00     0.000 HD 
HETATM   14  C   UNL     1      -9.838  18.888  66.990  1.00  0.00    -0.324 C  
HETATM   15  C   UNL     1     -10.501  19.675  65.850  1.00  0.00    -0.591 C  
HETATM   16  C   UNL     1      -8.311  18.914  66.838  1.00  0.00    -0.289 C  
HETATM   17  C   UNL     1     -10.195  19.627  68.302  1.00  0.00    -0.567 C  
ENDBRANCH   2  12
TORSDOF 3
ENDMDL
MODEL      171
REMARK 921   NORMALIZED FREE ENERGY PREDICTED BY IDOCK:   -3.71 KCAL/MOL
REMARK 922        TOTAL FREE ENERGY PREDICTED BY IDOCK:   -4.83 KCAL/MOL
REMARK 923 INTER-LIGAND FREE ENERGY PREDICTED BY IDOCK:   -4.43 KCAL/MOL
REMARK 924 INTRA-LIGAND FREE ENERGY PREDICTED BY IDOCK:   -0.40 KCAL/MOL
REMARK 927      BINDING AFFINITY PREDICTED BY RF-SCORE:    0.00 PKD
ROOT
HETATM    1  C   UNL     1      -8.660  13.406  68.139  1.00  0.00    -0.174 C  
HETATM    2  C   UNL     1     -10.023  14.081  68.336  1.00  0.00    -0.236 C  
ENDROOT
BRANCH   2   3
HETATM    3  C   UNL     1     -11.113  13.085  67.860  1.00  0.00    -0.255 C  
HETATM    4  O   UNL     1     -12.156  13.463  67.321  1.00  0.00    -0.361 OA 
BRANCH   3   5
HETATM    5  C   UNL     1     -10.915  11.604  68.002  1.00  0.00    -0.275 A  
HETATM    6  C   UNL     1     -11.076  11.049  69.284  1.00  0.00    -0.312 A  
HETATM    7  C   UNL     1     -10.845   9.692  69.500  1.00  0.00    -0.231 A  
HETATM    8  C   UNL     1     -10.446   8.870  68.450  1.00  0.00    -0.230 A  
HETATM    9 CL   UNL     1     -11.047   9.031  71.075  1.00  0.00    -0.328 Cl 
HETATM   10  C   UNL     1     -10.315   9.403  67.169  1.00  0.00    -0.326 A  
HETATM   11  C   UNL     1     -10.565  10.762  66.940  1.00  0.00    -0.312 A  
ENDBRANCH   3   5
ENDBRANCH   2   3
BRANCH   2  12
HETATM   12  N   UNL     1     -10.131  15.351  67.578  1.00  0.00    -0.232 NA 
HETATM   13  H   UNL     1     -10.254  15.341  66.565  1.00  0.00     0.000 HD 
HETATM   14  C   UNL     1     -10.056  16.632  68.313  1.00  0.00    -0.268 C  
HETATM   15  C   UNL     1      -8.603  17.024  68.621  1.00  0.00    -0.265 C  
HETATM   16  C   UNL     1     -10.897  16.655  69.596  1.00  0.00    -0.282 C  
HETATM   17  C   UNL     1     -10.613  17.719  67.363  1.00  0.00    -0.341 C  
ENDBRANCH   2  12
TORSDOF 3
ENDMDL
MODEL      172
REMARK 921   NORMALIZED FREE ENERGY PREDICTED BY IDOCK:   -3.70 KCAL/MOL
REMARK 922        TOTAL FREE ENERGY PREDICTED BY IDOCK:   -4.82 KCAL/MOL
REMARK 923 INTER-LIGAND FREE ENERGY PREDICTED BY IDOCK:   -4.24 KCAL/MOL
REMARK 924 INTRA-LIGAND FREE ENERGY PREDICTED BY IDOCK:   -0.58 KCAL/MOL
REMARK 927      BINDING AFFINITY PREDICTED BY RF-SCORE:    0.00 PKD
ROOT
HETATM    1  C   UNL     1      -9.457  11.619  68.575  1.00  0.00    -0.175 C  
HETATM    2  C   UNL     1      -8.958  12.629  67.536  1.00  0.00    -0.187 C  
ENDROOT
BRANCH   2   3
HETATM    3  C   UNL     1      -9.044  11.951  66.143  1.00  0.00    -0.161 C  
HETATM    4  O   UNL     1      -8.267  11.057  65.800  1.00  0.00    -0.147 OA 
BRANCH   3   5
HETATM    5  C   UNL     1     -10.117  12.336  65.166  1.00  0.00    -0.284 A  
HETATM    6  C   UNL     1     -10.506  13.686  65.131  1.00  0.00    -0.388 A  
HETATM    7  C   UNL     1     -11.540  14.102  64.294  1.00  0.00    -0.309 A  
HETATM    8  C   UNL     1     -12.205  13.182  63.488  1.00  0.00    -0.552 A  
HETATM    9 CL   UNL     1     -12.003  15.758  64.264  1.00  0.00    -0.230 Cl 
HETATM   10  C   UNL     1     -11.806  11.846  63.491  1.00  0.00    -0.560 A  
HETATM   11  C   UNL     1     -10.754  11.425  64.314  1.00  0.00    -0.420 A  
ENDBRANCH   3   5
ENDBRANCH   2   3
BRANCH   2  12
HETATM   12  N   UNL     1      -7.565  13.063  67.803  1.00  0.00    -0.136 NA 
HETATM   13  H   UNL     1      -6.809  12.379  67.848  1.00  0.00     0.000 HD 
HETATM   14  C   UNL     1      -7.289  14.501  68.005  1.00  0.00    -0.138 C  
HETATM   15  C   UNL     1      -7.626  14.947  69.436  1.00  0.00    -0.162 C  
HETATM   16  C   UNL     1      -7.988  15.411  66.986  1.00  0.00    -0.259 C  
HETATM   17  C   UNL     1      -5.762  14.686  67.834  1.00  0.00    -0.129 C  
ENDBRANCH   2  12
TORSDOF 3
ENDMDL
MODEL      173
REMARK 921   NORMALIZED FREE ENERGY PREDICTED BY IDOCK:   -3.70 KCAL/MOL
REMARK 922        TOTAL FREE ENERGY PREDICTED BY IDOCK:   -4.82 KCAL/MOL
REMARK 923 INTER-LIGAND FREE ENERGY PREDICTED BY IDOCK:   -4.25 KCAL/MOL
REMARK 924 INTRA-LIGAND FREE ENERGY PREDICTED BY IDOCK:   -0.57 KCAL/MOL
REMARK 927      BINDING AFFINITY PREDICTED BY RF-SCORE:    0.00 PKD
ROOT
HETATM    1  C   UNL     1     -11.944  12.414  69.055  1.00  0.00    -0.291 C  
HETATM    2  C   UNL     1     -11.201  12.145  67.742  1.00  0.00    -0.275 C  
ENDROOT
BRANCH   2   3
HETATM    3  C   UNL     1      -9.906  11.363  68.087  1.00  0.00    -0.191 C  
HETATM    4  O   UNL     1      -8.867  11.934  68.429  1.00  0.00    -0.178 OA 
BRANCH   3   5
HETATM    5  C   UNL     1      -9.884   9.862  68.060  1.00  0.00    -0.170 A  
HETATM    6  C   UNL     1      -9.199   9.206  69.097  1.00  0.00    -0.144 A  
HETATM    7  C   UNL     1      -9.084   7.817  69.099  1.00  0.00    -0.145 A  
HETATM    8  C   UNL     1      -9.641   7.063  68.070  1.00  0.00    -0.133 A  
HETATM    9 CL   UNL     1      -8.243   7.031  70.377  1.00  0.00    -0.122 Cl 
HETATM   10  C   UNL     1     -10.350   7.702  67.053  1.00  0.00    -0.400 A  
HETATM   11  C   UNL     1     -10.487   9.095  67.055  1.00  0.00    -0.311 A  
ENDBRANCH   3   5
ENDBRANCH   2   3
BRANCH   2  12
HETATM   12  N   UNL     1     -10.860  13.398  67.027  1.00  0.00    -0.271 NA 
HETATM   13  H   UNL     1     -10.360  14.148  67.505  1.00  0.00     0.000 HD 
HETATM   14  C   UNL     1     -11.258  13.545  65.610  1.00  0.00    -0.292 C  
HETATM   15  C   UNL     1     -12.733  13.954  65.476  1.00  0.00    -0.536 C  
HETATM   16  C   UNL     1     -10.971  12.302  64.759  1.00  0.00    -0.346 C  
HETATM   17  C   UNL     1     -10.422  14.714  65.036  1.00  0.00    -0.447 C  
ENDBRANCH   2  12
TORSDOF 3
ENDMDL
MODEL      174
REMARK 921   NORMALIZED FREE ENERGY PREDICTED BY IDOCK:   -3.68 KCAL/MOL
REMARK 922        TOTAL FREE ENERGY PREDICTED BY IDOCK:   -4.79 KCAL/MOL
REMARK 923 INTER-LIGAND FREE ENERGY PREDICTED BY IDOCK:   -4.17 KCAL/MOL
REMARK 924 INTRA-LIGAND FREE ENERGY PREDICTED BY IDOCK:   -0.62 KCAL/MOL
REMARK 927      BINDING AFFINITY PREDICTED BY RF-SCORE:    0.00 PKD
ROOT
HETATM    1  C   UNL     1     -11.176  10.559  69.922  1.00  0.00    -0.374 C  
HETATM    2  C   UNL     1     -10.605  11.522  68.875  1.00  0.00    -0.204 C  
ENDROOT
BRANCH   2   3
HETATM    3  C   UNL     1     -11.307  12.892  69.066  1.00  0.00    -0.290 C  
HETATM    4  O   UNL     1     -12.152  13.079  69.945  1.00  0.00    -0.313 OA 
BRANCH   3   5
HETATM    5  C   UNL     1     -10.947  14.067  68.203  1.00  0.00    -0.268 A  
HETATM    6  C   UNL     1     -10.143  15.068  68.776  1.00  0.00    -0.231 A  
HETATM    7  C   UNL     1      -9.824  16.216  68.053  1.00  0.00    -0.231 A  
HETATM    8  C   UNL     1     -10.303  16.388  66.758  1.00  0.00    -0.293 A  
HETATM    9 CL   UNL     1      -8.839  17.431  68.770  1.00  0.00    -0.256 Cl 
HETATM   10  C   UNL     1     -11.074  15.387  66.169  1.00  0.00    -0.230 A  
HETATM   11  C   UNL     1     -11.382  14.222  66.881  1.00  0.00    -0.354 A  
ENDBRANCH   3   5
ENDBRANCH   2   3
BRANCH   2  12
HETATM   12  N   UNL     1     -10.817  11.032  67.492  1.00  0.00    -0.244 NA 
HETATM   13  H   UNL     1     -11.755  10.995  67.093  1.00  0.00     0.000 HD 
HETATM   14  C   UNL     1      -9.647  10.597  66.699  1.00  0.00    -0.175 C  
HETATM   15  C   UNL     1      -9.217   9.167  67.062  1.00  0.00    -0.167 C  
HETATM   16  C   UNL     1      -8.450  11.553  66.794  1.00  0.00    -0.168 C  
HETATM   17  C   UNL     1     -10.104  10.558  65.221  1.00  0.00    -0.369 C  
ENDBRANCH   2  12
TORSDOF 3
ENDMDL
MODEL      175
REMARK 921   NORMALIZED FREE ENERGY PREDICTED BY IDOCK:   -3.65 KCAL/MOL
REMARK 922        TOTAL FREE ENERGY PREDICTED BY IDOCK:   -4.75 KCAL/MOL
REMARK 923 INTER-LIGAND FREE ENERGY PREDICTED BY IDOCK:   -4.16 KCAL/MOL
REMARK 924 INTRA-LIGAND FREE ENERGY PREDICTED BY IDOCK:   -0.60 KCAL/MOL
REMARK 927      BINDING AFFINITY PREDICTED BY RF-SCORE:    0.00 PKD
ROOT
HETATM    1  C   UNL     1      -8.389  10.660  68.761  1.00  0.00    -0.144 C  
HETATM    2  C   UNL     1      -9.478  11.494  68.077  1.00  0.00    -0.181 C  
ENDROOT
BRANCH   2   3
HETATM    3  C   UNL     1     -10.231  10.564  67.090  1.00  0.00    -0.223 C  
HETATM    4  O   UNL     1     -10.903   9.605  67.478  1.00  0.00    -0.286 OA 
BRANCH   3   5
HETATM    5  C   UNL     1     -10.203  10.827  65.613  1.00  0.00    -0.320 A  
HETATM    6  C   UNL     1     -11.121  11.763  65.104  1.00  0.00    -0.341 A  
HETATM    7  C   UNL     1     -11.194  12.008  63.735  1.00  0.00    -0.440 A  
HETATM    8  C   UNL     1     -10.363  11.324  62.852  1.00  0.00    -0.138 A  
HETATM    9 CL   UNL     1     -12.323  13.157  63.131  1.00  0.00    -0.426 Cl 
HETATM   10  C   UNL     1      -9.427  10.417  63.348  1.00  0.00    -0.356 A  
HETATM   11  C   UNL     1      -9.334  10.181  64.725  1.00  0.00    -0.324 A  
ENDBRANCH   3   5
ENDBRANCH   2   3
BRANCH   2  12
HETATM   12  N   UNL     1      -8.915  12.657  67.348  1.00  0.00    -0.181 NA 
HETATM   13  H   UNL     1      -8.287  12.517  66.556  1.00  0.00     0.000 HD 
HETATM   14  C   UNL     1      -9.278  14.022  67.786  1.00  0.00    -0.195 C  
HETATM   15  C   UNL     1      -8.442  14.468  68.996  1.00  0.00    -0.048 C  
HETATM   16  C   UNL     1     -10.774  14.196  68.080  1.00  0.00    -0.248 C  
HETATM   17  C   UNL     1      -8.910  14.972  66.622  1.00  0.00    -0.307 C  
ENDBRANCH   2  12
TORSDOF 3
ENDMDL
MODEL      176
REMARK 921   NORMALIZED FREE ENERGY PREDICTED BY IDOCK:   -3.64 KCAL/MOL
REMARK 922        TOTAL FREE ENERGY PREDICTED BY IDOCK:   -4.75 KCAL/MOL
REMARK 923 INTER-LIGAND FREE ENERGY PREDICTED BY IDOCK:   -4.47 KCAL/MOL
REMARK 924 INTRA-LIGAND FREE ENERGY PREDICTED BY IDOCK:   -0.28 KCAL/MOL
REMARK 927      BINDING AFFINITY PREDICTED BY RF-SCORE:    0.00 PKD
ROOT
HETATM    1  C   UNL     1      -9.734  13.653  67.911  1.00  0.00    -0.234 C  
HETATM    2  C   UNL     1     -10.928  12.761  67.555  1.00  0.00    -0.249 C  
ENDROOT
BRANCH   2   3
HETATM    3  C   UNL     1     -10.836  11.482  68.427  1.00  0.00    -0.211 C  
HETATM    4  O   UNL     1     -11.419  11.383  69.510  1.00  0.00    -0.262 OA 
BRANCH   3   5
HETATM    5  C   UNL     1     -10.057  10.287  67.959  1.00  0.00    -0.189 A  
HETATM    6  C   UNL     1     -10.778   9.111  67.685  1.00  0.00    -0.257 A  
HETATM    7  C   UNL     1     -10.112   7.946  67.309  1.00  0.00    -0.238 A  
HETATM    8  C   UNL     1      -8.724   7.931  67.206  1.00  0.00    -0.131 A  
HETATM    9 CL   UNL     1     -11.011   6.518  66.977  1.00  0.00    -0.473 Cl 
HETATM   10  C   UNL     1      -8.002   9.099  67.444  1.00  0.00    -0.103 A  
HETATM   11  C   UNL     1      -8.665  10.279  67.803  1.00  0.00    -0.121 A  
ENDBRANCH   3   5
ENDBRANCH   2   3
BRANCH   2  12
HETATM   12  N   UNL     1     -10.942  12.394  66.118  1.00  0.00    -0.275 NA 
HETATM   13  H   UNL     1     -10.550  11.505  65.807  1.00  0.00     0.000 HD 
HETATM   14  C   UNL     1     -11.530  13.337  65.143  1.00  0.00    -0.295 C  
HETATM   15  C   UNL     1     -10.545  14.457  64.774  1.00  0.00    -0.417 C  
HETATM   16  C   UNL     1     -12.869  13.934  65.596  1.00  0.00    -0.467 C  
HETATM   17  C   UNL     1     -11.787  12.531  63.847  1.00  0.00    -0.544 C  
ENDBRANCH   2  12
TORSDOF 3
ENDMDL
MODEL      177
REMARK 921   NORMALIZED FREE ENERGY PREDICTED BY IDOCK:   -3.59 KCAL/MOL
REMARK 922        TOTAL FREE ENERGY PREDICTED BY IDOCK:   -4.69 KCAL/MOL
REMARK 923 INTER-LIGAND FREE ENERGY PREDICTED BY IDOCK:   -4.36 KCAL/MOL
REMARK 924 INTRA-LIGAND FREE ENERGY PREDICTED BY IDOCK:   -0.33 KCAL/MOL
REMARK 927      BINDING AFFINITY PREDICTED BY RF-SCORE:    0.00 PKD
ROOT
HETATM    1  C   UNL     1      -9.567   7.832  69.301  1.00  0.00    -0.159 C  
HETATM    2  C   UNL     1     -10.545   6.654  69.377  1.00  0.00    -0.240 C  
ENDROOT
BRANCH   2   3
HETATM    3  C   UNL     1     -10.704   6.083  67.944  1.00  0.00    -0.284 C  
HETATM    4  O   UNL     1     -11.346   6.671  67.071  1.00  0.00    -0.348 OA 
BRANCH   3   5
HETATM    5  C   UNL     1     -10.035   4.797  67.551  1.00  0.00    -0.194 A  
HETATM    6  C   UNL     1     -10.005   4.475  66.183  1.00  0.00    -0.267 A  
HETATM    7  C   UNL     1      -9.458   3.268  65.753  1.00  0.00    -0.087 A  
HETATM    8  C   UNL     1      -8.940   2.363  66.675  1.00  0.00    -0.133 A  
HETATM    9 CL   UNL     1      -9.429   2.891  64.075  1.00  0.00    -0.124 Cl 
HETATM   10  C   UNL     1      -8.935   2.686  68.031  1.00  0.00    -0.202 A  
HETATM   11  C   UNL     1      -9.465   3.906  68.468  1.00  0.00    -0.213 A  
ENDBRANCH   3   5
ENDBRANCH   2   3
BRANCH   2  12
HETATM   12  N   UNL     1     -11.868   7.061  69.910  1.00  0.00    -0.600 NA 
HETATM   13  H   UNL     1     -12.625   7.319  69.276  1.00  0.00     0.000 HD 
HETATM   14  C   UNL     1     -12.074   7.087  71.374  1.00  0.00    -0.355 C  
HETATM   15  C   UNL     1     -11.507   8.370  72.002  1.00  0.00    -0.418 C  
HETATM   16  C   UNL     1     -11.519   5.851  72.095  1.00  0.00    -0.333 C  
HETATM   17  C   UNL     1     -13.604   7.122  71.605  1.00  0.00    -0.399 C  
ENDBRANCH   2  12
TORSDOF 3
ENDMDL
MODEL      178
REMARK 921   NORMALIZED FREE ENERGY PREDICTED BY IDOCK:   -3.59 KCAL/MOL
REMARK 922        TOTAL FREE ENERGY PREDICTED BY IDOCK:   -4.68 KCAL/MOL
REMARK 923 INTER-LIGAND FREE ENERGY PREDICTED BY IDOCK:   -4.48 KCAL/MOL
REMARK 924 INTRA-LIGAND FREE ENERGY PREDICTED BY IDOCK:   -0.21 KCAL/MOL
REMARK 927      BINDING AFFINITY PREDICTED BY RF-SCORE:    0.00 PKD
ROOT
HETATM    1  C   UNL     1      -8.968  10.851  66.886  1.00  0.00    -0.158 C  
HETATM    2  C   UNL     1     -10.379  11.449  66.932  1.00  0.00    -0.227 C  
ENDROOT
BRANCH   2   3
HETATM    3  C   UNL     1     -11.138  10.770  68.101  1.00  0.00    -0.280 C  
HETATM    4  O   UNL     1     -12.316  11.031  68.357  1.00  0.00    -0.528 OA 
BRANCH   3   5
HETATM    5  C   UNL     1     -10.471   9.724  68.947  1.00  0.00    -0.233 A  
HETATM    6  C   UNL     1     -10.321   8.442  68.392  1.00  0.00    -0.239 A  
HETATM    7  C   UNL     1      -9.768   7.407  69.144  1.00  0.00    -0.165 A  
HETATM    8  C   UNL     1      -9.364   7.630  70.457  1.00  0.00    -0.163 A  
HETATM    9 CL   UNL     1      -9.592   5.844  68.448  1.00  0.00    -0.129 Cl 
HETATM   10  C   UNL     1      -9.479   8.906  71.007  1.00  0.00    -0.318 A  
HETATM   11  C   UNL     1     -10.015   9.955  70.251  1.00  0.00    -0.261 A  
ENDBRANCH   3   5
ENDBRANCH   2   3
BRANCH   2  12
HETATM   12  N   UNL     1     -11.115  11.243  65.661  1.00  0.00    -0.140 NA 
HETATM   13  H   UNL     1     -11.289  10.300  65.311  1.00  0.00     0.000 HD 
HETATM   14  C   UNL     1     -11.592  12.423  64.909  1.00  0.00    -0.343 C  
HETATM   15  C   UNL     1     -10.467  13.052  64.072  1.00  0.00    -0.337 C  
HETATM   16  C   UNL     1     -12.257  13.487  65.792  1.00  0.00    -0.505 C  
HETATM   17  C   UNL     1     -12.653  11.909  63.907  1.00  0.00    -0.450 C  
ENDBRANCH   2  12
TORSDOF 3
ENDMDL
MODEL      179
REMARK 921   NORMALIZED FREE ENERGY PREDICTED BY IDOCK:   -3.58 KCAL/MOL
REMARK 922        TOTAL FREE ENERGY PREDICTED BY IDOCK:   -4.67 KCAL/MOL
REMARK 923 INTER-LIGAND FREE ENERGY PREDICTED BY IDOCK:   -4.05 KCAL/MOL
REMARK 924 INTRA-LIGAND FREE ENERGY PREDICTED BY IDOCK:   -0.62 KCAL/MOL
REMARK 927      BINDING AFFINITY PREDICTED BY RF-SCORE:    0.00 PKD
ROOT
HETATM    1  C   UNL     1      -9.544   8.218  69.362  1.00  0.00    -0.171 C  
HETATM    2  C   UNL     1     -10.418   7.044  69.818  1.00  0.00    -0.219 C  
ENDROOT
BRANCH   2   3
HETATM    3  C   UNL     1     -10.425   5.993  68.677  1.00  0.00    -0.241 C  
HETATM    4  O   UNL     1     -10.870   6.247  67.555  1.00  0.00    -0.279 OA 
BRANCH   3   5
HETATM    5  C   UNL     1      -9.844   4.625  68.887  1.00  0.00    -0.211 A  
HETATM    6  C   UNL     1      -9.423   4.294  70.187  1.00  0.00    -0.252 A  
HETATM    7  C   UNL     1      -8.815   3.066  70.441  1.00  0.00    -0.083 A  
HETATM    8  C   UNL     1      -8.612   2.155  69.409  1.00  0.00    -0.101 A  
HETATM    9 CL   UNL     1      -8.307   2.678  72.038  1.00  0.00    -0.058 Cl 
HETATM   10  C   UNL     1      -9.054   2.460  68.122  1.00  0.00    -0.225 A  
HETATM   11  C   UNL     1      -9.684   3.683  67.863  1.00  0.00    -0.108 A  
ENDBRANCH   3   5
ENDBRANCH   2   3
BRANCH   2  12
HETATM   12  N   UNL     1     -11.805   7.467  70.126  1.00  0.00    -0.515 NA 
HETATM   13  H   UNL     1     -12.426   7.787  69.383  1.00  0.00     0.000 HD 
HETATM   14  C   UNL     1     -12.274   7.418  71.528  1.00  0.00    -0.337 C  
HETATM   15  C   UNL     1     -11.800   8.642  72.326  1.00  0.00    -0.436 C  
HETATM   16  C   UNL     1     -11.892   6.125  72.260  1.00  0.00    -0.326 C  
HETATM   17  C   UNL     1     -13.819   7.495  71.480  1.00  0.00    -0.487 C  
ENDBRANCH   2  12
TORSDOF 3
ENDMDL
MODEL      180
REMARK 921   NORMALIZED FREE ENERGY PREDICTED BY IDOCK:   -3.57 KCAL/MOL
REMARK 922        TOTAL FREE ENERGY PREDICTED BY IDOCK:   -4.66 KCAL/MOL
REMARK 923 INTER-LIGAND FREE ENERGY PREDICTED BY IDOCK:   -4.41 KCAL/MOL
REMARK 924 INTRA-LIGAND FREE ENERGY PREDICTED BY IDOCK:   -0.25 KCAL/MOL
REMARK 927      BINDING AFFINITY PREDICTED BY RF-SCORE:    0.00 PKD
ROOT
HETATM    1  C   UNL     1     -13.055  13.099  71.408  1.00  0.00    -0.352 C  
HETATM    2  C   UNL     1     -12.499  12.909  69.992  1.00  0.00    -0.015 C  
ENDROOT
BRANCH   2   3
HETATM    3  C   UNL     1     -12.349  11.385  69.747  1.00  0.00    -0.184 C  
HETATM    4  O   UNL     1     -12.963  10.550  70.416  1.00  0.00    -0.314 OA 
BRANCH   3   5
HETATM    5  C   UNL     1     -11.473  10.866  68.644  1.00  0.00    -0.380 A  
HETATM    6  C   UNL     1     -11.410  11.620  67.459  1.00  0.00    -0.364 A  
HETATM    7  C   UNL     1     -10.667  11.165  66.371  1.00  0.00    -0.247 A  
HETATM    8  C   UNL     1      -9.984   9.954  66.443  1.00  0.00    -0.309 A  
HETATM    9 CL   UNL     1     -10.601  12.101  64.930  1.00  0.00    -0.317 Cl 
HETATM   10  C   UNL     1     -10.015   9.214  67.624  1.00  0.00    -0.245 A  
HETATM   11  C   UNL     1     -10.742   9.675  68.728  1.00  0.00    -0.234 A  
ENDBRANCH   3   5
ENDBRANCH   2   3
BRANCH   2  12
HETATM   12  N   UNL     1     -11.191  13.583  69.810  1.00  0.00    -0.473 NA 
HETATM   13  H   UNL     1     -10.331  13.141  70.138  1.00  0.00     0.000 HD 
HETATM   14  C   UNL     1     -11.151  14.905  69.148  1.00  0.00    -0.269 C  
HETATM   15  C   UNL     1     -11.516  16.036  70.121  1.00  0.00    -0.350 C  
HETATM   16  C   UNL     1     -12.019  14.986  67.886  1.00  0.00    -0.140 C  
HETATM   17  C   UNL     1      -9.681  15.144  68.728  1.00  0.00    -0.221 C  
ENDBRANCH   2  12
TORSDOF 3
ENDMDL
MODEL      181
REMARK 921   NORMALIZED FREE ENERGY PREDICTED BY IDOCK:   -3.56 KCAL/MOL
REMARK 922        TOTAL FREE ENERGY PREDICTED BY IDOCK:   -4.65 KCAL/MOL
REMARK 923 INTER-LIGAND FREE ENERGY PREDICTED BY IDOCK:   -4.13 KCAL/MOL
REMARK 924 INTRA-LIGAND FREE ENERGY PREDICTED BY IDOCK:   -0.52 KCAL/MOL
REMARK 927      BINDING AFFINITY PREDICTED BY RF-SCORE:    0.00 PKD
ROOT
HETATM    1  C   UNL     1      -8.026   9.995  68.285  1.00  0.00    -0.097 C  
HETATM    2  C   UNL     1      -8.995   9.682  67.139  1.00  0.00    -0.134 C  
ENDROOT
BRANCH   2   3
HETATM    3  C   UNL     1     -10.256   9.022  67.757  1.00  0.00    -0.230 C  
HETATM    4  O   UNL     1     -10.748   7.989  67.297  1.00  0.00    -0.300 OA 
BRANCH   3   5
HETATM    5  C   UNL     1     -10.905   9.602  68.980  1.00  0.00    -0.206 A  
HETATM    6  C   UNL     1     -10.979   8.786  70.123  1.00  0.00    -0.236 A  
HETATM    7  C   UNL     1     -11.625   9.237  71.272  1.00  0.00    -0.349 A  
HETATM    8  C   UNL     1     -12.211  10.499  71.301  1.00  0.00    -0.472 A  
HETATM    9 CL   UNL     1     -11.706   8.225  72.660  1.00  0.00    -0.457 Cl 
HETATM   10  C   UNL     1     -12.116  11.329  70.184  1.00  0.00    -0.448 A  
HETATM   11  C   UNL     1     -11.450  10.891  69.033  1.00  0.00    -0.371 A  
ENDBRANCH   3   5
ENDBRANCH   2   3
BRANCH   2  12
HETATM   12  N   UNL     1      -8.393   8.777  66.130  1.00  0.00    -0.119 NA 
HETATM   13  H   UNL     1      -8.089   7.839  66.391  1.00  0.00     0.000 HD 
HETATM   14  C   UNL     1      -8.240   9.256  64.739  1.00  0.00    -0.149 C  
HETATM   15  C   UNL     1      -6.996  10.143  64.580  1.00  0.00    -0.121 C  
HETATM   16  C   UNL     1      -9.481   9.977  64.197  1.00  0.00    -0.314 C  
HETATM   17  C   UNL     1      -8.002   8.002  63.864  1.00  0.00    -0.128 C  
ENDBRANCH   2  12
TORSDOF 3
ENDMDL
MODEL      182
REMARK 921   NORMALIZED FREE ENERGY PREDICTED BY IDOCK:   -3.55 KCAL/MOL
REMARK 922        TOTAL FREE ENERGY PREDICTED BY IDOCK:   -4.63 KCAL/MOL
REMARK 923 INTER-LIGAND FREE ENERGY PREDICTED BY IDOCK:   -4.07 KCAL/MOL
REMARK 924 INTRA-LIGAND FREE ENERGY PREDICTED BY IDOCK:   -0.57 KCAL/MOL
REMARK 927      BINDING AFFINITY PREDICTED BY RF-SCORE:    0.00 PKD
ROOT
HETATM    1  C   UNL     1     -11.468  14.249  65.839  1.00  0.00    -0.335 C  
HETATM    2  C   UNL     1     -10.817  13.852  67.169  1.00  0.00    -0.284 C  
ENDROOT
BRANCH   2   3
HETATM    3  C   UNL     1     -11.027  12.327  67.357  1.00  0.00    -0.253 C  
HETATM    4  O   UNL     1     -12.144  11.807  67.304  1.00  0.00    -0.595 OA 
BRANCH   3   5
HETATM    5  C   UNL     1      -9.857  11.411  67.571  1.00  0.00    -0.194 A  
HETATM    6  C   UNL     1     -10.059  10.039  67.345  1.00  0.00    -0.256 A  
HETATM    7  C   UNL     1      -9.035   9.125  67.585  1.00  0.00    -0.123 A  
HETATM    8  C   UNL     1      -7.801   9.560  68.059  1.00  0.00    -0.087 A  
HETATM    9 CL   UNL     1      -9.301   7.449  67.303  1.00  0.00    -0.148 Cl 
HETATM   10  C   UNL     1      -7.579  10.922  68.256  1.00  0.00    -0.100 A  
HETATM   11  C   UNL     1      -8.596  11.848  67.997  1.00  0.00    -0.168 A  
ENDBRANCH   3   5
ENDBRANCH   2   3
BRANCH   2  12
HETATM   12  N   UNL     1     -11.399  14.589  68.317  1.00  0.00    -0.282 NA 
HETATM   13  H   UNL     1     -12.315  14.333  68.687  1.00  0.00     0.000 HD 
HETATM   14  C   UNL     1     -10.632  15.703  68.916  1.00  0.00    -0.228 C  
HETATM   15  C   UNL     1     -10.783  16.997  68.102  1.00  0.00    -0.374 C  
HETATM   16  C   UNL     1      -9.148  15.380  69.133  1.00  0.00    -0.243 C  
HETATM   17  C   UNL     1     -11.264  15.978  70.302  1.00  0.00    -0.397 C  
ENDBRANCH   2  12
TORSDOF 3
ENDMDL
MODEL      183
REMARK 921   NORMALIZED FREE ENERGY PREDICTED BY IDOCK:   -3.55 KCAL/MOL
REMARK 922        TOTAL FREE ENERGY PREDICTED BY IDOCK:   -4.63 KCAL/MOL
REMARK 923 INTER-LIGAND FREE ENERGY PREDICTED BY IDOCK:   -4.60 KCAL/MOL
REMARK 924 INTRA-LIGAND FREE ENERGY PREDICTED BY IDOCK:   -0.04 KCAL/MOL
REMARK 927      BINDING AFFINITY PREDICTED BY RF-SCORE:    0.00 PKD
ROOT
HETATM    1  C   UNL     1      -9.427  13.545  68.103  1.00  0.00    -0.214 C  
HETATM    2  C   UNL     1      -8.873  14.348  66.921  1.00  0.00    -0.223 C  
ENDROOT
BRANCH   2   3
HETATM    3  C   UNL     1      -7.811  15.332  67.479  1.00  0.00    -0.176 C  
HETATM    4  O   UNL     1      -6.839  14.946  68.133  1.00  0.00    -0.107 OA 
BRANCH   3   5
HETATM    5  C   UNL     1      -7.907  16.804  67.201  1.00  0.00    -0.208 A  
HETATM    6  C   UNL     1      -8.840  17.544  67.947  1.00  0.00    -0.247 A  
HETATM    7  C   UNL     1      -9.027  18.902  67.697  1.00  0.00    -0.287 A  
HETATM    8  C   UNL     1      -8.295  19.541  66.700  1.00  0.00    -0.340 A  
HETATM    9 CL   UNL     1     -10.174  19.792  68.620  1.00  0.00    -0.551 Cl 
HETATM   10  C   UNL     1      -7.344  18.824  65.976  1.00  0.00    -0.283 A  
HETATM   11  C   UNL     1      -7.136  17.464  66.236  1.00  0.00    -0.330 A  
ENDBRANCH   3   5
ENDBRANCH   2   3
BRANCH   2  12
HETATM   12  N   UNL     1      -9.935  15.099  66.209  1.00  0.00    -0.270 NA 
HETATM   13  H   UNL     1     -10.009  16.112  66.309  1.00  0.00     0.000 HD 
HETATM   14  C   UNL     1     -10.886  14.358  65.353  1.00  0.00    -0.344 C  
HETATM   15  C   UNL     1     -12.003  13.705  66.182  1.00  0.00    -0.453 C  
HETATM   16  C   UNL     1     -10.215  13.315  64.449  1.00  0.00    -0.300 C  
HETATM   17  C   UNL     1     -11.568  15.405  64.441  1.00  0.00    -0.265 C  
ENDBRANCH   2  12
TORSDOF 3
ENDMDL
MODEL      184
REMARK 921   NORMALIZED FREE ENERGY PREDICTED BY IDOCK:   -3.53 KCAL/MOL
REMARK 922        TOTAL FREE ENERGY PREDICTED BY IDOCK:   -4.62 KCAL/MOL
REMARK 923 INTER-LIGAND FREE ENERGY PREDICTED BY IDOCK:   -5.59 KCAL/MOL
REMARK 924 INTRA-LIGAND FREE ENERGY PREDICTED BY IDOCK:    0.98 KCAL/MOL
REMARK 927      BINDING AFFINITY PREDICTED BY RF-SCORE:    0.00 PKD
ROOT
HETATM    1  C   UNL     1     -10.058  12.527  68.368  1.00  0.00    -0.216 C  
HETATM    2  C   UNL     1     -10.684  13.866  67.959  1.00  0.00    -0.247 C  
ENDROOT
BRANCH   2   3
HETATM    3  C   UNL     1     -11.322  14.492  69.226  1.00  0.00    -0.285 C  
HETATM    4  O   UNL     1     -11.362  15.712  69.406  1.00  0.00    -0.282 OA 
BRANCH   3   5
HETATM    5  C   UNL     1     -11.961  13.626  70.273  1.00  0.00    -0.397 A  
HETATM    6  C   UNL     1     -11.710  12.244  70.211  1.00  0.00    -0.223 A  
HETATM    7  C   UNL     1     -12.322  11.374  71.111  1.00  0.00    -0.299 A  
HETATM    8  C   UNL     1     -13.194  11.863  72.080  1.00  0.00    -0.461 A  
HETATM    9 CL   UNL     1     -12.003   9.686  71.021  1.00  0.00    -0.398 Cl 
HETATM   10  C   UNL     1     -13.425  13.235  72.170  1.00  0.00    -0.655 A  
HETATM   11  C   UNL     1     -12.798  14.117  71.282  1.00  0.00    -0.429 A  
ENDBRANCH   3   5
ENDBRANCH   2   3
BRANCH   2  12
HETATM   12  N   UNL     1     -11.711  13.702  66.902  1.00  0.00    -0.366 NA 
HETATM   13  H   UNL     1     -12.683  13.517  67.149  1.00  0.00     0.000 HD 
HETATM   14  C   UNL     1     -11.304  13.809  65.484  1.00  0.00    -0.307 C  
HETATM   15  C   UNL     1     -10.676  12.503  64.975  1.00  0.00    -0.326 C  
HETATM   16  C   UNL     1     -10.372  14.994  65.200  1.00  0.00    -0.422 C  
HETATM   17  C   UNL     1     -12.602  14.022  64.668  1.00  0.00    -0.281 C  
ENDBRANCH   2  12
TORSDOF 3
ENDMDL
MODEL      185
REMARK 921   NORMALIZED FREE ENERGY PREDICTED BY IDOCK:   -3.53 KCAL/MOL
REMARK 922        TOTAL FREE ENERGY PREDICTED BY IDOCK:   -4.62 KCAL/MOL
REMARK 923 INTER-LIGAND FREE ENERGY PREDICTED BY IDOCK:   -4.38 KCAL/MOL
REMARK 924 INTRA-LIGAND FREE ENERGY PREDICTED BY IDOCK:   -0.24 KCAL/MOL
REMARK 927      BINDING AFFINITY PREDICTED BY RF-SCORE:    0.00 PKD
ROOT
HETATM    1  C   UNL     1     -11.092  10.976  68.314  1.00  0.00    -0.316 C  
HETATM    2  C   UNL     1     -10.673  11.012  66.840  1.00  0.00    -0.274 C  
ENDROOT
BRANCH   2   3
HETATM    3  C   UNL     1      -9.424  10.106  66.685  1.00  0.00    -0.170 C  
HETATM    4  O   UNL     1      -8.281  10.567  66.640  1.00  0.00    -0.122 OA 
BRANCH   3   5
HETATM    5  C   UNL     1      -9.561   8.612  66.625  1.00  0.00    -0.285 A  
HETATM    6  C   UNL     1      -8.558   7.896  65.948  1.00  0.00    -0.171 A  
HETATM    7  C   UNL     1      -8.655   6.514  65.800  1.00  0.00    -0.144 A  
HETATM    8  C   UNL     1      -9.750   5.826  66.314  1.00  0.00    -0.148 A  
HETATM    9 CL   UNL     1      -7.418   5.655  64.969  1.00  0.00    -0.075 Cl 
HETATM   10  C   UNL     1     -10.735   6.522  67.015  1.00  0.00    -0.434 A  
HETATM   11  C   UNL     1     -10.634   7.908  67.186  1.00  0.00    -0.383 A  
ENDBRANCH   3   5
ENDBRANCH   2   3
BRANCH   2  12
HETATM   12  N   UNL     1     -10.361  12.388  66.382  1.00  0.00    -0.231 NA 
HETATM   13  H   UNL     1      -9.479  12.832  66.638  1.00  0.00     0.000 HD 
HETATM   14  C   UNL     1     -11.349  13.106  65.548  1.00  0.00    -0.299 C  
HETATM   15  C   UNL     1     -12.468  13.722  66.401  1.00  0.00    -0.404 C  
HETATM   16  C   UNL     1     -11.946  12.248  64.425  1.00  0.00    -0.473 C  
HETATM   17  C   UNL     1     -10.596  14.288  64.890  1.00  0.00    -0.452 C  
ENDBRANCH   2  12
TORSDOF 3
ENDMDL
MODEL      186
REMARK 921   NORMALIZED FREE ENERGY PREDICTED BY IDOCK:   -3.51 KCAL/MOL
REMARK 922        TOTAL FREE ENERGY PREDICTED BY IDOCK:   -4.59 KCAL/MOL
REMARK 923 INTER-LIGAND FREE ENERGY PREDICTED BY IDOCK:   -4.39 KCAL/MOL
REMARK 924 INTRA-LIGAND FREE ENERGY PREDICTED BY IDOCK:   -0.20 KCAL/MOL
REMARK 927      BINDING AFFINITY PREDICTED BY RF-SCORE:    0.00 PKD
ROOT
HETATM    1  C   UNL     1      -7.325  15.665  67.206  1.00  0.00    -0.255 C  
HETATM    2  C   UNL     1      -8.826  15.972  67.259  1.00  0.00    -0.190 C  
ENDROOT
BRANCH   2   3
HETATM    3  C   UNL     1      -9.575  14.758  66.651  1.00  0.00    -0.272 C  
HETATM    4  O   UNL     1     -10.238  14.848  65.615  1.00  0.00    -0.310 OA 
BRANCH   3   5
HETATM    5  C   UNL     1      -9.484  13.401  67.288  1.00  0.00    -0.234 A  
HETATM    6  C   UNL     1     -10.591  12.961  68.034  1.00  0.00    -0.238 A  
HETATM    7  C   UNL     1     -10.550  11.740  68.704  1.00  0.00    -0.223 A  
HETATM    8  C   UNL     1      -9.408  10.945  68.649  1.00  0.00    -0.188 A  
HETATM    9 CL   UNL     1     -11.913  11.217  69.612  1.00  0.00    -0.399 Cl 
HETATM   10  C   UNL     1      -8.317  11.357  67.886  1.00  0.00    -0.137 A  
HETATM   11  C   UNL     1      -8.359  12.573  67.192  1.00  0.00    -0.179 A  
ENDBRANCH   3   5
ENDBRANCH   2   3
BRANCH   2  12
HETATM   12  N   UNL     1      -9.169  17.206  66.512  1.00  0.00    -0.256 NA 
HETATM   13  H   UNL     1      -9.271  17.186  65.497  1.00  0.00     0.000 HD 
HETATM   14  C   UNL     1      -9.362  18.467  67.260  1.00  0.00    -0.280 C  
HETATM   15  C   UNL     1      -8.019  19.133  67.599  1.00  0.00    -0.290 C  
HETATM   16  C   UNL     1     -10.212  18.307  68.527  1.00  0.00    -0.402 C  
HETATM   17  C   UNL     1     -10.106  19.436  66.310  1.00  0.00    -0.539 C  
ENDBRANCH   2  12
TORSDOF 3
ENDMDL
MODEL      187
REMARK 921   NORMALIZED FREE ENERGY PREDICTED BY IDOCK:   -3.49 KCAL/MOL
REMARK 922        TOTAL FREE ENERGY PREDICTED BY IDOCK:   -4.56 KCAL/MOL
REMARK 923 INTER-LIGAND FREE ENERGY PREDICTED BY IDOCK:   -4.06 KCAL/MOL
REMARK 924 INTRA-LIGAND FREE ENERGY PREDICTED BY IDOCK:   -0.51 KCAL/MOL
REMARK 927      BINDING AFFINITY PREDICTED BY RF-SCORE:    0.00 PKD
ROOT
HETATM    1  C   UNL     1      -8.034  11.330  67.065  1.00  0.00    -0.150 C  
HETATM    2  C   UNL     1      -8.871  10.264  66.348  1.00  0.00    -0.145 C  
ENDROOT
BRANCH   2   3
HETATM    3  C   UNL     1     -10.329  10.389  66.863  1.00  0.00    -0.240 C  
HETATM    4  O   UNL     1     -10.875   9.492  67.510  1.00  0.00    -0.280 OA 
BRANCH   3   5
HETATM    5  C   UNL     1     -11.124  11.640  66.625  1.00  0.00    -0.364 A  
HETATM    6  C   UNL     1     -11.392  11.994  65.291  1.00  0.00    -0.366 A  
HETATM    7  C   UNL     1     -12.069  13.175  64.996  1.00  0.00    -0.415 A  
HETATM    8  C   UNL     1     -12.482  14.024  66.019  1.00  0.00    -0.489 A  
HETATM    9 CL   UNL     1     -12.387  13.592  63.358  1.00  0.00    -0.427 Cl 
HETATM   10  C   UNL     1     -12.250  13.667  67.347  1.00  0.00    -0.283 A  
HETATM   11  C   UNL     1     -11.589  12.471  67.652  1.00  0.00    -0.416 A  
ENDBRANCH   3   5
ENDBRANCH   2   3
BRANCH   2  12
HETATM   12  N   UNL     1      -8.362   8.894  66.595  1.00  0.00    -0.110 NA 
HETATM   13  H   UNL     1      -8.560   8.419  67.476  1.00  0.00     0.000 HD 
HETATM   14  C   UNL     1      -7.561   8.227  65.546  1.00  0.00    -0.087 C  
HETATM   15  C   UNL     1      -6.098   8.697  65.566  1.00  0.00    -0.052 C  
HETATM   16  C   UNL     1      -8.149   8.376  64.137  1.00  0.00    -0.145 C  
HETATM   17  C   UNL     1      -7.544   6.719  65.895  1.00  0.00    -0.087 C  
ENDBRANCH   2  12
TORSDOF 3
ENDMDL
MODEL      188
REMARK 921   NORMALIZED FREE ENERGY PREDICTED BY IDOCK:   -3.43 KCAL/MOL
REMARK 922        TOTAL FREE ENERGY PREDICTED BY IDOCK:   -4.50 KCAL/MOL
REMARK 923 INTER-LIGAND FREE ENERGY PREDICTED BY IDOCK:   -4.19 KCAL/MOL
REMARK 924 INTRA-LIGAND FREE ENERGY PREDICTED BY IDOCK:   -0.31 KCAL/MOL
REMARK 927      BINDING AFFINITY PREDICTED BY RF-SCORE:    0.00 PKD
ROOT
HETATM    1  C   UNL     1      -8.779  12.647  68.323  1.00  0.00    -0.169 C  
HETATM    2  C   UNL     1     -10.225  13.058  68.625  1.00  0.00    -0.164 C  
ENDROOT
BRANCH   2   3
HETATM    3  C   UNL     1     -11.152  11.925  68.112  1.00  0.00    -0.242 C  
HETATM    4  O   UNL     1     -12.062  12.137  67.306  1.00  0.00    -0.565 OA 
BRANCH   3   5
HETATM    5  C   UNL     1     -10.945  10.504  68.550  1.00  0.00    -0.300 A  
HETATM    6  C   UNL     1     -10.491   9.589  67.584  1.00  0.00    -0.321 A  
HETATM    7  C   UNL     1     -10.338   8.242  67.905  1.00  0.00    -0.219 A  
HETATM    8  C   UNL     1     -10.639   7.784  69.185  1.00  0.00    -0.193 A  
HETATM    9 CL   UNL     1      -9.781   7.136  66.711  1.00  0.00    -0.239 Cl 
HETATM   10  C   UNL     1     -11.060   8.689  70.159  1.00  0.00    -0.199 A  
HETATM   11  C   UNL     1     -11.196  10.048  69.850  1.00  0.00    -0.327 A  
ENDBRANCH   3   5
ENDBRANCH   2   3
BRANCH   2  12
HETATM   12  N   UNL     1     -10.587  14.341  67.978  1.00  0.00    -0.235 NA 
HETATM   13  H   UNL     1     -11.021  14.352  67.055  1.00  0.00     0.000 HD 
HETATM   14  C   UNL     1     -10.310  15.607  68.691  1.00  0.00    -0.216 C  
HETATM   15  C   UNL     1      -8.840  16.030  68.542  1.00  0.00    -0.199 C  
HETATM   16  C   UNL     1     -10.708  15.578  70.173  1.00  0.00    -0.345 C  
HETATM   17  C   UNL     1     -11.155  16.701  67.996  1.00  0.00    -0.255 C  
ENDBRANCH   2  12
TORSDOF 3
ENDMDL
MODEL      189
REMARK 921   NORMALIZED FREE ENERGY PREDICTED BY IDOCK:   -3.41 KCAL/MOL
REMARK 922        TOTAL FREE ENERGY PREDICTED BY IDOCK:   -4.47 KCAL/MOL
REMARK 923 INTER-LIGAND FREE ENERGY PREDICTED BY IDOCK:   -3.92 KCAL/MOL
REMARK 924 INTRA-LIGAND FREE ENERGY PREDICTED BY IDOCK:   -0.55 KCAL/MOL
REMARK 927      BINDING AFFINITY PREDICTED BY RF-SCORE:    0.00 PKD
ROOT
HETATM    1  C   UNL     1     -10.651   6.373  68.779  1.00  0.00    -0.295 C  
HETATM    2  C   UNL     1     -10.469   7.771  69.379  1.00  0.00    -0.220 C  
ENDROOT
BRANCH   2   3
HETATM    3  C   UNL     1     -11.081   7.753  70.804  1.00  0.00    -0.257 C  
HETATM    4  O   UNL     1     -12.281   7.955  71.005  1.00  0.00    -0.286 OA 
BRANCH   3   5
HETATM    5  C   UNL     1     -10.230   7.444  72.002  1.00  0.00    -0.221 A  
HETATM    6  C   UNL     1      -8.838   7.403  71.813  1.00  0.00    -0.127 A  
HETATM    7  C   UNL     1      -7.992   7.059  72.866  1.00  0.00    -0.105 A  
HETATM    8  C   UNL     1      -8.517   6.744  74.116  1.00  0.00    -0.161 A  
HETATM    9 CL   UNL     1      -6.291   7.015  72.617  1.00  0.00    -0.053 Cl 
HETATM   10  C   UNL     1      -9.895   6.812  74.323  1.00  0.00    -0.348 A  
HETATM   11  C   UNL     1     -10.749   7.177  73.275  1.00  0.00    -0.403 A  
ENDBRANCH   3   5
ENDBRANCH   2   3
BRANCH   2  12
HETATM   12  N   UNL     1     -11.124   8.820  68.560  1.00  0.00    -0.412 NA 
HETATM   13  H   UNL     1     -12.141   8.861  68.487  1.00  0.00     0.000 HD 
HETATM   14  C   UNL     1     -10.281   9.805  67.849  1.00  0.00    -0.194 C  
HETATM   15  C   UNL     1      -9.723   9.231  66.538  1.00  0.00    -0.305 C  
HETATM   16  C   UNL     1      -9.143  10.374  68.708  1.00  0.00    -0.165 C  
HETATM   17  C   UNL     1     -11.209  10.979  67.456  1.00  0.00    -0.372 C  
ENDBRANCH   2  12
TORSDOF 3
ENDMDL
MODEL      190
REMARK 921   NORMALIZED FREE ENERGY PREDICTED BY IDOCK:   -3.40 KCAL/MOL
REMARK 922        TOTAL FREE ENERGY PREDICTED BY IDOCK:   -4.47 KCAL/MOL
REMARK 923 INTER-LIGAND FREE ENERGY PREDICTED BY IDOCK:   -5.00 KCAL/MOL
REMARK 924 INTRA-LIGAND FREE ENERGY PREDICTED BY IDOCK:    0.53 KCAL/MOL
REMARK 927      BINDING AFFINITY PREDICTED BY RF-SCORE:    0.00 PKD
ROOT
HETATM    1  C   UNL     1     -11.557  14.927  69.309  1.00  0.00    -0.330 C  
HETATM    2  C   UNL     1     -11.890  13.586  68.644  1.00  0.00    -0.369 C  
ENDROOT
BRANCH   2   3
HETATM    3  C   UNL     1     -11.898  12.502  69.753  1.00  0.00    -0.310 C  
HETATM    4  O   UNL     1     -12.468  12.673  70.834  1.00  0.00    -0.369 OA 
BRANCH   3   5
HETATM    5  C   UNL     1     -11.241  11.170  69.531  1.00  0.00    -0.341 A  
HETATM    6  C   UNL     1     -11.042  10.761  68.201  1.00  0.00    -0.337 A  
HETATM    7  C   UNL     1     -10.496   9.509  67.922  1.00  0.00    -0.241 A  
HETATM    8  C   UNL     1     -10.148   8.646  68.957  1.00  0.00    -0.207 A  
HETATM    9 CL   UNL     1     -10.259   9.025  66.288  1.00  0.00    -0.319 Cl 
HETATM   10  C   UNL     1     -10.312   9.055  70.280  1.00  0.00    -0.243 A  
HETATM   11  C   UNL     1     -10.841  10.320  70.568  1.00  0.00    -0.281 A  
ENDBRANCH   3   5
ENDBRANCH   2   3
BRANCH   2  12
HETATM   12  N   UNL     1     -10.910  13.227  67.591  1.00  0.00    -0.254 NA 
HETATM   13  H   UNL     1     -10.062  12.711  67.827  1.00  0.00     0.000 HD 
HETATM   14  C   UNL     1     -11.181  13.628  66.193  1.00  0.00    -0.302 C  
HETATM   15  C   UNL     1     -10.802  15.096  65.943  1.00  0.00    -0.342 C  
HETATM   16  C   UNL     1     -12.625  13.367  65.747  1.00  0.00    -0.455 C  
HETATM   17  C   UNL     1     -10.248  12.774  65.300  1.00  0.00    -0.296 C  
ENDBRANCH   2  12
TORSDOF 3
ENDMDL
MODEL      191
REMARK 921   NORMALIZED FREE ENERGY PREDICTED BY IDOCK:   -3.39 KCAL/MOL
REMARK 922        TOTAL FREE ENERGY PREDICTED BY IDOCK:   -4.45 KCAL/MOL
REMARK 923 INTER-LIGAND FREE ENERGY PREDICTED BY IDOCK:   -3.83 KCAL/MOL
REMARK 924 INTRA-LIGAND FREE ENERGY PREDICTED BY IDOCK:   -0.62 KCAL/MOL
REMARK 927      BINDING AFFINITY PREDICTED BY RF-SCORE:    0.00 PKD
ROOT
HETATM    1  C   UNL     1      -7.017  13.390  67.479  1.00  0.00    -0.153 C  
HETATM    2  C   UNL     1      -8.327  12.605  67.341  1.00  0.00    -0.184 C  
ENDROOT
BRANCH   2   3
HETATM    3  C   UNL     1      -7.985  11.097  67.466  1.00  0.00    -0.118 C  
HETATM    4  O   UNL     1      -6.853  10.661  67.245  1.00  0.00    -0.075 OA 
BRANCH   3   5
HETATM    5  C   UNL     1      -9.024  10.108  67.909  1.00  0.00    -0.128 A  
HETATM    6  C   UNL     1      -9.666  10.349  69.136  1.00  0.00    -0.234 A  
HETATM    7  C   UNL     1     -10.594   9.439  69.638  1.00  0.00    -0.225 A  
HETATM    8  C   UNL     1     -10.892   8.276  68.933  1.00  0.00     0.002 A  
HETATM    9 CL   UNL     1     -11.370   9.751  71.141  1.00  0.00    -0.443 Cl 
HETATM   10  C   UNL     1     -10.285   8.043  67.700  1.00  0.00    -0.291 A  
HETATM   11  C   UNL     1      -9.367   8.963  67.179  1.00  0.00    -0.182 A  
ENDBRANCH   3   5
ENDBRANCH   2   3
BRANCH   2  12
HETATM   12  N   UNL     1      -9.000  12.866  66.046  1.00  0.00    -0.412 NA 
HETATM   13  H   UNL     1      -8.633  12.467  65.181  1.00  0.00     0.000 HD 
HETATM   14  C   UNL     1     -10.211  13.715  66.026  1.00  0.00    -0.307 C  
HETATM   15  C   UNL     1      -9.855  15.209  66.060  1.00  0.00    -0.349 C  
HETATM   16  C   UNL     1     -11.214  13.381  67.138  1.00  0.00    -0.325 C  
HETATM   17  C   UNL     1     -10.908  13.459  64.668  1.00  0.00    -0.405 C  
ENDBRANCH   2  12
TORSDOF 3
ENDMDL
MODEL      192
REMARK 921   NORMALIZED FREE ENERGY PREDICTED BY IDOCK:   -3.39 KCAL/MOL
REMARK 922        TOTAL FREE ENERGY PREDICTED BY IDOCK:   -4.45 KCAL/MOL
REMARK 923 INTER-LIGAND FREE ENERGY PREDICTED BY IDOCK:   -4.13 KCAL/MOL
REMARK 924 INTRA-LIGAND FREE ENERGY PREDICTED BY IDOCK:   -0.32 KCAL/MOL
REMARK 927      BINDING AFFINITY PREDICTED BY RF-SCORE:    0.00 PKD
ROOT
HETATM    1  C   UNL     1     -10.184   5.002  69.746  1.00  0.00    -0.336 C  
HETATM    2  C   UNL     1     -10.965   6.254  69.330  1.00  0.00    -0.375 C  
ENDROOT
BRANCH   2   3
HETATM    3  C   UNL     1     -10.483   6.659  67.913  1.00  0.00    -0.219 C  
HETATM    4  O   UNL     1     -10.609   5.913  66.939  1.00  0.00    -0.254 OA 
BRANCH   3   5
HETATM    5  C   UNL     1      -9.877   8.010  67.664  1.00  0.00    -0.214 A  
HETATM    6  C   UNL     1     -10.758   9.087  67.457  1.00  0.00    -0.239 A  
HETATM    7  C   UNL     1     -10.265  10.355  67.158  1.00  0.00    -0.222 A  
HETATM    8  C   UNL     1      -8.893  10.570  67.052  1.00  0.00    -0.142 A  
HETATM    9 CL   UNL     1     -11.357  11.660  66.908  1.00  0.00    -0.379 Cl 
HETATM   10  C   UNL     1      -8.010   9.517  67.286  1.00  0.00    -0.106 A  
HETATM   11  C   UNL     1      -8.498   8.244  67.608  1.00  0.00    -0.130 A  
ENDBRANCH   3   5
ENDBRANCH   2   3
BRANCH   2  12
HETATM   12  N   UNL     1     -10.761   7.379  70.275  1.00  0.00    -0.232 NA 
HETATM   13  H   UNL     1     -10.015   8.056  70.121  1.00  0.00     0.000 HD 
HETATM   14  C   UNL     1     -11.657   7.502  71.446  1.00  0.00    -0.275 C  
HETATM   15  C   UNL     1     -11.231   6.562  72.585  1.00  0.00    -0.284 C  
HETATM   16  C   UNL     1     -13.139   7.295  71.111  1.00  0.00    -0.291 C  
HETATM   17  C   UNL     1     -11.490   8.945  71.980  1.00  0.00    -0.431 C  
ENDBRANCH   2  12
TORSDOF 3
ENDMDL
MODEL      193
REMARK 921   NORMALIZED FREE ENERGY PREDICTED BY IDOCK:   -3.38 KCAL/MOL
REMARK 922        TOTAL FREE ENERGY PREDICTED BY IDOCK:   -4.44 KCAL/MOL
REMARK 923 INTER-LIGAND FREE ENERGY PREDICTED BY IDOCK:   -3.94 KCAL/MOL
REMARK 924 INTRA-LIGAND FREE ENERGY PREDICTED BY IDOCK:   -0.50 KCAL/MOL
REMARK 927      BINDING AFFINITY PREDICTED BY RF-SCORE:    0.00 PKD
ROOT
HETATM    1  C   UNL     1     -10.034   9.922  65.559  1.00  0.00    -0.363 C  
HETATM    2  C   UNL     1      -9.960  11.423  65.864  1.00  0.00    -0.234 C  
ENDROOT
BRANCH   2   3
HETATM    3  C   UNL     1      -9.317  11.586  67.266  1.00  0.00    -0.166 C  
HETATM    4  O   UNL     1      -9.975  11.484  68.304  1.00  0.00    -0.188 OA 
BRANCH   3   5
HETATM    5  C   UNL     1      -7.844  11.833  67.412  1.00  0.00    -0.155 A  
HETATM    6  C   UNL     1      -7.432  12.711  68.430  1.00  0.00    -0.127 A  
HETATM    7  C   UNL     1      -6.086  13.035  68.581  1.00  0.00    -0.073 A  
HETATM    8  C   UNL     1      -5.132  12.498  67.720  1.00  0.00    -0.098 A  
HETATM    9 CL   UNL     1      -5.600  14.111  69.832  1.00  0.00    -0.099 Cl 
HETATM   10  C   UNL     1      -5.525  11.602  66.728  1.00  0.00    -0.125 A  
HETATM   11  C   UNL     1      -6.874  11.255  66.583  1.00  0.00    -0.130 A  
ENDBRANCH   3   5
ENDBRANCH   2   3
BRANCH   2  12
HETATM   12  N   UNL     1     -11.298  12.063  65.842  1.00  0.00    -0.341 NA 
HETATM   13  H   UNL     1     -12.030  11.754  66.481  1.00  0.00     0.000 HD 
HETATM   14  C   UNL     1     -11.553  13.156  64.879  1.00  0.00    -0.323 C  
HETATM   15  C   UNL     1     -11.871  12.612  63.477  1.00  0.00    -0.619 C  
HETATM   16  C   UNL     1     -10.421  14.188  64.805  1.00  0.00    -0.432 C  
HETATM   17  C   UNL     1     -12.827  13.886  65.367  1.00  0.00    -0.466 C  
ENDBRANCH   2  12
TORSDOF 3
ENDMDL
MODEL      194
REMARK 921   NORMALIZED FREE ENERGY PREDICTED BY IDOCK:   -3.37 KCAL/MOL
REMARK 922        TOTAL FREE ENERGY PREDICTED BY IDOCK:   -4.43 KCAL/MOL
REMARK 923 INTER-LIGAND FREE ENERGY PREDICTED BY IDOCK:   -3.86 KCAL/MOL
REMARK 924 INTRA-LIGAND FREE ENERGY PREDICTED BY IDOCK:   -0.57 KCAL/MOL
REMARK 927      BINDING AFFINITY PREDICTED BY RF-SCORE:    0.00 PKD
ROOT
HETATM    1  C   UNL     1      -7.636  11.548  68.687  1.00  0.00    -0.134 C  
HETATM    2  C   UNL     1      -8.868  11.084  67.901  1.00  0.00    -0.134 C  
ENDROOT
BRANCH   2   3
HETATM    3  C   UNL     1     -10.125  11.551  68.682  1.00  0.00    -0.207 C  
HETATM    4  O   UNL     1     -10.675  10.838  69.525  1.00  0.00    -0.227 OA 
BRANCH   3   5
HETATM    5  C   UNL     1     -10.698  12.922  68.468  1.00  0.00    -0.275 A  
HETATM    6  C   UNL     1     -10.414  13.558  67.246  1.00  0.00    -0.248 A  
HETATM    7  C   UNL     1     -10.860  14.856  67.006  1.00  0.00    -0.315 A  
HETATM    8  C   UNL     1     -11.586  15.542  67.976  1.00  0.00    -0.276 A  
HETATM    9 CL   UNL     1     -10.504  15.619  65.506  1.00  0.00    -0.395 Cl 
HETATM   10  C   UNL     1     -11.900  14.909  69.178  1.00  0.00    -0.340 A  
HETATM   11  C   UNL     1     -11.473  13.597  69.418  1.00  0.00    -0.343 A  
ENDBRANCH   3   5
ENDBRANCH   2   3
BRANCH   2  12
HETATM   12  N   UNL     1      -8.898   9.612  67.727  1.00  0.00    -0.125 NA 
HETATM   13  H   UNL     1      -8.978   8.996  68.536  1.00  0.00     0.000 HD 
HETATM   14  C   UNL     1      -8.809   9.051  66.361  1.00  0.00    -0.146 C  
HETATM   15  C   UNL     1      -7.357   9.008  65.861  1.00  0.00    -0.093 C  
HETATM   16  C   UNL     1      -9.703   9.769  65.342  1.00  0.00    -0.383 C  
HETATM   17  C   UNL     1      -9.285   7.581  66.456  1.00  0.00    -0.217 C  
ENDBRANCH   2  12
TORSDOF 3
ENDMDL
MODEL      195
REMARK 921   NORMALIZED FREE ENERGY PREDICTED BY IDOCK:   -3.32 KCAL/MOL
REMARK 922        TOTAL FREE ENERGY PREDICTED BY IDOCK:   -4.37 KCAL/MOL
REMARK 923 INTER-LIGAND FREE ENERGY PREDICTED BY IDOCK:   -3.73 KCAL/MOL
REMARK 924 INTRA-LIGAND FREE ENERGY PREDICTED BY IDOCK:   -0.64 KCAL/MOL
REMARK 927      BINDING AFFINITY PREDICTED BY RF-SCORE:    0.00 PKD
ROOT
HETATM    1  C   UNL     1      -6.460   9.418  70.896  1.00  0.00    -0.096 C  
HETATM    2  C   UNL     1      -7.750   8.706  70.470  1.00  0.00    -0.086 C  
ENDROOT
BRANCH   2   3
HETATM    3  C   UNL     1      -8.568   8.410  71.754  1.00  0.00    -0.176 C  
HETATM    4  O   UNL     1      -8.124   8.637  72.882  1.00  0.00    -0.388 OA 
BRANCH   3   5
HETATM    5  C   UNL     1      -9.967   7.871  71.667  1.00  0.00    -0.227 A  
HETATM    6  C   UNL     1     -11.020   8.748  71.979  1.00  0.00    -0.438 A  
HETATM    7  C   UNL     1     -12.338   8.297  71.980  1.00  0.00    -0.349 A  
HETATM    8  C   UNL     1     -12.628   6.969  71.679  1.00  0.00    -0.419 A  
HETATM    9 CL   UNL     1     -13.614   9.385  72.364  1.00  0.00    -0.520 Cl 
HETATM   10  C   UNL     1     -11.594   6.098  71.337  1.00  0.00    -0.283 A  
HETATM   11  C   UNL     1     -10.269   6.550  71.314  1.00  0.00    -0.223 A  
ENDBRANCH   3   5
ENDBRANCH   2   3
BRANCH   2  12
HETATM   12  N   UNL     1      -7.476   7.444  69.742  1.00  0.00    -0.090 NA 
HETATM   13  H   UNL     1      -7.067   6.644  70.226  1.00  0.00     0.000 HD 
HETATM   14  C   UNL     1      -7.804   7.362  68.302  1.00  0.00    -0.122 C  
HETATM   15  C   UNL     1      -6.715   8.013  67.436  1.00  0.00    -0.069 C  
HETATM   16  C   UNL     1      -9.181   7.941  67.951  1.00  0.00    -0.139 C  
HETATM   17  C   UNL     1      -7.816   5.858  67.937  1.00  0.00    -0.104 C  
ENDBRANCH   2  12
TORSDOF 3
ENDMDL
MODEL      196
REMARK 921   NORMALIZED FREE ENERGY PREDICTED BY IDOCK:   -3.30 KCAL/MOL
REMARK 922        TOTAL FREE ENERGY PREDICTED BY IDOCK:   -4.35 KCAL/MOL
REMARK 923 INTER-LIGAND FREE ENERGY PREDICTED BY IDOCK:   -3.73 KCAL/MOL
REMARK 924 INTRA-LIGAND FREE ENERGY PREDICTED BY IDOCK:   -0.61 KCAL/MOL
REMARK 927      BINDING AFFINITY PREDICTED BY RF-SCORE:    0.00 PKD
ROOT
HETATM    1  C   UNL     1      -8.657   9.639  69.989  1.00  0.00    -0.237 C  
HETATM    2  C   UNL     1      -9.273   8.360  69.410  1.00  0.00    -0.154 C  
ENDROOT
BRANCH   2   3
HETATM    3  C   UNL     1      -9.026   7.218  70.429  1.00  0.00    -0.151 C  
HETATM    4  O   UNL     1      -7.897   6.782  70.666  1.00  0.00    -0.101 OA 
BRANCH   3   5
HETATM    5  C   UNL     1     -10.165   6.623  71.207  1.00  0.00    -0.222 A  
HETATM    6  C   UNL     1     -11.433   7.207  71.046  1.00  0.00    -0.331 A  
HETATM    7  C   UNL     1     -12.521   6.747  71.785  1.00  0.00    -0.349 A  
HETATM    8  C   UNL     1     -12.364   5.707  72.697  1.00  0.00     0.154 A  
HETATM    9 CL   UNL     1     -14.066   7.473  71.574  1.00  0.00    -0.542 Cl 
HETATM   10  C   UNL     1     -11.117   5.100  72.841  1.00  0.00    -0.359 A  
HETATM   11  C   UNL     1     -10.024   5.543  72.087  1.00  0.00    -0.219 A  
ENDBRANCH   3   5
ENDBRANCH   2   3
BRANCH   2  12
HETATM   12  N   UNL     1      -8.685   8.003  68.096  1.00  0.00    -0.126 NA 
HETATM   13  H   UNL     1      -7.678   7.872  67.998  1.00  0.00     0.000 HD 
HETATM   14  C   UNL     1      -9.580   7.840  66.931  1.00  0.00    -0.198 C  
HETATM   15  C   UNL     1      -9.956   9.195  66.312  1.00  0.00    -0.352 C  
HETATM   16  C   UNL     1     -10.844   7.025  67.235  1.00  0.00    -0.403 C  
HETATM   17  C   UNL     1      -8.772   7.074  65.856  1.00  0.00    -0.140 C  
ENDBRANCH   2  12
TORSDOF 3
ENDMDL
MODEL      197
REMARK 921   NORMALIZED FREE ENERGY PREDICTED BY IDOCK:   -3.29 KCAL/MOL
REMARK 922        TOTAL FREE ENERGY PREDICTED BY IDOCK:   -4.34 KCAL/MOL
REMARK 923 INTER-LIGAND FREE ENERGY PREDICTED BY IDOCK:   -4.55 KCAL/MOL
REMARK 924 INTRA-LIGAND FREE ENERGY PREDICTED BY IDOCK:    0.21 KCAL/MOL
REMARK 927      BINDING AFFINITY PREDICTED BY RF-SCORE:    0.00 PKD
ROOT
HETATM    1  C   UNL     1      -8.930  20.193  67.018  1.00  0.00    -0.453 C  
HETATM    2  C   UNL     1      -8.581  18.714  66.809  1.00  0.00    -0.288 C  
ENDROOT
BRANCH   2   3
HETATM    3  C   UNL     1      -9.809  18.031  66.151  1.00  0.00    -0.249 C  
HETATM    4  O   UNL     1     -10.753  18.680  65.693  1.00  0.00    -0.555 OA 
BRANCH   3   5
HETATM    5  C   UNL     1      -9.873  16.538  66.009  1.00  0.00    -0.348 A  
HETATM    6  C   UNL     1      -8.894  15.782  66.677  1.00  0.00    -0.324 A  
HETATM    7  C   UNL     1      -8.856  14.396  66.536  1.00  0.00    -0.089 A  
HETATM    8  C   UNL     1      -9.782  13.744  65.727  1.00  0.00    -0.175 A  
HETATM    9 CL   UNL     1      -7.651  13.487  67.361  1.00  0.00    -0.166 Cl 
HETATM   10  C   UNL     1     -10.776  14.481  65.086  1.00  0.00    -0.422 A  
HETATM   11  C   UNL     1     -10.834  15.872  65.238  1.00  0.00    -0.401 A  
ENDBRANCH   3   5
ENDBRANCH   2   3
BRANCH   2  12
HETATM   12  N   UNL     1      -8.245  18.035  68.083  1.00  0.00    -0.263 NA 
HETATM   13  H   UNL     1      -8.976  17.600  68.647  1.00  0.00     0.000 HD 
HETATM   14  C   UNL     1      -6.834  17.996  68.524  1.00  0.00    -0.237 C  
HETATM   15  C   UNL     1      -6.416  19.311  69.199  1.00  0.00    -0.334 C  
HETATM   16  C   UNL     1      -5.849  17.637  67.403  1.00  0.00    -0.161 C  
HETATM   17  C   UNL     1      -6.739  16.895  69.607  1.00  0.00    -0.081 C  
ENDBRANCH   2  12
TORSDOF 3
ENDMDL
MODEL      198
REMARK 921   NORMALIZED FREE ENERGY PREDICTED BY IDOCK:   -3.28 KCAL/MOL
REMARK 922        TOTAL FREE ENERGY PREDICTED BY IDOCK:   -4.32 KCAL/MOL
REMARK 923 INTER-LIGAND FREE ENERGY PREDICTED BY IDOCK:   -3.59 KCAL/MOL
REMARK 924 INTRA-LIGAND FREE ENERGY PREDICTED BY IDOCK:   -0.73 KCAL/MOL
REMARK 927      BINDING AFFINITY PREDICTED BY RF-SCORE:    0.00 PKD
ROOT
HETATM    1  C   UNL     1      -9.312   2.916  68.626  1.00  0.00    -0.239 C  
HETATM    2  C   UNL     1      -9.336   4.377  69.088  1.00  0.00    -0.155 C  
ENDROOT
BRANCH   2   3
HETATM    3  C   UNL     1      -9.862   4.399  70.547  1.00  0.00    -0.215 C  
HETATM    4  O   UNL     1     -10.009   3.367  71.207  1.00  0.00    -0.163 OA 
BRANCH   3   5
HETATM    5  C   UNL     1     -10.175   5.698  71.232  1.00  0.00    -0.279 A  
HETATM    6  C   UNL     1      -9.099   6.411  71.790  1.00  0.00    -0.143 A  
HETATM    7  C   UNL     1      -9.325   7.591  72.496  1.00  0.00    -0.153 A  
HETATM    8  C   UNL     1     -10.619   8.075  72.663  1.00  0.00    -0.419 A  
HETATM    9 CL   UNL     1      -7.996   8.450  73.172  1.00  0.00    -0.190 Cl 
HETATM   10  C   UNL     1     -11.690   7.393  72.086  1.00  0.00    -0.328 A  
HETATM   11  C   UNL     1     -11.469   6.218  71.358  1.00  0.00    -0.352 A  
ENDBRANCH   3   5
ENDBRANCH   2   3
BRANCH   2  12
HETATM   12  N   UNL     1     -10.199   5.221  68.226  1.00  0.00    -0.156 NA 
HETATM   13  H   UNL     1     -11.208   5.077  68.204  1.00  0.00     0.000 HD 
HETATM   14  C   UNL     1      -9.573   6.275  67.398  1.00  0.00    -0.119 C  
HETATM   15  C   UNL     1      -8.971   5.697  66.108  1.00  0.00    -0.153 C  
HETATM   16  C   UNL     1      -8.523   7.105  68.150  1.00  0.00    -0.123 C  
HETATM   17  C   UNL     1     -10.710   7.231  66.965  1.00  0.00    -0.406 C  
ENDBRANCH   2  12
TORSDOF 3
ENDMDL
MODEL      199
REMARK 921   NORMALIZED FREE ENERGY PREDICTED BY IDOCK:   -3.27 KCAL/MOL
REMARK 922        TOTAL FREE ENERGY PREDICTED BY IDOCK:   -4.31 KCAL/MOL
REMARK 923 INTER-LIGAND FREE ENERGY PREDICTED BY IDOCK:   -3.76 KCAL/MOL
REMARK 924 INTRA-LIGAND FREE ENERGY PREDICTED BY IDOCK:   -0.56 KCAL/MOL
REMARK 927      BINDING AFFINITY PREDICTED BY RF-SCORE:    0.00 PKD
ROOT
HETATM    1  C   UNL     1     -10.614   5.730  67.417  1.00  0.00    -0.340 C  
HETATM    2  C   UNL     1     -10.270   6.828  68.430  1.00  0.00    -0.178 C  
ENDROOT
BRANCH   2   3
HETATM    3  C   UNL     1     -10.741   6.342  69.826  1.00  0.00    -0.283 C  
HETATM    4  O   UNL     1     -11.905   6.478  70.209  1.00  0.00    -0.413 OA 
BRANCH   3   5
HETATM    5  C   UNL     1      -9.793   5.642  70.756  1.00  0.00    -0.239 A  
HETATM    6  C   UNL     1      -9.019   6.442  71.614  1.00  0.00    -0.144 A  
HETATM    7  C   UNL     1      -8.073   5.862  72.458  1.00  0.00    -0.106 A  
HETATM    8  C   UNL     1      -7.878   4.484  72.455  1.00  0.00    -0.087 A  
HETATM    9 CL   UNL     1      -7.135   6.857  73.502  1.00  0.00    -0.075 Cl 
HETATM   10  C   UNL     1      -8.663   3.678  71.631  1.00  0.00    -0.124 A  
HETATM   11  C   UNL     1      -9.630   4.252  70.795  1.00  0.00    -0.256 A  
ENDBRANCH   3   5
ENDBRANCH   2   3
BRANCH   2  12
HETATM   12  N   UNL     1     -10.921   8.118  68.097  1.00  0.00    -0.443 NA 
HETATM   13  H   UNL     1     -11.934   8.220  68.163  1.00  0.00     0.000 HD 
HETATM   14  C   UNL     1     -10.078   9.255  67.665  1.00  0.00    -0.214 C  
HETATM   15  C   UNL     1      -9.698   9.146  66.181  1.00  0.00    -0.357 C  
HETATM   16  C   UNL     1      -8.822   9.450  68.524  1.00  0.00    -0.128 C  
HETATM   17  C   UNL     1     -10.948  10.527  67.805  1.00  0.00    -0.372 C  
ENDBRANCH   2  12
TORSDOF 3
ENDMDL
MODEL      200
REMARK 921   NORMALIZED FREE ENERGY PREDICTED BY IDOCK:   -3.26 KCAL/MOL
REMARK 922        TOTAL FREE ENERGY PREDICTED BY IDOCK:   -4.30 KCAL/MOL
REMARK 923 INTER-LIGAND FREE ENERGY PREDICTED BY IDOCK:   -3.83 KCAL/MOL
REMARK 924 INTRA-LIGAND FREE ENERGY PREDICTED BY IDOCK:   -0.47 KCAL/MOL
REMARK 927      BINDING AFFINITY PREDICTED BY RF-SCORE:    0.00 PKD
ROOT
HETATM    1  C   UNL     1     -12.351  11.841  70.625  1.00  0.00    -0.421 C  
HETATM    2  C   UNL     1     -11.579  12.021  69.314  1.00  0.00    -0.321 C  
ENDROOT
BRANCH   2   3
HETATM    3  C   UNL     1     -10.735  10.739  69.086  1.00  0.00    -0.227 C  
HETATM    4  O   UNL     1     -11.007   9.669  69.635  1.00  0.00    -0.236 OA 
BRANCH   3   5
HETATM    5  C   UNL     1      -9.568  10.745  68.142  1.00  0.00    -0.167 A  
HETATM    6  C   UNL     1      -8.312  11.096  68.668  1.00  0.00    -0.154 A  
HETATM    7  C   UNL     1      -7.197  11.184  67.836  1.00  0.00    -0.090 A  
HETATM    8  C   UNL     1      -7.316  10.933  66.472  1.00  0.00    -0.142 A  
HETATM    9 CL   UNL     1      -5.669  11.613  68.497  1.00  0.00    -0.045 Cl 
HETATM   10  C   UNL     1      -8.550  10.554  65.945  1.00  0.00    -0.170 A  
HETATM   11  C   UNL     1      -9.670  10.443  66.779  1.00  0.00    -0.224 A  
ENDBRANCH   3   5
ENDBRANCH   2   3
BRANCH   2  12
HETATM   12  N   UNL     1     -10.694  13.211  69.346  1.00  0.00    -0.432 NA 
HETATM   13  H   UNL     1      -9.799  13.177  69.834  1.00  0.00     0.000 HD 
HETATM   14  C   UNL     1     -11.130  14.447  68.661  1.00  0.00    -0.251 C  
HETATM   15  C   UNL     1     -12.120  15.249  69.518  1.00  0.00    -0.320 C  
HETATM   16  C   UNL     1     -11.713  14.202  67.263  1.00  0.00    -0.421 C  
HETATM   17  C   UNL     1      -9.870  15.330  68.499  1.00  0.00    -0.210 C  
ENDBRANCH   2  12
TORSDOF 3
ENDMDL
MODEL      201
REMARK 921   NORMALIZED FREE ENERGY PREDICTED BY IDOCK:   -3.25 KCAL/MOL
REMARK 922        TOTAL FREE ENERGY PREDICTED BY IDOCK:   -4.29 KCAL/MOL
REMARK 923 INTER-LIGAND FREE ENERGY PREDICTED BY IDOCK:   -3.76 KCAL/MOL
REMARK 924 INTRA-LIGAND FREE ENERGY PREDICTED BY IDOCK:   -0.53 KCAL/MOL
REMARK 927      BINDING AFFINITY PREDICTED BY RF-SCORE:    0.00 PKD
ROOT
HETATM    1  C   UNL     1      -7.097  16.174  68.359  1.00  0.00    -0.130 C  
HETATM    2  C   UNL     1      -8.063  15.091  67.863  1.00  0.00    -0.136 C  
ENDROOT
BRANCH   2   3
HETATM    3  C   UNL     1      -7.255  13.776  67.713  1.00  0.00    -0.163 C  
HETATM    4  O   UNL     1      -6.118  13.755  67.236  1.00  0.00    -0.321 OA 
BRANCH   3   5
HETATM    5  C   UNL     1      -7.820  12.469  68.190  1.00  0.00    -0.151 A  
HETATM    6  C   UNL     1      -9.157  12.184  67.864  1.00  0.00    -0.185 A  
HETATM    7  C   UNL     1      -9.765  11.019  68.329  1.00  0.00    -0.177 A  
HETATM    8  C   UNL     1      -9.056  10.126  69.127  1.00  0.00    -0.189 A  
HETATM    9 CL   UNL     1     -11.402  10.687  67.920  1.00  0.00    -0.379 Cl 
HETATM   10  C   UNL     1      -7.719  10.382  69.429  1.00  0.00    -0.158 A  
HETATM   11  C   UNL     1      -7.096  11.541  68.949  1.00  0.00    -0.111 A  
ENDBRANCH   3   5
ENDBRANCH   2   3
BRANCH   2  12
HETATM   12  N   UNL     1      -8.689  15.452  66.569  1.00  0.00    -0.316 NA 
HETATM   13  H   UNL     1      -8.166  15.363  65.697  1.00  0.00     0.000 HD 
HETATM   14  C   UNL     1     -10.084  15.944  66.560  1.00  0.00    -0.282 C  
HETATM   15  C   UNL     1     -10.160  17.434  66.929  1.00  0.00    -0.314 C  
HETATM   16  C   UNL     1     -11.030  15.126  67.447  1.00  0.00    -0.314 C  
HETATM   17  C   UNL     1     -10.584  15.826  65.100  1.00  0.00    -0.436 C  
ENDBRANCH   2  12
TORSDOF 3
ENDMDL
MODEL      202
REMARK 921   NORMALIZED FREE ENERGY PREDICTED BY IDOCK:   -3.25 KCAL/MOL
REMARK 922        TOTAL FREE ENERGY PREDICTED BY IDOCK:   -4.29 KCAL/MOL
REMARK 923 INTER-LIGAND FREE ENERGY PREDICTED BY IDOCK:   -3.67 KCAL/MOL
REMARK 924 INTRA-LIGAND FREE ENERGY PREDICTED BY IDOCK:   -0.62 KCAL/MOL
REMARK 927      BINDING AFFINITY PREDICTED BY RF-SCORE:    0.00 PKD
ROOT
HETATM    1  C   UNL     1      -8.656   6.642  65.694  1.00  0.00    -0.130 C  
HETATM    2  C   UNL     1      -9.131   7.955  66.328  1.00  0.00    -0.179 C  
ENDROOT
BRANCH   2   3
HETATM    3  C   UNL     1     -10.170   7.599  67.423  1.00  0.00    -0.251 C  
HETATM    4  O   UNL     1     -11.165   6.910  67.184  1.00  0.00    -0.352 OA 
BRANCH   3   5
HETATM    5  C   UNL     1      -9.976   8.049  68.842  1.00  0.00    -0.199 A  
HETATM    6  C   UNL     1      -8.727   8.596  69.182  1.00  0.00    -0.136 A  
HETATM    7  C   UNL     1      -8.456   8.975  70.495  1.00  0.00    -0.200 A  
HETATM    8  C   UNL     1      -9.418   8.811  71.488  1.00  0.00    -0.341 A  
HETATM    9 CL   UNL     1      -6.922   9.643  70.893  1.00  0.00    -0.083 Cl 
HETATM   10  C   UNL     1     -10.672   8.299  71.155  1.00  0.00    -0.270 A  
HETATM   11  C   UNL     1     -10.958   7.935  69.834  1.00  0.00    -0.179 A  
ENDBRANCH   3   5
ENDBRANCH   2   3
BRANCH   2  12
HETATM   12  N   UNL     1      -9.740   8.868  65.330  1.00  0.00    -0.420 NA 
HETATM   13  H   UNL     1     -10.563   8.581  64.800  1.00  0.00     0.000 HD 
HETATM   14  C   UNL     1      -9.135  10.200  65.115  1.00  0.00    -0.201 C  
HETATM   15  C   UNL     1      -7.910  10.122  64.190  1.00  0.00    -0.145 C  
HETATM   16  C   UNL     1      -8.774  10.929  66.416  1.00  0.00    -0.174 C  
HETATM   17  C   UNL     1     -10.193  11.052  64.374  1.00  0.00    -0.409 C  
ENDBRANCH   2  12
TORSDOF 3
ENDMDL
MODEL      203
REMARK 921   NORMALIZED FREE ENERGY PREDICTED BY IDOCK:   -3.24 KCAL/MOL
REMARK 922        TOTAL FREE ENERGY PREDICTED BY IDOCK:   -4.28 KCAL/MOL
REMARK 923 INTER-LIGAND FREE ENERGY PREDICTED BY IDOCK:   -4.31 KCAL/MOL
REMARK 924 INTRA-LIGAND FREE ENERGY PREDICTED BY IDOCK:    0.04 KCAL/MOL
REMARK 927      BINDING AFFINITY PREDICTED BY RF-SCORE:    0.00 PKD
ROOT
HETATM    1  C   UNL     1     -11.099  15.665  67.585  1.00  0.00    -0.305 C  
HETATM    2  C   UNL     1      -9.948  15.440  66.598  1.00  0.00    -0.260 C  
ENDROOT
BRANCH   2   3
HETATM    3  C   UNL     1     -10.405  14.361  65.582  1.00  0.00    -0.342 C  
HETATM    4  O   UNL     1     -10.718  14.642  64.423  1.00  0.00    -0.234 OA 
BRANCH   3   5
HETATM    5  C   UNL     1     -10.443  12.910  65.967  1.00  0.00    -0.290 A  
HETATM    6  C   UNL     1     -11.042  12.581  67.195  1.00  0.00    -0.321 A  
HETATM    7  C   UNL     1     -11.055  11.262  67.644  1.00  0.00    -0.277 A  
HETATM    8  C   UNL     1     -10.468  10.255  66.885  1.00  0.00    -0.291 A  
HETATM    9 CL   UNL     1     -11.794  10.879  69.150  1.00  0.00    -0.388 Cl 
HETATM   10  C   UNL     1      -9.899  10.564  65.650  1.00  0.00    -0.311 A  
HETATM   11  C   UNL     1      -9.901  11.884  65.183  1.00  0.00    -0.243 A  
ENDBRANCH   3   5
ENDBRANCH   2   3
BRANCH   2  12
HETATM   12  N   UNL     1      -8.706  15.001  67.279  1.00  0.00    -0.190 NA 
HETATM   13  H   UNL     1      -8.574  14.022  67.535  1.00  0.00     0.000 HD 
HETATM   14  C   UNL     1      -7.662  16.004  67.583  1.00  0.00    -0.145 C  
HETATM   15  C   UNL     1      -7.994  16.797  68.856  1.00  0.00    -0.237 C  
HETATM   16  C   UNL     1      -7.372  16.960  66.419  1.00  0.00    -0.302 C  
HETATM   17  C   UNL     1      -6.365  15.214  67.881  1.00  0.00    -0.176 C  
ENDBRANCH   2  12
TORSDOF 3
ENDMDL
MODEL      204
REMARK 921   NORMALIZED FREE ENERGY PREDICTED BY IDOCK:   -3.23 KCAL/MOL
REMARK 922        TOTAL FREE ENERGY PREDICTED BY IDOCK:   -4.26 KCAL/MOL
REMARK 923 INTER-LIGAND FREE ENERGY PREDICTED BY IDOCK:   -3.65 KCAL/MOL
REMARK 924 INTRA-LIGAND FREE ENERGY PREDICTED BY IDOCK:   -0.61 KCAL/MOL
REMARK 927      BINDING AFFINITY PREDICTED BY RF-SCORE:    0.00 PKD
ROOT
HETATM    1  C   UNL     1     -10.929   6.157  66.844  1.00  0.00    -0.384 C  
HETATM    2  C   UNL     1     -10.301   5.986  68.232  1.00  0.00    -0.207 C  
ENDROOT
BRANCH   2   3
HETATM    3  C   UNL     1     -10.071   7.403  68.821  1.00  0.00    -0.179 C  
HETATM    4  O   UNL     1      -9.210   8.166  68.376  1.00  0.00    -0.136 OA 
BRANCH   3   5
HETATM    5  C   UNL     1     -10.930   7.919  69.939  1.00  0.00    -0.179 A  
HETATM    6  C   UNL     1     -11.980   7.096  70.382  1.00  0.00    -0.190 A  
HETATM    7  C   UNL     1     -12.855   7.539  71.372  1.00  0.00    -0.342 A  
HETATM    8  C   UNL     1     -12.703   8.805  71.930  1.00  0.00    -0.427 A  
HETATM    9 CL   UNL     1     -14.134   6.518  71.902  1.00  0.00    -0.128 Cl 
HETATM   10  C   UNL     1     -11.647   9.617  71.521  1.00  0.00    -0.451 A  
HETATM   11  C   UNL     1     -10.751   9.171  70.541  1.00  0.00    -0.289 A  
ENDBRANCH   3   5
ENDBRANCH   2   3
BRANCH   2  12
HETATM   12  N   UNL     1      -9.017   5.246  68.177  1.00  0.00    -0.108 NA 
HETATM   13  H   UNL     1      -8.232   5.610  67.636  1.00  0.00     0.000 HD 
HETATM   14  C   UNL     1      -8.892   3.972  68.918  1.00  0.00    -0.105 C  
HETATM   15  C   UNL     1      -9.516   2.803  68.141  1.00  0.00    -0.217 C  
HETATM   16  C   UNL     1      -9.461   4.030  70.341  1.00  0.00    -0.252 C  
HETATM   17  C   UNL     1      -7.378   3.671  69.026  1.00  0.00    -0.053 C  
ENDBRANCH   2  12
TORSDOF 3
ENDMDL
MODEL      205
REMARK 921   NORMALIZED FREE ENERGY PREDICTED BY IDOCK:   -3.18 KCAL/MOL
REMARK 922        TOTAL FREE ENERGY PREDICTED BY IDOCK:   -4.20 KCAL/MOL
REMARK 923 INTER-LIGAND FREE ENERGY PREDICTED BY IDOCK:   -3.61 KCAL/MOL
REMARK 924 INTRA-LIGAND FREE ENERGY PREDICTED BY IDOCK:   -0.59 KCAL/MOL
REMARK 927      BINDING AFFINITY PREDICTED BY RF-SCORE:    0.00 PKD
ROOT
HETATM    1  C   UNL     1     -11.393   5.293  72.792  1.00  0.00    -0.342 C  
HETATM    2  C   UNL     1     -10.183   5.708  71.948  1.00  0.00    -0.195 C  
ENDROOT
BRANCH   2   3
HETATM    3  C   UNL     1     -10.026   4.664  70.810  1.00  0.00    -0.214 C  
HETATM    4  O   UNL     1      -9.748   3.484  71.037  1.00  0.00    -0.170 OA 
BRANCH   3   5
HETATM    5  C   UNL     1     -10.251   5.050  69.377  1.00  0.00    -0.268 A  
HETATM    6  C   UNL     1      -9.653   4.248  68.389  1.00  0.00    -0.197 A  
HETATM    7  C   UNL     1      -9.768   4.585  67.042  1.00  0.00    -0.202 A  
HETATM    8  C   UNL     1     -10.470   5.723  66.658  1.00  0.00    -0.330 A  
HETATM    9 CL   UNL     1      -9.030   3.592  65.847  1.00  0.00    -0.135 Cl 
HETATM   10  C   UNL     1     -11.094   6.508  67.627  1.00  0.00    -0.380 A  
HETATM   11  C   UNL     1     -11.001   6.165  68.982  1.00  0.00    -0.436 A  
ENDBRANCH   3   5
ENDBRANCH   2   3
BRANCH   2  12
HETATM   12  N   UNL     1      -8.938   5.774  72.750  1.00  0.00    -0.128 NA 
HETATM   13  H   UNL     1      -8.637   4.973  73.306  1.00  0.00     0.000 HD 
HETATM   14  C   UNL     1      -8.141   7.019  72.734  1.00  0.00    -0.107 C  
HETATM   15  C   UNL     1      -8.724   8.077  73.685  1.00  0.00    -0.332 C  
HETATM   16  C   UNL     1      -7.952   7.610  71.331  1.00  0.00    -0.094 C  
HETATM   17  C   UNL     1      -6.742   6.655  73.287  1.00  0.00    -0.075 C  
ENDBRANCH   2  12
TORSDOF 3
ENDMDL
MODEL      206
REMARK 921   NORMALIZED FREE ENERGY PREDICTED BY IDOCK:   -3.18 KCAL/MOL
REMARK 922        TOTAL FREE ENERGY PREDICTED BY IDOCK:   -4.20 KCAL/MOL
REMARK 923 INTER-LIGAND FREE ENERGY PREDICTED BY IDOCK:   -3.80 KCAL/MOL
REMARK 924 INTRA-LIGAND FREE ENERGY PREDICTED BY IDOCK:   -0.40 KCAL/MOL
REMARK 927      BINDING AFFINITY PREDICTED BY RF-SCORE:    0.00 PKD
ROOT
HETATM    1  C   UNL     1      -8.684   9.240  70.890  1.00  0.00    -0.234 C  
HETATM    2  C   UNL     1     -10.107   9.491  70.378  1.00  0.00    -0.271 C  
ENDROOT
BRANCH   2   3
HETATM    3  C   UNL     1     -10.932   8.203  70.635  1.00  0.00    -0.244 C  
HETATM    4  O   UNL     1     -12.038   8.231  71.180  1.00  0.00    -0.292 OA 
BRANCH   3   5
HETATM    5  C   UNL     1     -10.426   6.863  70.186  1.00  0.00    -0.233 A  
HETATM    6  C   UNL     1     -10.428   6.601  68.805  1.00  0.00    -0.241 A  
HETATM    7  C   UNL     1     -10.032   5.355  68.322  1.00  0.00    -0.159 A  
HETATM    8  C   UNL     1      -9.635   4.353  69.203  1.00  0.00    -0.252 A  
HETATM    9 CL   UNL     1     -10.040   5.052  66.629  1.00  0.00    -0.241 Cl 
HETATM   10  C   UNL     1      -9.599   4.613  70.572  1.00  0.00    -0.268 A  
HETATM   11  C   UNL     1      -9.976   5.869  71.063  1.00  0.00    -0.239 A  
ENDBRANCH   3   5
ENDBRANCH   2   3
BRANCH   2  12
HETATM   12  N   UNL     1     -10.130   9.827  68.934  1.00  0.00    -0.175 NA 
HETATM   13  H   UNL     1      -9.817   9.149  68.239  1.00  0.00     0.000 HD 
HETATM   14  C   UNL     1     -10.612  11.161  68.516  1.00  0.00    -0.191 C  
HETATM   15  C   UNL     1      -9.522  12.232  68.674  1.00  0.00    -0.030 C  
HETATM   16  C   UNL     1     -11.898  11.601  69.229  1.00  0.00    -0.396 C  
HETATM   17  C   UNL     1     -10.920  11.066  67.002  1.00  0.00    -0.333 C  
ENDBRANCH   2  12
TORSDOF 3
ENDMDL
MODEL      207
REMARK 921   NORMALIZED FREE ENERGY PREDICTED BY IDOCK:   -3.16 KCAL/MOL
REMARK 922        TOTAL FREE ENERGY PREDICTED BY IDOCK:   -4.18 KCAL/MOL
REMARK 923 INTER-LIGAND FREE ENERGY PREDICTED BY IDOCK:   -3.64 KCAL/MOL
REMARK 924 INTRA-LIGAND FREE ENERGY PREDICTED BY IDOCK:   -0.54 KCAL/MOL
REMARK 927      BINDING AFFINITY PREDICTED BY RF-SCORE:    0.00 PKD
ROOT
HETATM    1  C   UNL     1      -9.105   3.273  70.772  1.00  0.00    -0.185 C  
HETATM    2  C   UNL     1      -9.052   4.736  70.316  1.00  0.00    -0.115 C  
ENDROOT
BRANCH   2   3
HETATM    3  C   UNL     1      -9.233   5.626  71.574  1.00  0.00    -0.143 C  
HETATM    4  O   UNL     1      -8.651   5.388  72.635  1.00  0.00    -0.120 OA 
BRANCH   3   5
HETATM    5  C   UNL     1     -10.102   6.850  71.531  1.00  0.00    -0.195 A  
HETATM    6  C   UNL     1      -9.656   7.933  70.753  1.00  0.00    -0.171 A  
HETATM    7  C   UNL     1     -10.380   9.123  70.718  1.00  0.00    -0.258 A  
HETATM    8  C   UNL     1     -11.550   9.257  71.460  1.00  0.00    -0.452 A  
HETATM    9 CL   UNL     1      -9.819  10.437  69.761  1.00  0.00    -0.195 Cl 
HETATM   10  C   UNL     1     -12.018   8.178  72.210  1.00  0.00    -0.434 A  
HETATM   11  C   UNL     1     -11.307   6.972  72.233  1.00  0.00    -0.305 A  
ENDBRANCH   3   5
ENDBRANCH   2   3
BRANCH   2  12
HETATM   12  N   UNL     1     -10.104   5.049  69.319  1.00  0.00    -0.212 NA 
HETATM   13  H   UNL     1     -11.077   5.152  69.607  1.00  0.00     0.000 HD 
HETATM   14  C   UNL     1      -9.721   5.207  67.899  1.00  0.00    -0.145 C  
HETATM   15  C   UNL     1      -9.563   3.848  67.201  1.00  0.00    -0.226 C  
HETATM   16  C   UNL     1      -8.462   6.060  67.694  1.00  0.00    -0.107 C  
HETATM   17  C   UNL     1     -10.899   5.927  67.201  1.00  0.00    -0.373 C  
ENDBRANCH   2  12
TORSDOF 3
ENDMDL
MODEL      208
REMARK 921   NORMALIZED FREE ENERGY PREDICTED BY IDOCK:   -3.14 KCAL/MOL
REMARK 922        TOTAL FREE ENERGY PREDICTED BY IDOCK:   -4.16 KCAL/MOL
REMARK 923 INTER-LIGAND FREE ENERGY PREDICTED BY IDOCK:   -3.69 KCAL/MOL
REMARK 924 INTRA-LIGAND FREE ENERGY PREDICTED BY IDOCK:   -0.47 KCAL/MOL
REMARK 927      BINDING AFFINITY PREDICTED BY RF-SCORE:    0.00 PKD
ROOT
HETATM    1  C   UNL     1     -10.935   6.843  67.213  1.00  0.00    -0.406 C  
HETATM    2  C   UNL     1      -9.935   5.884  67.869  1.00  0.00    -0.134 C  
ENDROOT
BRANCH   2   3
HETATM    3  C   UNL     1     -10.301   5.781  69.373  1.00  0.00    -0.262 C  
HETATM    4  O   UNL     1     -10.288   4.707  69.979  1.00  0.00    -0.205 OA 
BRANCH   3   5
HETATM    5  C   UNL     1     -10.647   7.009  70.165  1.00  0.00    -0.249 A  
HETATM    6  C   UNL     1     -11.968   7.127  70.632  1.00  0.00    -0.312 A  
HETATM    7  C   UNL     1     -12.374   8.270  71.318  1.00  0.00    -0.263 A  
HETATM    8  C   UNL     1     -11.479   9.311  71.544  1.00  0.00    -0.454 A  
HETATM    9 CL   UNL     1     -13.994   8.397  71.883  1.00  0.00    -0.451 Cl 
HETATM   10  C   UNL     1     -10.158   9.191  71.113  1.00  0.00    -0.384 A  
HETATM   11  C   UNL     1      -9.737   8.037  70.441  1.00  0.00    -0.178 A  
ENDBRANCH   3   5
ENDBRANCH   2   3
BRANCH   2  12
HETATM   12  N   UNL     1      -8.535   6.348  67.718  1.00  0.00    -0.117 NA 
HETATM   13  H   UNL     1      -8.247   7.254  68.089  1.00  0.00     0.000 HD 
HETATM   14  C   UNL     1      -7.563   5.478  67.022  1.00  0.00    -0.092 C  
HETATM   15  C   UNL     1      -7.690   5.596  65.496  1.00  0.00    -0.089 C  
HETATM   16  C   UNL     1      -7.637   4.007  67.451  1.00  0.00    -0.072 C  
HETATM   17  C   UNL     1      -6.155   6.006  67.389  1.00  0.00    -0.018 C  
ENDBRANCH   2  12
TORSDOF 3
ENDMDL
MODEL      209
REMARK 921   NORMALIZED FREE ENERGY PREDICTED BY IDOCK:   -3.13 KCAL/MOL
REMARK 922        TOTAL FREE ENERGY PREDICTED BY IDOCK:   -4.15 KCAL/MOL
REMARK 923 INTER-LIGAND FREE ENERGY PREDICTED BY IDOCK:   -3.72 KCAL/MOL
REMARK 924 INTRA-LIGAND FREE ENERGY PREDICTED BY IDOCK:   -0.42 KCAL/MOL
REMARK 927      BINDING AFFINITY PREDICTED BY RF-SCORE:    0.00 PKD
ROOT
HETATM    1  C   UNL     1      -7.686  10.376  66.557  1.00  0.00    -0.121 C  
HETATM    2  C   UNL     1      -8.512  11.462  67.255  1.00  0.00    -0.148 C  
ENDROOT
BRANCH   2   3
HETATM    3  C   UNL     1      -9.962  10.928  67.399  1.00  0.00    -0.186 C  
HETATM    4  O   UNL     1     -10.838  11.179  66.569  1.00  0.00    -0.274 OA 
BRANCH   3   5
HETATM    5  C   UNL     1     -10.343  10.040  68.548  1.00  0.00    -0.217 A  
HETATM    6  C   UNL     1     -10.579   8.683  68.266  1.00  0.00    -0.181 A  
HETATM    7  C   UNL     1     -10.998   7.815  69.272  1.00  0.00     0.007 A  
HETATM    8  C   UNL     1     -11.196   8.284  70.568  1.00  0.00    -0.247 A  
HETATM    9 CL   UNL     1     -11.282   6.158  68.909  1.00  0.00    -0.422 Cl 
HETATM   10  C   UNL     1     -10.935   9.621  70.866  1.00  0.00    -0.412 A  
HETATM   11  C   UNL     1     -10.493  10.494  69.864  1.00  0.00    -0.213 A  
ENDBRANCH   3   5
ENDBRANCH   2   3
BRANCH   2  12
HETATM   12  N   UNL     1      -8.514  12.736  66.497  1.00  0.00    -0.415 NA 
HETATM   13  H   UNL     1      -8.534  12.732  65.477  1.00  0.00     0.000 HD 
HETATM   14  C   UNL     1      -8.486  14.013  67.243  1.00  0.00    -0.207 C  
HETATM   15  C   UNL     1      -7.063  14.370  67.699  1.00  0.00    -0.202 C  
HETATM   16  C   UNL     1      -9.452  14.051  68.434  1.00  0.00    -0.213 C  
HETATM   17  C   UNL     1      -8.919  15.115  66.247  1.00  0.00    -0.274 C  
ENDBRANCH   2  12
TORSDOF 3
ENDMDL
MODEL      210
REMARK 921   NORMALIZED FREE ENERGY PREDICTED BY IDOCK:   -3.13 KCAL/MOL
REMARK 922        TOTAL FREE ENERGY PREDICTED BY IDOCK:   -4.14 KCAL/MOL
REMARK 923 INTER-LIGAND FREE ENERGY PREDICTED BY IDOCK:   -3.52 KCAL/MOL
REMARK 924 INTRA-LIGAND FREE ENERGY PREDICTED BY IDOCK:   -0.63 KCAL/MOL
REMARK 927      BINDING AFFINITY PREDICTED BY RF-SCORE:    0.00 PKD
ROOT
HETATM    1  C   UNL     1      -7.198  10.619  69.840  1.00  0.00    -0.109 C  
HETATM    2  C   UNL     1      -8.623  10.071  69.705  1.00  0.00    -0.184 C  
ENDROOT
BRANCH   2   3
HETATM    3  C   UNL     1      -8.791   8.938  70.750  1.00  0.00    -0.208 C  
HETATM    4  O   UNL     1      -8.493   9.092  71.937  1.00  0.00    -0.363 OA 
BRANCH   3   5
HETATM    5  C   UNL     1      -9.372   7.610  70.358  1.00  0.00    -0.160 A  
HETATM    6  C   UNL     1      -8.504   6.504  70.342  1.00  0.00    -0.131 A  
HETATM    7  C   UNL     1      -8.960   5.255  69.926  1.00  0.00    -0.119 A  
HETATM    8  C   UNL     1     -10.279   5.088  69.515  1.00  0.00    -0.286 A  
HETATM    9 CL   UNL     1      -7.884   3.913  69.913  1.00  0.00    -0.051 Cl 
HETATM   10  C   UNL     1     -11.157   6.171  69.557  1.00  0.00    -0.490 A  
HETATM   11  C   UNL     1     -10.711   7.425  69.993  1.00  0.00    -0.258 A  
ENDBRANCH   3   5
ENDBRANCH   2   3
BRANCH   2  12
HETATM   12  N   UNL     1      -8.894   9.549  68.344  1.00  0.00    -0.124 NA 
HETATM   13  H   UNL     1      -8.380   8.743  67.986  1.00  0.00     0.000 HD 
HETATM   14  C   UNL     1      -9.919  10.214  67.511  1.00  0.00    -0.191 C  
HETATM   15  C   UNL     1      -9.367  11.480  66.838  1.00  0.00    -0.189 C  
HETATM   16  C   UNL     1     -11.213  10.537  68.271  1.00  0.00    -0.354 C  
HETATM   17  C   UNL     1     -10.273   9.228  66.373  1.00  0.00    -0.298 C  
ENDBRANCH   2  12
TORSDOF 3
ENDMDL
MODEL      211
REMARK 921   NORMALIZED FREE ENERGY PREDICTED BY IDOCK:   -3.12 KCAL/MOL
REMARK 922        TOTAL FREE ENERGY PREDICTED BY IDOCK:   -4.14 KCAL/MOL
REMARK 923 INTER-LIGAND FREE ENERGY PREDICTED BY IDOCK:   -3.84 KCAL/MOL
REMARK 924 INTRA-LIGAND FREE ENERGY PREDICTED BY IDOCK:   -0.30 KCAL/MOL
REMARK 927      BINDING AFFINITY PREDICTED BY RF-SCORE:    0.00 PKD
ROOT
HETATM    1  C   UNL     1     -10.534   8.231  67.644  1.00  0.00    -0.303 C  
HETATM    2  C   UNL     1     -10.378   7.779  69.101  1.00  0.00    -0.215 C  
ENDROOT
BRANCH   2   3
HETATM    3  C   UNL     1     -10.026   6.268  69.088  1.00  0.00    -0.150 C  
HETATM    4  O   UNL     1     -10.108   5.567  70.099  1.00  0.00    -0.200 OA 
BRANCH   3   5
HETATM    5  C   UNL     1      -9.608   5.587  67.817  1.00  0.00    -0.138 A  
HETATM    6  C   UNL     1      -8.232   5.530  67.535  1.00  0.00    -0.101 A  
HETATM    7  C   UNL     1      -7.778   4.970  66.343  1.00  0.00    -0.092 A  
HETATM    8  C   UNL     1      -8.682   4.467  65.412  1.00  0.00    -0.125 A  
HETATM    9 CL   UNL     1      -6.090   4.909  66.015  1.00  0.00    -0.026 Cl 
HETATM   10  C   UNL     1     -10.047   4.489  65.696  1.00  0.00    -0.261 A  
HETATM   11  C   UNL     1     -10.510   5.032  66.901  1.00  0.00    -0.243 A  
ENDBRANCH   3   5
ENDBRANCH   2   3
BRANCH   2  12
HETATM   12  N   UNL     1     -11.613   8.004  69.890  1.00  0.00    -0.440 NA 
HETATM   13  H   UNL     1     -12.499   7.591  69.596  1.00  0.00     0.000 HD 
HETATM   14  C   UNL     1     -11.543   8.838  71.110  1.00  0.00    -0.289 C  
HETATM   15  C   UNL     1     -11.571  10.336  70.772  1.00  0.00    -0.446 C  
HETATM   16  C   UNL     1     -10.339   8.516  72.005  1.00  0.00    -0.408 C  
HETATM   17  C   UNL     1     -12.827   8.544  71.921  1.00  0.00    -0.399 C  
ENDBRANCH   2  12
TORSDOF 3
ENDMDL
MODEL      212
REMARK 921   NORMALIZED FREE ENERGY PREDICTED BY IDOCK:   -3.09 KCAL/MOL
REMARK 922        TOTAL FREE ENERGY PREDICTED BY IDOCK:   -4.10 KCAL/MOL
REMARK 923 INTER-LIGAND FREE ENERGY PREDICTED BY IDOCK:   -3.53 KCAL/MOL
REMARK 924 INTRA-LIGAND FREE ENERGY PREDICTED BY IDOCK:   -0.57 KCAL/MOL
REMARK 927      BINDING AFFINITY PREDICTED BY RF-SCORE:    0.00 PKD
ROOT
HETATM    1  C   UNL     1     -11.086   5.235  72.739  1.00  0.00    -0.346 C  
HETATM    2  C   UNL     1     -10.078   5.904  71.798  1.00  0.00    -0.187 C  
ENDROOT
BRANCH   2   3
HETATM    3  C   UNL     1     -10.058   5.091  70.477  1.00  0.00    -0.253 C  
HETATM    4  O   UNL     1      -9.975   3.861  70.465  1.00  0.00    -0.165 OA 
BRANCH   3   5
HETATM    5  C   UNL     1     -10.186   5.780  69.149  1.00  0.00    -0.289 A  
HETATM    6  C   UNL     1     -10.269   7.184  69.153  1.00  0.00    -0.196 A  
HETATM    7  C   UNL     1     -10.453   7.884  67.963  1.00  0.00    -0.185 A  
HETATM    8  C   UNL     1     -10.563   7.201  66.754  1.00  0.00    -0.291 A  
HETATM    9 CL   UNL     1     -10.553   9.601  67.987  1.00  0.00    -0.282 Cl 
HETATM   10  C   UNL     1     -10.449   5.812  66.735  1.00  0.00    -0.350 A  
HETATM   11  C   UNL     1     -10.244   5.103  67.925  1.00  0.00    -0.180 A  
ENDBRANCH   3   5
ENDBRANCH   2   3
BRANCH   2  12
HETATM   12  N   UNL     1      -8.716   5.953  72.382  1.00  0.00    -0.127 NA 
HETATM   13  H   UNL     1      -8.147   5.108  72.443  1.00  0.00     0.000 HD 
HETATM   14  C   UNL     1      -8.194   7.246  72.877  1.00  0.00    -0.106 C  
HETATM   15  C   UNL     1      -8.730   7.572  74.280  1.00  0.00    -0.264 C  
HETATM   16  C   UNL     1      -8.453   8.419  71.922  1.00  0.00    -0.237 C  
HETATM   17  C   UNL     1      -6.662   7.079  73.018  1.00  0.00    -0.069 C  
ENDBRANCH   2  12
TORSDOF 3
ENDMDL
MODEL      213
REMARK 921   NORMALIZED FREE ENERGY PREDICTED BY IDOCK:   -3.08 KCAL/MOL
REMARK 922        TOTAL FREE ENERGY PREDICTED BY IDOCK:   -4.09 KCAL/MOL
REMARK 923 INTER-LIGAND FREE ENERGY PREDICTED BY IDOCK:   -3.41 KCAL/MOL
REMARK 924 INTRA-LIGAND FREE ENERGY PREDICTED BY IDOCK:   -0.68 KCAL/MOL
REMARK 927      BINDING AFFINITY PREDICTED BY RF-SCORE:    0.00 PKD
ROOT
HETATM    1  C   UNL     1     -10.299  10.691  69.146  1.00  0.00    -0.242 C  
HETATM    2  C   UNL     1      -9.340  10.550  67.959  1.00  0.00    -0.145 C  
ENDROOT
BRANCH   2   3
HETATM    3  C   UNL     1     -10.057   9.704  66.874  1.00  0.00    -0.227 C  
HETATM    4  O   UNL     1     -10.765   8.736  67.160  1.00  0.00    -0.271 OA 
BRANCH   3   5
HETATM    5  C   UNL     1      -9.947  10.065  65.421  1.00  0.00    -0.364 A  
HETATM    6  C   UNL     1      -8.981   9.387  64.657  1.00  0.00    -0.233 A  
HETATM    7  C   UNL     1      -8.781   9.717  63.318  1.00  0.00    -0.230 A  
HETATM    8  C   UNL     1      -9.531  10.727  62.722  1.00  0.00    -0.358 A  
HETATM    9 CL   UNL     1      -7.595   8.876  62.398  1.00  0.00    -0.104 Cl 
HETATM   10  C   UNL     1     -10.513  11.384  63.462  1.00  0.00    -0.477 A  
HETATM   11  C   UNL     1     -10.734  11.044  64.803  1.00  0.00    -0.304 A  
ENDBRANCH   3   5
ENDBRANCH   2   3
BRANCH   2  12
HETATM   12  N   UNL     1      -8.064   9.901  68.346  1.00  0.00    -0.099 NA 
HETATM   13  H   UNL     1      -8.060   8.959  68.736  1.00  0.00     0.000 HD 
HETATM   14  C   UNL     1      -6.798  10.642  68.159  1.00  0.00    -0.068 C  
HETATM   15  C   UNL     1      -6.553  11.641  69.301  1.00  0.00    -0.111 C  
HETATM   16  C   UNL     1      -6.694  11.350  66.802  1.00  0.00    -0.137 C  
HETATM   17  C   UNL     1      -5.659   9.597  68.236  1.00  0.00    -0.040 C  
ENDBRANCH   2  12
TORSDOF 3
ENDMDL
MODEL      214
REMARK 921   NORMALIZED FREE ENERGY PREDICTED BY IDOCK:   -3.08 KCAL/MOL
REMARK 922        TOTAL FREE ENERGY PREDICTED BY IDOCK:   -4.08 KCAL/MOL
REMARK 923 INTER-LIGAND FREE ENERGY PREDICTED BY IDOCK:   -3.46 KCAL/MOL
REMARK 924 INTRA-LIGAND FREE ENERGY PREDICTED BY IDOCK:   -0.62 KCAL/MOL
REMARK 927      BINDING AFFINITY PREDICTED BY RF-SCORE:    0.00 PKD
ROOT
HETATM    1  C   UNL     1     -10.302  14.995  66.321  1.00  0.00    -0.304 C  
HETATM    2  C   UNL     1      -9.640  13.916  67.186  1.00  0.00    -0.247 C  
ENDROOT
BRANCH   2   3
HETATM    3  C   UNL     1     -10.759  12.972  67.697  1.00  0.00    -0.227 C  
HETATM    4  O   UNL     1     -11.778  13.400  68.247  1.00  0.00    -0.315 OA 
BRANCH   3   5
HETATM    5  C   UNL     1     -10.662  11.487  67.501  1.00  0.00    -0.267 A  
HETATM    6  C   UNL     1     -10.743  10.676  68.646  1.00  0.00    -0.239 A  
HETATM    7  C   UNL     1     -10.596   9.294  68.544  1.00  0.00    -0.183 A  
HETATM    8  C   UNL     1     -10.360   8.700  67.307  1.00  0.00    -0.366 A  
HETATM    9 CL   UNL     1     -10.698   8.317  69.956  1.00  0.00    -0.240 Cl 
HETATM   10  C   UNL     1     -10.310   9.492  66.161  1.00  0.00    -0.188 A  
HETATM   11  C   UNL     1     -10.478  10.880  66.253  1.00  0.00    -0.304 A  
ENDBRANCH   3   5
ENDBRANCH   2   3
BRANCH   2  12
HETATM   12  N   UNL     1      -8.902  14.496  68.334  1.00  0.00    -0.175 NA 
HETATM   13  H   UNL     1      -9.385  15.074  69.022  1.00  0.00     0.000 HD 
HETATM   14  C   UNL     1      -7.454  14.225  68.466  1.00  0.00    -0.121 C  
HETATM   15  C   UNL     1      -6.621  15.144  67.560  1.00  0.00    -0.167 C  
HETATM   16  C   UNL     1      -7.079  12.757  68.225  1.00  0.00    -0.104 C  
HETATM   17  C   UNL     1      -7.070  14.577  69.923  1.00  0.00    -0.012 C  
ENDBRANCH   2  12
TORSDOF 3
ENDMDL
MODEL      215
REMARK 921   NORMALIZED FREE ENERGY PREDICTED BY IDOCK:   -3.06 KCAL/MOL
REMARK 922        TOTAL FREE ENERGY PREDICTED BY IDOCK:   -4.07 KCAL/MOL
REMARK 923 INTER-LIGAND FREE ENERGY PREDICTED BY IDOCK:   -3.57 KCAL/MOL
REMARK 924 INTRA-LIGAND FREE ENERGY PREDICTED BY IDOCK:   -0.49 KCAL/MOL
REMARK 927      BINDING AFFINITY PREDICTED BY RF-SCORE:    0.00 PKD
ROOT
HETATM    1  C   UNL     1      -9.856   4.074  70.000  1.00  0.00    -0.198 C  
HETATM    2  C   UNL     1      -9.589   4.910  68.744  1.00  0.00    -0.156 C  
ENDROOT
BRANCH   2   3
HETATM    3  C   UNL     1     -10.559   6.120  68.771  1.00  0.00    -0.273 C  
HETATM    4  O   UNL     1     -11.257   6.423  67.800  1.00  0.00    -0.323 OA 
BRANCH   3   5
HETATM    5  C   UNL     1     -10.718   6.951  70.012  1.00  0.00    -0.276 A  
HETATM    6  C   UNL     1     -12.026   7.192  70.467  1.00  0.00    -0.258 A  
HETATM    7  C   UNL     1     -12.249   8.007  71.575  1.00  0.00    -0.299 A  
HETATM    8  C   UNL     1     -11.179   8.598  72.240  1.00  0.00    -0.399 A  
HETATM    9 CL   UNL     1     -13.856   8.290  72.118  1.00  0.00    -0.366 Cl 
HETATM   10  C   UNL     1      -9.876   8.341  71.817  1.00  0.00    -0.284 A  
HETATM   11  C   UNL     1      -9.643   7.506  70.717  1.00  0.00    -0.166 A  
ENDBRANCH   3   5
ENDBRANCH   2   3
BRANCH   2  12
HETATM   12  N   UNL     1      -9.789   4.129  67.500  1.00  0.00    -0.135 NA 
HETATM   13  H   UNL     1     -10.694   3.706  67.293  1.00  0.00     0.000 HD 
HETATM   14  C   UNL     1      -8.655   3.971  66.563  1.00  0.00    -0.110 C  
HETATM   15  C   UNL     1      -7.694   2.862  67.020  1.00  0.00    -0.075 C  
HETATM   16  C   UNL     1      -7.883   5.272  66.307  1.00  0.00    -0.103 C  
HETATM   17  C   UNL     1      -9.257   3.505  65.215  1.00  0.00    -0.153 C  
ENDBRANCH   2  12
TORSDOF 3
ENDMDL
MODEL      216
REMARK 921   NORMALIZED FREE ENERGY PREDICTED BY IDOCK:   -3.06 KCAL/MOL
REMARK 922        TOTAL FREE ENERGY PREDICTED BY IDOCK:   -4.06 KCAL/MOL
REMARK 923 INTER-LIGAND FREE ENERGY PREDICTED BY IDOCK:   -3.88 KCAL/MOL
REMARK 924 INTRA-LIGAND FREE ENERGY PREDICTED BY IDOCK:   -0.19 KCAL/MOL
REMARK 927      BINDING AFFINITY PREDICTED BY RF-SCORE:    0.00 PKD
ROOT
HETATM    1  C   UNL     1     -10.236  15.352  69.171  1.00  0.00    -0.239 C  
HETATM    2  C   UNL     1      -8.806  15.709  68.747  1.00  0.00    -0.208 C  
ENDROOT
BRANCH   2   3
HETATM    3  C   UNL     1      -8.869  16.255  67.297  1.00  0.00    -0.188 C  
HETATM    4  O   UNL     1      -8.759  15.519  66.314  1.00  0.00    -0.304 OA 
BRANCH   3   5
HETATM    5  C   UNL     1      -9.114  17.713  67.035  1.00  0.00    -0.256 A  
HETATM    6  C   UNL     1      -8.042  18.467  66.525  1.00  0.00    -0.299 A  
HETATM    7  C   UNL     1      -8.179  19.838  66.318  1.00  0.00    -0.350 A  
HETATM    8  C   UNL     1      -9.377  20.480  66.622  1.00  0.00    -0.328 A  
HETATM    9 CL   UNL     1      -6.858  20.745  65.693  1.00  0.00    -0.163 Cl 
HETATM   10  C   UNL     1     -10.456  19.736  67.098  1.00  0.00    -0.592 A  
HETATM   11  C   UNL     1     -10.332  18.354  67.288  1.00  0.00    -0.417 A  
ENDBRANCH   3   5
ENDBRANCH   2   3
BRANCH   2  12
HETATM   12  N   UNL     1      -7.897  14.539  68.809  1.00  0.00    -0.142 NA 
HETATM   13  H   UNL     1      -8.263  13.593  68.702  1.00  0.00     0.000 HD 
HETATM   14  C   UNL     1      -6.452  14.765  69.029  1.00  0.00    -0.096 C  
HETATM   15  C   UNL     1      -6.136  14.998  70.514  1.00  0.00    -0.081 C  
HETATM   16  C   UNL     1      -5.871  15.900  68.176  1.00  0.00    -0.129 C  
HETATM   17  C   UNL     1      -5.734  13.455  68.626  1.00  0.00    -0.084 C  
ENDBRANCH   2  12
TORSDOF 3
ENDMDL
MODEL      217
REMARK 921   NORMALIZED FREE ENERGY PREDICTED BY IDOCK:   -3.06 KCAL/MOL
REMARK 922        TOTAL FREE ENERGY PREDICTED BY IDOCK:   -4.06 KCAL/MOL
REMARK 923 INTER-LIGAND FREE ENERGY PREDICTED BY IDOCK:   -3.50 KCAL/MOL
REMARK 924 INTRA-LIGAND FREE ENERGY PREDICTED BY IDOCK:   -0.56 KCAL/MOL
REMARK 927      BINDING AFFINITY PREDICTED BY RF-SCORE:    0.00 PKD
ROOT
HETATM    1  C   UNL     1     -10.156   4.412  65.832  1.00  0.00    -0.262 C  
HETATM    2  C   UNL     1      -9.772   4.591  67.305  1.00  0.00    -0.186 C  
ENDROOT
BRANCH   2   3
HETATM    3  C   UNL     1     -10.534   5.832  67.842  1.00  0.00    -0.228 C  
HETATM    4  O   UNL     1     -11.118   6.618  67.091  1.00  0.00    -0.392 OA 
BRANCH   3   5
HETATM    5  C   UNL     1     -10.625   6.100  69.316  1.00  0.00    -0.348 A  
HETATM    6  C   UNL     1     -10.800   7.434  69.722  1.00  0.00    -0.246 A  
HETATM    7  C   UNL     1     -10.829   7.762  71.076  1.00  0.00    -0.239 A  
HETATM    8  C   UNL     1     -10.677   6.773  72.043  1.00  0.00    -0.245 A  
HETATM    9 CL   UNL     1     -11.045   9.400  71.554  1.00  0.00    -0.446 Cl 
HETATM   10  C   UNL     1     -10.534   5.442  71.652  1.00  0.00    -0.291 A  
HETATM   11  C   UNL     1     -10.525   5.102  70.294  1.00  0.00    -0.296 A  
ENDBRANCH   3   5
ENDBRANCH   2   3
BRANCH   2  12
HETATM   12  N   UNL     1      -8.312   4.778  67.482  1.00  0.00    -0.105 NA 
HETATM   13  H   UNL     1      -7.888   5.698  67.360  1.00  0.00     0.000 HD 
HETATM   14  C   UNL     1      -7.478   3.609  67.840  1.00  0.00    -0.062 C  
HETATM   15  C   UNL     1      -7.147   2.754  66.607  1.00  0.00    -0.053 C  
HETATM   16  C   UNL     1      -8.085   2.737  68.946  1.00  0.00    -0.069 C  
HETATM   17  C   UNL     1      -6.134   4.169  68.362  1.00  0.00    -0.031 C  
ENDBRANCH   2  12
TORSDOF 3
ENDMDL
MODEL      218
REMARK 921   NORMALIZED FREE ENERGY PREDICTED BY IDOCK:   -3.05 KCAL/MOL
REMARK 922        TOTAL FREE ENERGY PREDICTED BY IDOCK:   -4.05 KCAL/MOL
REMARK 923 INTER-LIGAND FREE ENERGY PREDICTED BY IDOCK:   -3.65 KCAL/MOL
REMARK 924 INTRA-LIGAND FREE ENERGY PREDICTED BY IDOCK:   -0.40 KCAL/MOL
REMARK 927      BINDING AFFINITY PREDICTED BY RF-SCORE:    0.00 PKD
ROOT
HETATM    1  C   UNL     1      -7.041   6.925  67.260  1.00  0.00    -0.084 C  
HETATM    2  C   UNL     1      -8.329   6.868  68.088  1.00  0.00    -0.118 C  
ENDROOT
BRANCH   2   3
HETATM    3  C   UNL     1      -9.514   7.171  67.134  1.00  0.00    -0.147 C  
HETATM    4  O   UNL     1     -10.234   6.279  66.679  1.00  0.00    -0.188 OA 
BRANCH   3   5
HETATM    5  C   UNL     1      -9.858   8.584  66.761  1.00  0.00    -0.327 A  
HETATM    6  C   UNL     1     -10.568   9.348  67.703  1.00  0.00    -0.333 A  
HETATM    7  C   UNL     1     -10.976  10.645  67.398  1.00  0.00    -0.298 A  
HETATM    8  C   UNL     1     -10.690  11.198  66.152  1.00  0.00    -0.285 A  
HETATM    9 CL   UNL     1     -11.844  11.566  68.563  1.00  0.00    -0.384 Cl 
HETATM   10  C   UNL     1      -9.959  10.460  65.222  1.00  0.00    -0.376 A  
HETATM   11  C   UNL     1      -9.528   9.164  65.529  1.00  0.00    -0.276 A  
ENDBRANCH   3   5
ENDBRANCH   2   3
BRANCH   2  12
HETATM   12  N   UNL     1      -8.318   7.842  69.207  1.00  0.00    -0.135 NA 
HETATM   13  H   UNL     1      -8.137   8.830  69.031  1.00  0.00     0.000 HD 
HETATM   14  C   UNL     1      -8.571   7.357  70.581  1.00  0.00    -0.141 C  
HETATM   15  C   UNL     1      -7.310   6.737  71.203  1.00  0.00    -0.079 C  
HETATM   16  C   UNL     1      -9.750   6.381  70.681  1.00  0.00    -0.197 C  
HETATM   17  C   UNL     1      -8.914   8.603  71.432  1.00  0.00    -0.286 C  
ENDBRANCH   2  12
TORSDOF 3
ENDMDL
MODEL      219
REMARK 921   NORMALIZED FREE ENERGY PREDICTED BY IDOCK:   -3.04 KCAL/MOL
REMARK 922        TOTAL FREE ENERGY PREDICTED BY IDOCK:   -4.04 KCAL/MOL
REMARK 923 INTER-LIGAND FREE ENERGY PREDICTED BY IDOCK:   -3.65 KCAL/MOL
REMARK 924 INTRA-LIGAND FREE ENERGY PREDICTED BY IDOCK:   -0.39 KCAL/MOL
REMARK 927      BINDING AFFINITY PREDICTED BY RF-SCORE:    0.00 PKD
ROOT
HETATM    1  C   UNL     1     -10.616  10.421  67.446  1.00  0.00    -0.321 C  
HETATM    2  C   UNL     1     -10.007  11.023  66.174  1.00  0.00    -0.231 C  
ENDROOT
BRANCH   2   3
HETATM    3  C   UNL     1      -8.468  10.852  66.264  1.00  0.00    -0.166 C  
HETATM    4  O   UNL     1      -7.827  10.229  65.413  1.00  0.00    -0.141 OA 
BRANCH   3   5
HETATM    5  C   UNL     1      -7.688  11.483  67.381  1.00  0.00    -0.143 A  
HETATM    6  C   UNL     1      -7.225  10.638  68.404  1.00  0.00    -0.084 A  
HETATM    7  C   UNL     1      -6.550  11.165  69.503  1.00  0.00    -0.126 A  
HETATM    8  C   UNL     1      -6.333  12.536  69.605  1.00  0.00    -0.100 A  
HETATM    9 CL   UNL     1      -5.990  10.116  70.746  1.00  0.00    -0.095 Cl 
HETATM   10  C   UNL     1      -6.760  13.380  68.580  1.00  0.00    -0.096 A  
HETATM   11  C   UNL     1      -7.421  12.855  67.462  1.00  0.00    -0.155 A  
ENDBRANCH   3   5
ENDBRANCH   2   3
BRANCH   2  12
HETATM   12  N   UNL     1     -10.349  12.457  66.016  1.00  0.00    -0.245 NA 
HETATM   13  H   UNL     1     -10.122  13.128  66.750  1.00  0.00     0.000 HD 
HETATM   14  C   UNL     1     -11.025  12.900  64.777  1.00  0.00    -0.318 C  
HETATM   15  C   UNL     1     -12.535  12.620  64.826  1.00  0.00    -0.555 C  
HETATM   16  C   UNL     1     -10.415  12.311  63.499  1.00  0.00    -0.459 C  
HETATM   17  C   UNL     1     -10.865  14.438  64.713  1.00  0.00    -0.415 C  
ENDBRANCH   2  12
TORSDOF 3
ENDMDL
MODEL      220
REMARK 921   NORMALIZED FREE ENERGY PREDICTED BY IDOCK:   -3.04 KCAL/MOL
REMARK 922        TOTAL FREE ENERGY PREDICTED BY IDOCK:   -4.04 KCAL/MOL
REMARK 923 INTER-LIGAND FREE ENERGY PREDICTED BY IDOCK:   -3.77 KCAL/MOL
REMARK 924 INTRA-LIGAND FREE ENERGY PREDICTED BY IDOCK:   -0.27 KCAL/MOL
REMARK 927      BINDING AFFINITY PREDICTED BY RF-SCORE:    0.00 PKD
ROOT
HETATM    1  C   UNL     1     -10.486   8.083  67.301  1.00  0.00    -0.384 C  
HETATM    2  C   UNL     1     -10.677   9.253  68.272  1.00  0.00    -0.145 C  
ENDROOT
BRANCH   2   3
HETATM    3  C   UNL     1     -10.181  10.539  67.561  1.00  0.00    -0.206 C  
HETATM    4  O   UNL     1     -10.139  11.631  68.134  1.00  0.00    -0.183 OA 
BRANCH   3   5
HETATM    5  C   UNL     1      -9.686  10.492  66.144  1.00  0.00    -0.259 A  
HETATM    6  C   UNL     1      -8.318  10.236  65.944  1.00  0.00    -0.145 A  
HETATM    7  C   UNL     1      -7.780  10.242  64.659  1.00  0.00    -0.114 A  
HETATM    8  C   UNL     1      -8.589  10.507  63.558  1.00  0.00    -0.165 A  
HETATM    9 CL   UNL     1      -6.104   9.927  64.434  1.00  0.00    -0.109 Cl 
HETATM   10  C   UNL     1      -9.953  10.730  63.742  1.00  0.00    -0.411 A  
HETATM   11  C   UNL     1     -10.505  10.706  65.029  1.00  0.00    -0.278 A  
ENDBRANCH   3   5
ENDBRANCH   2   3
BRANCH   2  12
HETATM   12  N   UNL     1      -9.932   9.055  69.539  1.00  0.00    -0.186 NA 
HETATM   13  H   UNL     1      -8.922   9.193  69.572  1.00  0.00     0.000 HD 
HETATM   14  C   UNL     1     -10.675   8.652  70.752  1.00  0.00    -0.216 C  
HETATM   15  C   UNL     1     -10.959   7.142  70.767  1.00  0.00    -0.278 C  
HETATM   16  C   UNL     1     -11.974   9.440  70.967  1.00  0.00    -0.389 C  
HETATM   17  C   UNL     1      -9.745   8.937  71.955  1.00  0.00    -0.304 C  
ENDBRANCH   2  12
TORSDOF 3
ENDMDL
MODEL      221
REMARK 921   NORMALIZED FREE ENERGY PREDICTED BY IDOCK:   -3.04 KCAL/MOL
REMARK 922        TOTAL FREE ENERGY PREDICTED BY IDOCK:   -4.04 KCAL/MOL
REMARK 923 INTER-LIGAND FREE ENERGY PREDICTED BY IDOCK:   -3.34 KCAL/MOL
REMARK 924 INTRA-LIGAND FREE ENERGY PREDICTED BY IDOCK:   -0.70 KCAL/MOL
REMARK 927      BINDING AFFINITY PREDICTED BY RF-SCORE:    0.00 PKD
ROOT
HETATM    1  C   UNL     1     -11.686   6.486  70.275  1.00  0.00    -0.430 C  
HETATM    2  C   UNL     1     -10.604   7.405  69.696  1.00  0.00    -0.236 C  
ENDROOT
BRANCH   2   3
HETATM    3  C   UNL     1     -10.969   8.861  70.084  1.00  0.00    -0.227 C  
HETATM    4  O   UNL     1     -11.559   9.132  71.134  1.00  0.00    -0.277 OA 
BRANCH   3   5
HETATM    5  C   UNL     1     -10.575  10.013  69.205  1.00  0.00    -0.249 A  
HETATM    6  C   UNL     1      -9.248  10.468  69.292  1.00  0.00    -0.164 A  
HETATM    7  C   UNL     1      -8.831  11.573  68.552  1.00  0.00    -0.139 A  
HETATM    8  C   UNL     1      -9.726  12.244  67.724  1.00  0.00    -0.199 A  
HETATM    9 CL   UNL     1      -7.203  12.115  68.670  1.00  0.00    -0.106 Cl 
HETATM   10  C   UNL     1     -11.036  11.782  67.606  1.00  0.00    -0.286 A  
HETATM   11  C   UNL     1     -11.457  10.659  68.331  1.00  0.00    -0.330 A  
ENDBRANCH   3   5
ENDBRANCH   2   3
BRANCH   2  12
HETATM   12  N   UNL     1     -10.499   7.284  68.222  1.00  0.00    -0.209 NA 
HETATM   13  H   UNL     1     -11.260   7.600  67.621  1.00  0.00     0.000 HD 
HETATM   14  C   UNL     1      -9.273   6.699  67.637  1.00  0.00    -0.110 C  
HETATM   15  C   UNL     1      -9.300   5.163  67.688  1.00  0.00    -0.134 C  
HETATM   16  C   UNL     1      -7.978   7.230  68.264  1.00  0.00    -0.124 C  
HETATM   17  C   UNL     1      -9.268   7.090  66.140  1.00  0.00    -0.119 C  
ENDBRANCH   2  12
TORSDOF 3
ENDMDL
MODEL      222
REMARK 921   NORMALIZED FREE ENERGY PREDICTED BY IDOCK:   -3.03 KCAL/MOL
REMARK 922        TOTAL FREE ENERGY PREDICTED BY IDOCK:   -4.03 KCAL/MOL
REMARK 923 INTER-LIGAND FREE ENERGY PREDICTED BY IDOCK:   -3.38 KCAL/MOL
REMARK 924 INTRA-LIGAND FREE ENERGY PREDICTED BY IDOCK:   -0.66 KCAL/MOL
REMARK 927      BINDING AFFINITY PREDICTED BY RF-SCORE:    0.00 PKD
ROOT
HETATM    1  C   UNL     1      -7.681   9.066  71.267  1.00  0.00    -0.118 C  
HETATM    2  C   UNL     1      -9.045   8.486  71.658  1.00  0.00    -0.229 C  
ENDROOT
BRANCH   2   3
HETATM    3  C   UNL     1      -8.913   7.899  73.088  1.00  0.00    -0.243 C  
HETATM    4  O   UNL     1      -8.509   8.573  74.038  1.00  0.00    -0.298 OA 
BRANCH   3   5
HETATM    5  C   UNL     1      -9.319   6.483  73.377  1.00  0.00    -0.148 A  
HETATM    6  C   UNL     1      -8.293   5.533  73.528  1.00  0.00    -0.113 A  
HETATM    7  C   UNL     1      -8.599   4.190  73.735  1.00  0.00    -0.091 A  
HETATM    8  C   UNL     1      -9.925   3.770  73.787  1.00  0.00    -0.163 A  
HETATM    9 CL   UNL     1      -7.331   3.042  73.917  1.00  0.00    -0.046 Cl 
HETATM   10  C   UNL     1     -10.950   4.708  73.671  1.00  0.00    -0.392 A  
HETATM   11  C   UNL     1     -10.650   6.063  73.484  1.00  0.00    -0.284 A  
ENDBRANCH   3   5
ENDBRANCH   2   3
BRANCH   2  12
HETATM   12  N   UNL     1      -9.494   7.432  70.717  1.00  0.00    -0.167 NA 
HETATM   13  H   UNL     1      -8.933   6.592  70.573  1.00  0.00     0.000 HD 
HETATM   14  C   UNL     1     -10.768   7.616  69.989  1.00  0.00    -0.241 C  
HETATM   15  C   UNL     1     -10.595   8.532  68.767  1.00  0.00    -0.162 C  
HETATM   16  C   UNL     1     -11.915   8.122  70.875  1.00  0.00    -0.195 C  
HETATM   17  C   UNL     1     -11.171   6.225  69.443  1.00  0.00    -0.489 C  
ENDBRANCH   2  12
TORSDOF 3
ENDMDL
MODEL      223
REMARK 921   NORMALIZED FREE ENERGY PREDICTED BY IDOCK:   -3.00 KCAL/MOL
REMARK 922        TOTAL FREE ENERGY PREDICTED BY IDOCK:   -4.00 KCAL/MOL
REMARK 923 INTER-LIGAND FREE ENERGY PREDICTED BY IDOCK:   -3.41 KCAL/MOL
REMARK 924 INTRA-LIGAND FREE ENERGY PREDICTED BY IDOCK:   -0.58 KCAL/MOL
REMARK 927      BINDING AFFINITY PREDICTED BY RF-SCORE:    0.00 PKD
ROOT
HETATM    1  C   UNL     1      -8.619   9.698  69.918  1.00  0.00    -0.218 C  
HETATM    2  C   UNL     1      -9.125   8.383  69.315  1.00  0.00    -0.150 C  
ENDROOT
BRANCH   2   3
HETATM    3  C   UNL     1      -8.736   7.239  70.288  1.00  0.00    -0.147 C  
HETATM    4  O   UNL     1      -7.573   6.847  70.406  1.00  0.00    -0.084 OA 
BRANCH   3   5
HETATM    5  C   UNL     1      -9.768   6.591  71.164  1.00  0.00    -0.188 A  
HETATM    6  C   UNL     1      -9.392   5.426  71.856  1.00  0.00    -0.162 A  
HETATM    7  C   UNL     1     -10.318   4.737  72.636  1.00  0.00    -0.198 A  
HETATM    8  C   UNL     1     -11.630   5.191  72.734  1.00  0.00    -0.241 A  
HETATM    9 CL   UNL     1      -9.839   3.314  73.475  1.00  0.00    -0.148 Cl 
HETATM   10  C   UNL     1     -12.007   6.362  72.079  1.00  0.00    -0.375 A  
HETATM   11  C   UNL     1     -11.076   7.071  71.309  1.00  0.00    -0.282 A  
ENDBRANCH   3   5
ENDBRANCH   2   3
BRANCH   2  12
HETATM   12  N   UNL     1      -8.547   8.125  67.974  1.00  0.00    -0.129 NA 
HETATM   13  H   UNL     1      -7.536   8.075  67.846  1.00  0.00     0.000 HD 
HETATM   14  C   UNL     1      -9.459   7.944  66.823  1.00  0.00    -0.201 C  
HETATM   15  C   UNL     1      -9.951   9.292  66.273  1.00  0.00    -0.357 C  
HETATM   16  C   UNL     1     -10.650   7.024  67.122  1.00  0.00    -0.412 C  
HETATM   17  C   UNL     1      -8.625   7.287  65.698  1.00  0.00    -0.123 C  
ENDBRANCH   2  12
TORSDOF 3
ENDMDL
MODEL      224
REMARK 921   NORMALIZED FREE ENERGY PREDICTED BY IDOCK:   -3.00 KCAL/MOL
REMARK 922        TOTAL FREE ENERGY PREDICTED BY IDOCK:   -3.99 KCAL/MOL
REMARK 923 INTER-LIGAND FREE ENERGY PREDICTED BY IDOCK:   -3.58 KCAL/MOL
REMARK 924 INTRA-LIGAND FREE ENERGY PREDICTED BY IDOCK:   -0.41 KCAL/MOL
REMARK 927      BINDING AFFINITY PREDICTED BY RF-SCORE:    0.00 PKD
ROOT
HETATM    1  C   UNL     1     -11.213   6.134  69.182  1.00  0.00    -0.409 C  
HETATM    2  C   UNL     1     -10.894   7.084  70.342  1.00  0.00    -0.254 C  
ENDROOT
BRANCH   2   3
HETATM    3  C   UNL     1     -10.422   8.429  69.731  1.00  0.00    -0.220 C  
HETATM    4  O   UNL     1     -10.512   9.496  70.344  1.00  0.00    -0.236 OA 
BRANCH   3   5
HETATM    5  C   UNL     1      -9.790   8.475  68.369  1.00  0.00    -0.189 A  
HETATM    6  C   UNL     1      -8.490   7.956  68.241  1.00  0.00    -0.124 A  
HETATM    7  C   UNL     1      -7.820   8.024  67.022  1.00  0.00    -0.104 A  
HETATM    8  C   UNL     1      -8.427   8.614  65.917  1.00  0.00    -0.158 A  
HETATM    9 CL   UNL     1      -6.230   7.383  66.883  1.00  0.00    -0.045 Cl 
HETATM   10  C   UNL     1      -9.728   9.104  66.024  1.00  0.00    -0.358 A  
HETATM   11  C   UNL     1     -10.416   9.020  67.241  1.00  0.00    -0.343 A  
ENDBRANCH   3   5
ENDBRANCH   2   3
BRANCH   2  12
HETATM   12  N   UNL     1      -9.846   6.539  71.238  1.00  0.00    -0.181 NA 
HETATM   13  H   UNL     1      -8.898   6.387  70.894  1.00  0.00     0.000 HD 
HETATM   14  C   UNL     1     -10.197   6.218  72.639  1.00  0.00    -0.185 C  
HETATM   15  C   UNL     1     -10.897   4.855  72.748  1.00  0.00    -0.293 C  
HETATM   16  C   UNL     1     -11.034   7.304  73.327  1.00  0.00    -0.355 C  
HETATM   17  C   UNL     1      -8.861   6.091  73.410  1.00  0.00    -0.126 C  
ENDBRANCH   2  12
TORSDOF 3
ENDMDL
MODEL      225
REMARK 921   NORMALIZED FREE ENERGY PREDICTED BY IDOCK:   -2.99 KCAL/MOL
REMARK 922        TOTAL FREE ENERGY PREDICTED BY IDOCK:   -3.99 KCAL/MOL
REMARK 923 INTER-LIGAND FREE ENERGY PREDICTED BY IDOCK:   -3.39 KCAL/MOL
REMARK 924 INTRA-LIGAND FREE ENERGY PREDICTED BY IDOCK:   -0.59 KCAL/MOL
REMARK 927      BINDING AFFINITY PREDICTED BY RF-SCORE:    0.00 PKD
ROOT
HETATM    1  C   UNL     1     -10.487   8.099  67.694  1.00  0.00    -0.300 C  
HETATM    2  C   UNL     1     -10.333   7.823  69.194  1.00  0.00    -0.215 C  
ENDROOT
BRANCH   2   3
HETATM    3  C   UNL     1      -9.914   6.338  69.357  1.00  0.00    -0.159 C  
HETATM    4  O   UNL     1     -10.742   5.434  69.490  1.00  0.00    -0.295 OA 
BRANCH   3   5
HETATM    5  C   UNL     1      -8.467   5.939  69.316  1.00  0.00    -0.113 A  
HETATM    6  C   UNL     1      -7.649   6.360  70.379  1.00  0.00    -0.096 A  
HETATM    7  C   UNL     1      -6.284   6.080  70.374  1.00  0.00    -0.031 A  
HETATM    8  C   UNL     1      -5.713   5.385  69.311  1.00  0.00    -0.012 A  
HETATM    9 CL   UNL     1      -5.299   6.603  71.683  1.00  0.00    -0.027 Cl 
HETATM   10  C   UNL     1      -6.520   4.935  68.268  1.00  0.00    -0.037 A  
HETATM   11  C   UNL     1      -7.896   5.195  68.276  1.00  0.00    -0.087 A  
ENDBRANCH   3   5
ENDBRANCH   2   3
BRANCH   2  12
HETATM   12  N   UNL     1     -11.588   8.080  69.940  1.00  0.00    -0.440 NA 
HETATM   13  H   UNL     1     -12.462   7.640  69.652  1.00  0.00     0.000 HD 
HETATM   14  C   UNL     1     -11.553   8.986  71.109  1.00  0.00    -0.306 C  
HETATM   15  C   UNL     1     -11.590  10.462  70.682  1.00  0.00    -0.440 C  
HETATM   16  C   UNL     1     -10.367   8.733  72.049  1.00  0.00    -0.411 C  
HETATM   17  C   UNL     1     -12.853   8.727  71.908  1.00  0.00    -0.423 C  
ENDBRANCH   2  12
TORSDOF 3
ENDMDL
MODEL      226
REMARK 921   NORMALIZED FREE ENERGY PREDICTED BY IDOCK:   -2.99 KCAL/MOL
REMARK 922        TOTAL FREE ENERGY PREDICTED BY IDOCK:   -3.98 KCAL/MOL
REMARK 923 INTER-LIGAND FREE ENERGY PREDICTED BY IDOCK:   -3.47 KCAL/MOL
REMARK 924 INTRA-LIGAND FREE ENERGY PREDICTED BY IDOCK:   -0.51 KCAL/MOL
REMARK 927      BINDING AFFINITY PREDICTED BY RF-SCORE:    0.00 PKD
ROOT
HETATM    1  C   UNL     1     -11.623  10.102  70.939  1.00  0.00    -0.459 C  
HETATM    2  C   UNL     1     -10.329   9.464  70.421  1.00  0.00    -0.262 C  
ENDROOT
BRANCH   2   3
HETATM    3  C   UNL     1      -9.843   8.452  71.491  1.00  0.00    -0.208 C  
HETATM    4  O   UNL     1      -9.407   8.814  72.587  1.00  0.00    -0.300 OA 
BRANCH   3   5
HETATM    5  C   UNL     1      -9.928   6.973  71.245  1.00  0.00    -0.196 A  
HETATM    6  C   UNL     1      -9.977   6.131  72.371  1.00  0.00    -0.187 A  
HETATM    7  C   UNL     1      -9.991   4.747  72.216  1.00  0.00    -0.178 A  
HETATM    8  C   UNL     1      -9.951   4.179  70.946  1.00  0.00    -0.207 A  
HETATM    9 CL   UNL     1     -10.051   3.732  73.604  1.00  0.00    -0.170 Cl 
HETATM   10  C   UNL     1      -9.935   5.005  69.822  1.00  0.00    -0.319 A  
HETATM   11  C   UNL     1      -9.941   6.398  69.969  1.00  0.00    -0.200 A  
ENDBRANCH   3   5
ENDBRANCH   2   3
BRANCH   2  12
HETATM   12  N   UNL     1      -9.274  10.473  70.162  1.00  0.00    -0.155 NA 
HETATM   13  H   UNL     1      -8.740  10.874  70.934  1.00  0.00     0.000 HD 
HETATM   14  C   UNL     1      -9.007  10.890  68.769  1.00  0.00    -0.164 C  
HETATM   15  C   UNL     1     -10.024  11.936  68.287  1.00  0.00    -0.202 C  
HETATM   16  C   UNL     1      -8.938   9.720  67.779  1.00  0.00    -0.132 C  
HETATM   17  C   UNL     1      -7.626  11.588  68.773  1.00  0.00    -0.129 C  
ENDBRANCH   2  12
TORSDOF 3
ENDMDL
MODEL      227
REMARK 921   NORMALIZED FREE ENERGY PREDICTED BY IDOCK:   -2.99 KCAL/MOL
REMARK 922        TOTAL FREE ENERGY PREDICTED BY IDOCK:   -3.98 KCAL/MOL
REMARK 923 INTER-LIGAND FREE ENERGY PREDICTED BY IDOCK:   -3.58 KCAL/MOL
REMARK 924 INTRA-LIGAND FREE ENERGY PREDICTED BY IDOCK:   -0.40 KCAL/MOL
REMARK 927      BINDING AFFINITY PREDICTED BY RF-SCORE:    0.00 PKD
ROOT
HETATM    1  C   UNL     1      -8.378  13.072  67.174  1.00  0.00    -0.153 C  
HETATM    2  C   UNL     1      -9.711  12.976  66.422  1.00  0.00    -0.268 C  
ENDROOT
BRANCH   2   3
HETATM    3  C   UNL     1      -9.678  11.678  65.574  1.00  0.00    -0.232 C  
HETATM    4  O   UNL     1     -10.238  11.596  64.478  1.00  0.00    -0.260 OA 
BRANCH   3   5
HETATM    5  C   UNL     1      -8.917  10.472  66.043  1.00  0.00    -0.185 A  
HETATM    6  C   UNL     1      -7.658  10.235  65.464  1.00  0.00    -0.149 A  
HETATM    7  C   UNL     1      -6.925   9.100  65.805  1.00  0.00    -0.085 A  
HETATM    8  C   UNL     1      -7.435   8.183  66.720  1.00  0.00    -0.090 A  
HETATM    9 CL   UNL     1      -5.387   8.827  65.086  1.00  0.00    -0.038 Cl 
HETATM   10  C   UNL     1      -8.668   8.424  67.325  1.00  0.00    -0.130 A  
HETATM   11  C   UNL     1      -9.400   9.573  67.002  1.00  0.00    -0.183 A  
ENDBRANCH   3   5
ENDBRANCH   2   3
BRANCH   2  12
HETATM   12  N   UNL     1      -9.943  14.149  65.545  1.00  0.00    -0.475 NA 
HETATM   13  H   UNL     1      -9.293  14.368  64.791  1.00  0.00     0.000 HD 
HETATM   14  C   UNL     1     -11.132  14.996  65.782  1.00  0.00    -0.346 C  
HETATM   15  C   UNL     1     -10.898  15.991  66.929  1.00  0.00    -0.203 C  
HETATM   16  C   UNL     1     -12.418  14.196  66.025  1.00  0.00    -0.454 C  
HETATM   17  C   UNL     1     -11.334  15.840  64.501  1.00  0.00    -0.324 C  
ENDBRANCH   2  12
TORSDOF 3
ENDMDL
MODEL      228
REMARK 921   NORMALIZED FREE ENERGY PREDICTED BY IDOCK:   -2.98 KCAL/MOL
REMARK 922        TOTAL FREE ENERGY PREDICTED BY IDOCK:   -3.98 KCAL/MOL
REMARK 923 INTER-LIGAND FREE ENERGY PREDICTED BY IDOCK:   -4.21 KCAL/MOL
REMARK 924 INTRA-LIGAND FREE ENERGY PREDICTED BY IDOCK:    0.23 KCAL/MOL
REMARK 927      BINDING AFFINITY PREDICTED BY RF-SCORE:    0.00 PKD
ROOT
HETATM    1  C   UNL     1     -11.057  15.456  69.954  1.00  0.00    -0.304 C  
HETATM    2  C   UNL     1     -11.055  15.715  68.443  1.00  0.00    -0.326 C  
ENDROOT
BRANCH   2   3
HETATM    3  C   UNL     1     -11.090  14.337  67.731  1.00  0.00    -0.280 C  
HETATM    4  O   UNL     1     -12.025  14.001  67.000  1.00  0.00    -0.403 OA 
BRANCH   3   5
HETATM    5  C   UNL     1      -9.952  13.369  67.874  1.00  0.00    -0.236 A  
HETATM    6  C   UNL     1     -10.203  12.173  68.569  1.00  0.00    -0.214 A  
HETATM    7  C   UNL     1      -9.177  11.258  68.794  1.00  0.00    -0.126 A  
HETATM    8  C   UNL     1      -7.888  11.521  68.339  1.00  0.00    -0.136 A  
HETATM    9 CL   UNL     1      -9.502   9.800  69.647  1.00  0.00    -0.220 Cl 
HETATM   10  C   UNL     1      -7.634  12.689  67.621  1.00  0.00    -0.152 A  
HETATM   11  C   UNL     1      -8.666  13.603  67.373  1.00  0.00    -0.214 A  
ENDBRANCH   3   5
ENDBRANCH   2   3
BRANCH   2  12
HETATM   12  N   UNL     1      -9.860  16.479  68.009  1.00  0.00    -0.236 NA 
HETATM   13  H   UNL     1      -9.040  16.546  68.613  1.00  0.00     0.000 HD 
HETATM   14  C   UNL     1      -9.875  17.143  66.688  1.00  0.00    -0.289 C  
HETATM   15  C   UNL     1     -10.625  18.484  66.738  1.00  0.00    -0.395 C  
HETATM   16  C   UNL     1     -10.434  16.262  65.563  1.00  0.00    -0.383 C  
HETATM   17  C   UNL     1      -8.404  17.474  66.343  1.00  0.00    -0.297 C  
ENDBRANCH   2  12
TORSDOF 3
ENDMDL
MODEL      229
REMARK 921   NORMALIZED FREE ENERGY PREDICTED BY IDOCK:   -2.97 KCAL/MOL
REMARK 922        TOTAL FREE ENERGY PREDICTED BY IDOCK:   -3.96 KCAL/MOL
REMARK 923 INTER-LIGAND FREE ENERGY PREDICTED BY IDOCK:   -3.57 KCAL/MOL
REMARK 924 INTRA-LIGAND FREE ENERGY PREDICTED BY IDOCK:   -0.39 KCAL/MOL
REMARK 927      BINDING AFFINITY PREDICTED BY RF-SCORE:    0.00 PKD
ROOT
HETATM    1  C   UNL     1     -10.426  10.408  65.705  1.00  0.00    -0.185 C  
HETATM    2  C   UNL     1      -9.828  11.248  66.840  1.00  0.00    -0.193 C  
ENDROOT
BRANCH   2   3
HETATM    3  C   UNL     1      -8.858  10.336  67.636  1.00  0.00    -0.121 C  
HETATM    4  O   UNL     1      -7.641  10.539  67.664  1.00  0.00    -0.092 OA 
BRANCH   3   5
HETATM    5  C   UNL     1      -9.377   9.184  68.447  1.00  0.00    -0.139 A  
HETATM    6  C   UNL     1      -9.927   9.476  69.707  1.00  0.00    -0.234 A  
HETATM    7  C   UNL     1     -10.370   8.450  70.540  1.00  0.00    -0.199 A  
HETATM    8  C   UNL     1     -10.265   7.122  70.136  1.00  0.00    -0.204 A  
HETATM    9 CL   UNL     1     -11.041   8.826  72.078  1.00  0.00    -0.433 Cl 
HETATM   10  C   UNL     1      -9.750   6.823  68.875  1.00  0.00    -0.137 A  
HETATM   11  C   UNL     1      -9.323   7.850  68.025  1.00  0.00    -0.152 A  
ENDBRANCH   3   5
ENDBRANCH   2   3
BRANCH   2  12
HETATM   12  N   UNL     1     -10.871  11.790  67.743  1.00  0.00    -0.203 NA 
HETATM   13  H   UNL     1     -11.527  11.164  68.211  1.00  0.00     0.000 HD 
HETATM   14  C   UNL     1     -10.945  13.251  67.957  1.00  0.00    -0.244 C  
HETATM   15  C   UNL     1     -11.680  13.954  66.805  1.00  0.00    -0.423 C  
HETATM   16  C   UNL     1      -9.579  13.908  68.196  1.00  0.00    -0.218 C  
HETATM   17  C   UNL     1     -11.804  13.470  69.225  1.00  0.00    -0.392 C  
ENDBRANCH   2  12
TORSDOF 3
ENDMDL
MODEL      230
REMARK 921   NORMALIZED FREE ENERGY PREDICTED BY IDOCK:   -2.95 KCAL/MOL
REMARK 922        TOTAL FREE ENERGY PREDICTED BY IDOCK:   -3.94 KCAL/MOL
REMARK 923 INTER-LIGAND FREE ENERGY PREDICTED BY IDOCK:   -3.54 KCAL/MOL
REMARK 924 INTRA-LIGAND FREE ENERGY PREDICTED BY IDOCK:   -0.40 KCAL/MOL
REMARK 927      BINDING AFFINITY PREDICTED BY RF-SCORE:    0.00 PKD
ROOT
HETATM    1  C   UNL     1     -11.256   5.712  72.373  1.00  0.00    -0.336 C  
HETATM    2  C   UNL     1     -10.752   6.137  70.989  1.00  0.00    -0.260 C  
ENDROOT
BRANCH   2   3
HETATM    3  C   UNL     1     -10.142   4.884  70.307  1.00  0.00    -0.252 C  
HETATM    4  O   UNL     1      -9.762   3.905  70.954  1.00  0.00    -0.177 OA 
BRANCH   3   5
HETATM    5  C   UNL     1     -10.031   4.799  68.812  1.00  0.00    -0.182 A  
HETATM    6  C   UNL     1      -9.128   3.862  68.282  1.00  0.00    -0.186 A  
HETATM    7  C   UNL     1      -8.928   3.774  66.906  1.00  0.00    -0.142 A  
HETATM    8  C   UNL     1      -9.615   4.620  66.040  1.00  0.00    -0.189 A  
HETATM    9 CL   UNL     1      -7.818   2.621  66.275  1.00  0.00    -0.079 Cl 
HETATM   10  C   UNL     1     -10.537   5.531  66.553  1.00  0.00    -0.343 A  
HETATM   11  C   UNL     1     -10.759   5.611  67.933  1.00  0.00    -0.241 A  
ENDBRANCH   3   5
ENDBRANCH   2   3
BRANCH   2  12
HETATM   12  N   UNL     1      -9.736   7.214  71.072  1.00  0.00    -0.166 NA 
HETATM   13  H   UNL     1      -8.818   7.030  71.477  1.00  0.00     0.000 HD 
HETATM   14  C   UNL     1     -10.073   8.558  70.557  1.00  0.00    -0.192 C  
HETATM   15  C   UNL     1     -10.902   9.361  71.572  1.00  0.00    -0.398 C  
HETATM   16  C   UNL     1     -10.778   8.536  69.194  1.00  0.00    -0.128 C  
HETATM   17  C   UNL     1      -8.734   9.315  70.385  1.00  0.00    -0.263 C  
ENDBRANCH   2  12
TORSDOF 3
ENDMDL
MODEL      231
REMARK 921   NORMALIZED FREE ENERGY PREDICTED BY IDOCK:   -2.93 KCAL/MOL
REMARK 922        TOTAL FREE ENERGY PREDICTED BY IDOCK:   -3.91 KCAL/MOL
REMARK 923 INTER-LIGAND FREE ENERGY PREDICTED BY IDOCK:   -3.38 KCAL/MOL
REMARK 924 INTRA-LIGAND FREE ENERGY PREDICTED BY IDOCK:   -0.52 KCAL/MOL
REMARK 927      BINDING AFFINITY PREDICTED BY RF-SCORE:    0.00 PKD
ROOT
HETATM    1  C   UNL     1     -10.740  11.180  64.058  1.00  0.00    -0.409 C  
HETATM    2  C   UNL     1     -10.258  11.741  65.401  1.00  0.00    -0.261 C  
ENDROOT
BRANCH   2   3
HETATM    3  C   UNL     1      -9.898  10.537  66.311  1.00  0.00    -0.217 C  
HETATM    4  O   UNL     1     -10.755   9.905  66.932  1.00  0.00    -0.203 OA 
BRANCH   3   5
HETATM    5  C   UNL     1      -8.478  10.066  66.434  1.00  0.00    -0.132 A  
HETATM    6  C   UNL     1      -8.127   9.368  67.604  1.00  0.00    -0.106 A  
HETATM    7  C   UNL     1      -6.812   8.958  67.813  1.00  0.00    -0.070 A  
HETATM    8  C   UNL     1      -5.828   9.239  66.870  1.00  0.00    -0.051 A  
HETATM    9 CL   UNL     1      -6.401   8.105  69.250  1.00  0.00    -0.038 Cl 
HETATM   10  C   UNL     1      -6.171   9.902  65.692  1.00  0.00    -0.078 A  
HETATM   11  C   UNL     1      -7.495  10.300  65.465  1.00  0.00    -0.149 A  
ENDBRANCH   3   5
ENDBRANCH   2   3
BRANCH   2  12
HETATM   12  N   UNL     1     -11.289  12.581  66.057  1.00  0.00    -0.325 NA 
HETATM   13  H   UNL     1     -12.188  12.182  66.326  1.00  0.00     0.000 HD 
HETATM   14  C   UNL     1     -10.993  14.007  66.316  1.00  0.00    -0.300 C  
HETATM   15  C   UNL     1     -11.199  14.864  65.057  1.00  0.00    -0.408 C  
HETATM   16  C   UNL     1      -9.596  14.249  66.902  1.00  0.00    -0.268 C  
HETATM   17  C   UNL     1     -12.033  14.493  67.354  1.00  0.00    -0.367 C  
ENDBRANCH   2  12
TORSDOF 3
ENDMDL
MODEL      232
REMARK 921   NORMALIZED FREE ENERGY PREDICTED BY IDOCK:   -2.92 KCAL/MOL
REMARK 922        TOTAL FREE ENERGY PREDICTED BY IDOCK:   -3.90 KCAL/MOL
REMARK 923 INTER-LIGAND FREE ENERGY PREDICTED BY IDOCK:   -3.39 KCAL/MOL
REMARK 924 INTRA-LIGAND FREE ENERGY PREDICTED BY IDOCK:   -0.51 KCAL/MOL
REMARK 927      BINDING AFFINITY PREDICTED BY RF-SCORE:    0.00 PKD
ROOT
HETATM    1  C   UNL     1      -9.925   8.725  66.431  1.00  0.00    -0.346 C  
HETATM    2  C   UNL     1      -9.440   9.428  67.705  1.00  0.00    -0.132 C  
ENDROOT
BRANCH   2   3
HETATM    3  C   UNL     1      -8.542  10.617  67.272  1.00  0.00    -0.126 C  
HETATM    4  O   UNL     1      -7.374  10.458  66.909  1.00  0.00    -0.100 OA 
BRANCH   3   5
HETATM    5  C   UNL     1      -9.085  12.016  67.239  1.00  0.00    -0.178 A  
HETATM    6  C   UNL     1      -9.789  12.410  66.088  1.00  0.00    -0.263 A  
HETATM    7  C   UNL     1     -10.265  13.714  65.963  1.00  0.00    -0.307 A  
HETATM    8  C   UNL     1     -10.041  14.645  66.974  1.00  0.00    -0.249 A  
HETATM    9 CL   UNL     1     -11.125  14.178  64.548  1.00  0.00    -0.366 Cl 
HETATM   10  C   UNL     1      -9.371  14.256  68.133  1.00  0.00    -0.206 A  
HETATM   11  C   UNL     1      -8.908  12.942  68.275  1.00  0.00    -0.168 A  
ENDBRANCH   3   5
ENDBRANCH   2   3
BRANCH   2  12
HETATM   12  N   UNL     1      -8.679   8.514  68.590  1.00  0.00    -0.138 NA 
HETATM   13  H   UNL     1      -7.758   8.172  68.314  1.00  0.00     0.000 HD 
HETATM   14  C   UNL     1      -9.274   8.107  69.881  1.00  0.00    -0.151 C  
HETATM   15  C   UNL     1     -10.290   6.968  69.701  1.00  0.00    -0.222 C  
HETATM   16  C   UNL     1      -9.908   9.267  70.660  1.00  0.00    -0.332 C  
HETATM   17  C   UNL     1      -8.120   7.535  70.739  1.00  0.00    -0.108 C  
ENDBRANCH   2  12
TORSDOF 3
ENDMDL
MODEL      233
REMARK 921   NORMALIZED FREE ENERGY PREDICTED BY IDOCK:   -2.91 KCAL/MOL
REMARK 922        TOTAL FREE ENERGY PREDICTED BY IDOCK:   -3.89 KCAL/MOL
REMARK 923 INTER-LIGAND FREE ENERGY PREDICTED BY IDOCK:   -3.41 KCAL/MOL
REMARK 924 INTRA-LIGAND FREE ENERGY PREDICTED BY IDOCK:   -0.48 KCAL/MOL
REMARK 927      BINDING AFFINITY PREDICTED BY RF-SCORE:    0.00 PKD
ROOT
HETATM    1  C   UNL     1     -11.551  14.238  68.756  1.00  0.00    -0.357 C  
HETATM    2  C   UNL     1     -10.407  14.960  68.035  1.00  0.00    -0.244 C  
ENDROOT
BRANCH   2   3
HETATM    3  C   UNL     1      -9.257  13.938  67.838  1.00  0.00    -0.198 C  
HETATM    4  O   UNL     1      -8.165  14.062  68.399  1.00  0.00    -0.141 OA 
BRANCH   3   5
HETATM    5  C   UNL     1      -9.449  12.721  66.979  1.00  0.00    -0.233 A  
HETATM    6  C   UNL     1      -8.844  11.526  67.406  1.00  0.00    -0.157 A  
HETATM    7  C   UNL     1      -8.928  10.375  66.626  1.00  0.00    -0.141 A  
HETATM    8  C   UNL     1      -9.606  10.396  65.410  1.00  0.00    -0.303 A  
HETATM    9 CL   UNL     1      -8.182   8.921  67.164  1.00  0.00    -0.103 Cl 
HETATM   10  C   UNL     1     -10.236  11.568  64.992  1.00  0.00    -0.328 A  
HETATM   11  C   UNL     1     -10.174  12.723  65.781  1.00  0.00    -0.302 A  
ENDBRANCH   3   5
ENDBRANCH   2   3
BRANCH   2  12
HETATM   12  N   UNL     1      -9.917  16.133  68.799  1.00  0.00    -0.221 NA 
HETATM   13  H   UNL     1      -9.728  16.057  69.799  1.00  0.00     0.000 HD 
HETATM   14  C   UNL     1      -9.706  17.413  68.090  1.00  0.00    -0.291 C  
HETATM   15  C   UNL     1     -11.025  18.178  67.901  1.00  0.00    -0.084 C  
HETATM   16  C   UNL     1      -8.982  17.260  66.746  1.00  0.00    -0.269 C  
HETATM   17  C   UNL     1      -8.818  18.286  69.009  1.00  0.00    -0.036 C  
ENDBRANCH   2  12
TORSDOF 3
ENDMDL
MODEL      234
REMARK 921   NORMALIZED FREE ENERGY PREDICTED BY IDOCK:   -2.90 KCAL/MOL
REMARK 922        TOTAL FREE ENERGY PREDICTED BY IDOCK:   -3.88 KCAL/MOL
REMARK 923 INTER-LIGAND FREE ENERGY PREDICTED BY IDOCK:   -3.62 KCAL/MOL
REMARK 924 INTRA-LIGAND FREE ENERGY PREDICTED BY IDOCK:   -0.26 KCAL/MOL
REMARK 927      BINDING AFFINITY PREDICTED BY RF-SCORE:    0.00 PKD
ROOT
HETATM    1  C   UNL     1      -9.324   9.504  69.996  1.00  0.00    -0.265 C  
HETATM    2  C   UNL     1     -10.003   9.203  68.655  1.00  0.00    -0.170 C  
ENDROOT
BRANCH   2   3
HETATM    3  C   UNL     1     -10.527   7.744  68.712  1.00  0.00    -0.181 C  
HETATM    4  O   UNL     1     -10.661   7.056  67.697  1.00  0.00    -0.212 OA 
BRANCH   3   5
HETATM    5  C   UNL     1     -10.854   7.096  70.026  1.00  0.00    -0.276 A  
HETATM    6  C   UNL     1     -10.143   5.932  70.368  1.00  0.00    -0.259 A  
HETATM    7  C   UNL     1     -10.440   5.243  71.542  1.00  0.00    -0.210 A  
HETATM    8  C   UNL     1     -11.449   5.695  72.387  1.00  0.00    -0.309 A  
HETATM    9 CL   UNL     1      -9.559   3.822  71.945  1.00  0.00    -0.207 Cl 
HETATM   10  C   UNL     1     -12.139   6.865  72.074  1.00  0.00    -0.331 A  
HETATM   11  C   UNL     1     -11.833   7.574  70.906  1.00  0.00    -0.293 A  
ENDBRANCH   3   5
ENDBRANCH   2   3
BRANCH   2  12
HETATM   12  N   UNL     1      -9.074   9.364  67.511  1.00  0.00    -0.124 NA 
HETATM   13  H   UNL     1      -8.406   8.629  67.278  1.00  0.00     0.000 HD 
HETATM   14  C   UNL     1      -9.131  10.606  66.711  1.00  0.00    -0.152 C  
HETATM   15  C   UNL     1      -8.372  11.754  67.395  1.00  0.00    -0.159 C  
HETATM   16  C   UNL     1     -10.558  11.047  66.359  1.00  0.00    -0.308 C  
HETATM   17  C   UNL     1      -8.387  10.314  65.386  1.00  0.00    -0.164 C  
ENDBRANCH   2  12
TORSDOF 3
ENDMDL
MODEL      235
REMARK 921   NORMALIZED FREE ENERGY PREDICTED BY IDOCK:   -2.84 KCAL/MOL
REMARK 922        TOTAL FREE ENERGY PREDICTED BY IDOCK:   -3.81 KCAL/MOL
REMARK 923 INTER-LIGAND FREE ENERGY PREDICTED BY IDOCK:   -3.16 KCAL/MOL
REMARK 924 INTRA-LIGAND FREE ENERGY PREDICTED BY IDOCK:   -0.65 KCAL/MOL
REMARK 927      BINDING AFFINITY PREDICTED BY RF-SCORE:    0.00 PKD
ROOT
HETATM    1  C   UNL     1     -10.682   7.366  67.805  1.00  0.00    -0.249 C  
HETATM    2  C   UNL     1     -10.487   6.199  68.780  1.00  0.00    -0.243 C  
ENDROOT
BRANCH   2   3
HETATM    3  C   UNL     1     -11.177   6.583  70.115  1.00  0.00    -0.377 C  
HETATM    4  O   UNL     1     -12.402   6.697  70.212  1.00  0.00    -0.227 OA 
BRANCH   3   5
HETATM    5  C   UNL     1     -10.372   6.790  71.365  1.00  0.00    -0.223 A  
HETATM    6  C   UNL     1     -10.153   5.671  72.187  1.00  0.00    -0.227 A  
HETATM    7  C   UNL     1      -9.469   5.805  73.394  1.00  0.00    -0.138 A  
HETATM    8  C   UNL     1      -8.999   7.050  73.803  1.00  0.00    -0.207 A  
HETATM    9 CL   UNL     1      -9.211   4.424  74.387  1.00  0.00    -0.112 Cl 
HETATM   10  C   UNL     1      -9.182   8.160  72.980  1.00  0.00    -0.343 A  
HETATM   11  C   UNL     1      -9.851   8.030  71.757  1.00  0.00    -0.240 A  
ENDBRANCH   3   5
ENDBRANCH   2   3
BRANCH   2  12
HETATM   12  N   UNL     1      -9.054   5.903  69.018  1.00  0.00    -0.121 NA 
HETATM   13  H   UNL     1      -8.431   6.621  69.387  1.00  0.00     0.000 HD 
HETATM   14  C   UNL     1      -8.541   4.550  68.710  1.00  0.00    -0.085 C  
HETATM   15  C   UNL     1      -8.253   4.383  67.210  1.00  0.00    -0.100 C  
HETATM   16  C   UNL     1      -9.451   3.420  69.206  1.00  0.00    -0.212 C  
HETATM   17  C   UNL     1      -7.181   4.417  69.437  1.00  0.00    -0.051 C  
ENDBRANCH   2  12
TORSDOF 3
ENDMDL
MODEL      236
REMARK 921   NORMALIZED FREE ENERGY PREDICTED BY IDOCK:   -2.84 KCAL/MOL
REMARK 922        TOTAL FREE ENERGY PREDICTED BY IDOCK:   -3.80 KCAL/MOL
REMARK 923 INTER-LIGAND FREE ENERGY PREDICTED BY IDOCK:   -3.40 KCAL/MOL
REMARK 924 INTRA-LIGAND FREE ENERGY PREDICTED BY IDOCK:   -0.40 KCAL/MOL
REMARK 927      BINDING AFFINITY PREDICTED BY RF-SCORE:    0.00 PKD
ROOT
HETATM    1  C   UNL     1      -7.011   7.481  67.913  1.00  0.00    -0.076 C  
HETATM    2  C   UNL     1      -8.508   7.394  68.234  1.00  0.00    -0.125 C  
ENDROOT
BRANCH   2   3
HETATM    3  C   UNL     1      -9.265   7.215  66.893  1.00  0.00    -0.148 C  
HETATM    4  O   UNL     1     -10.058   6.288  66.706  1.00  0.00    -0.166 OA 
BRANCH   3   5
HETATM    5  C   UNL     1      -9.091   8.201  65.774  1.00  0.00    -0.139 A  
HETATM    6  C   UNL     1      -9.901   9.350  65.792  1.00  0.00    -0.345 A  
HETATM    7  C   UNL     1      -9.837  10.275  64.752  1.00  0.00    -0.334 A  
HETATM    8  C   UNL     1      -8.976  10.068  63.678  1.00  0.00    -0.280 A  
HETATM    9 CL   UNL     1     -10.835  11.676  64.791  1.00  0.00    -0.362 Cl 
HETATM   10  C   UNL     1      -8.146   8.948  63.665  1.00  0.00    -0.167 A  
HETATM   11  C   UNL     1      -8.189   8.025  64.717  1.00  0.00    -0.124 A  
ENDBRANCH   3   5
ENDBRANCH   2   3
BRANCH   2  12
HETATM   12  N   UNL     1      -8.999   8.605  68.936  1.00  0.00    -0.141 NA 
HETATM   13  H   UNL     1      -8.837   9.533  68.544  1.00  0.00     0.000 HD 
HETATM   14  C   UNL     1      -9.728   8.446  70.213  1.00  0.00    -0.172 C  
HETATM   15  C   UNL     1      -8.764   8.242  71.392  1.00  0.00    -0.197 C  
HETATM   16  C   UNL     1     -10.780   7.330  70.186  1.00  0.00    -0.260 C  
HETATM   17  C   UNL     1     -10.463   9.783  70.471  1.00  0.00    -0.366 C  
ENDBRANCH   2  12
TORSDOF 3
ENDMDL
MODEL      237
REMARK 921   NORMALIZED FREE ENERGY PREDICTED BY IDOCK:   -2.83 KCAL/MOL
REMARK 922        TOTAL FREE ENERGY PREDICTED BY IDOCK:   -3.79 KCAL/MOL
REMARK 923 INTER-LIGAND FREE ENERGY PREDICTED BY IDOCK:   -3.36 KCAL/MOL
REMARK 924 INTRA-LIGAND FREE ENERGY PREDICTED BY IDOCK:   -0.43 KCAL/MOL
REMARK 927      BINDING AFFINITY PREDICTED BY RF-SCORE:    0.00 PKD
ROOT
HETATM    1  C   UNL     1      -7.538  10.207  69.987  1.00  0.00    -0.164 C  
HETATM    2  C   UNL     1      -8.753  10.182  69.052  1.00  0.00    -0.161 C  
ENDROOT
BRANCH   2   3
HETATM    3  C   UNL     1      -9.986   9.762  69.895  1.00  0.00    -0.245 C  
HETATM    4  O   UNL     1     -10.815  10.581  70.297  1.00  0.00    -0.279 OA 
BRANCH   3   5
HETATM    5  C   UNL     1     -10.238   8.318  70.221  1.00  0.00    -0.199 A  
HETATM    6  C   UNL     1      -9.755   7.838  71.451  1.00  0.00    -0.194 A  
HETATM    7  C   UNL     1      -9.899   6.494  71.789  1.00  0.00    -0.165 A  
HETATM    8  C   UNL     1     -10.516   5.608  70.909  1.00  0.00    -0.323 A  
HETATM    9 CL   UNL     1      -9.302   5.923  73.298  1.00  0.00    -0.136 Cl 
HETATM   10  C   UNL     1     -11.027   6.080  69.701  1.00  0.00    -0.470 A  
HETATM   11  C   UNL     1     -10.905   7.434  69.363  1.00  0.00    -0.184 A  
ENDBRANCH   3   5
ENDBRANCH   2   3
BRANCH   2  12
HETATM   12  N   UNL     1      -8.568   9.240  67.922  1.00  0.00    -0.121 NA 
HETATM   13  H   UNL     1      -8.422   8.245  68.094  1.00  0.00     0.000 HD 
HETATM   14  C   UNL     1      -8.598   9.765  66.539  1.00  0.00    -0.127 C  
HETATM   15  C   UNL     1      -7.252  10.392  66.143  1.00  0.00    -0.131 C  
HETATM   16  C   UNL     1      -9.743  10.755  66.282  1.00  0.00    -0.248 C  
HETATM   17  C   UNL     1      -8.808   8.547  65.608  1.00  0.00    -0.214 C  
ENDBRANCH   2  12
TORSDOF 3
ENDMDL
MODEL      238
REMARK 921   NORMALIZED FREE ENERGY PREDICTED BY IDOCK:   -2.82 KCAL/MOL
REMARK 922        TOTAL FREE ENERGY PREDICTED BY IDOCK:   -3.78 KCAL/MOL
REMARK 923 INTER-LIGAND FREE ENERGY PREDICTED BY IDOCK:   -3.47 KCAL/MOL
REMARK 924 INTRA-LIGAND FREE ENERGY PREDICTED BY IDOCK:   -0.31 KCAL/MOL
REMARK 927      BINDING AFFINITY PREDICTED BY RF-SCORE:    0.00 PKD
ROOT
HETATM    1  C   UNL     1      -7.678  13.242  68.379  1.00  0.00    -0.138 C  
HETATM    2  C   UNL     1      -9.134  13.022  67.953  1.00  0.00    -0.207 C  
ENDROOT
BRANCH   2   3
HETATM    3  C   UNL     1      -9.274  11.543  67.508  1.00  0.00    -0.166 C  
HETATM    4  O   UNL     1     -10.093  10.778  68.024  1.00  0.00    -0.169 OA 
BRANCH   3   5
HETATM    5  C   UNL     1      -8.436  10.993  66.390  1.00  0.00    -0.164 A  
HETATM    6  C   UNL     1      -9.073  10.758  65.159  1.00  0.00    -0.225 A  
HETATM    7  C   UNL     1      -8.372  10.189  64.098  1.00  0.00    -0.168 A  
HETATM    8  C   UNL     1      -7.032   9.841  64.247  1.00  0.00    -0.123 A  
HETATM    9 CL   UNL     1      -9.167   9.909  62.599  1.00  0.00    -0.297 Cl 
HETATM   10  C   UNL     1      -6.382  10.099  65.453  1.00  0.00    -0.116 A  
HETATM   11  C   UNL     1      -7.075  10.689  66.517  1.00  0.00    -0.133 A  
ENDBRANCH   3   5
ENDBRANCH   2   3
BRANCH   2  12
HETATM   12  N   UNL     1      -9.534  13.924  66.845  1.00  0.00    -0.249 NA 
HETATM   13  H   UNL     1      -9.013  13.929  65.968  1.00  0.00     0.000 HD 
HETATM   14  C   UNL     1     -10.699  14.815  67.032  1.00  0.00    -0.300 C  
HETATM   15  C   UNL     1     -10.324  16.076  67.827  1.00  0.00    -0.279 C  
HETATM   16  C   UNL     1     -11.908  14.122  67.673  1.00  0.00    -0.427 C  
HETATM   17  C   UNL     1     -11.121  15.293  65.622  1.00  0.00    -0.308 C  
ENDBRANCH   2  12
TORSDOF 3
ENDMDL
MODEL      239
REMARK 921   NORMALIZED FREE ENERGY PREDICTED BY IDOCK:   -2.81 KCAL/MOL
REMARK 922        TOTAL FREE ENERGY PREDICTED BY IDOCK:   -3.77 KCAL/MOL
REMARK 923 INTER-LIGAND FREE ENERGY PREDICTED BY IDOCK:   -3.81 KCAL/MOL
REMARK 924 INTRA-LIGAND FREE ENERGY PREDICTED BY IDOCK:    0.04 KCAL/MOL
REMARK 927      BINDING AFFINITY PREDICTED BY RF-SCORE:    0.00 PKD
ROOT
HETATM    1  C   UNL     1      -7.956   7.715  67.706  1.00  0.00    -0.121 C  
HETATM    2  C   UNL     1      -9.326   7.503  68.360  1.00  0.00    -0.141 C  
ENDROOT
BRANCH   2   3
HETATM    3  C   UNL     1     -10.408   7.905  67.323  1.00  0.00    -0.307 C  
HETATM    4  O   UNL     1     -11.124   7.071  66.765  1.00  0.00    -0.289 OA 
BRANCH   3   5
HETATM    5  C   UNL     1     -10.654   9.349  66.990  1.00  0.00    -0.272 A  
HETATM    6  C   UNL     1     -10.239   9.801  65.726  1.00  0.00    -0.222 A  
HETATM    7  C   UNL     1     -10.379  11.142  65.375  1.00  0.00    -0.271 A  
HETATM    8  C   UNL     1     -10.924  12.052  66.276  1.00  0.00    -0.340 A  
HETATM    9 CL   UNL     1      -9.866  11.678  63.823  1.00  0.00    -0.328 Cl 
HETATM   10  C   UNL     1     -11.367  11.609  67.521  1.00  0.00    -0.364 A  
HETATM   11  C   UNL     1     -11.250  10.258  67.873  1.00  0.00    -0.290 A  
ENDBRANCH   3   5
ENDBRANCH   2   3
BRANCH   2  12
HETATM   12  N   UNL     1      -9.486   8.306  69.596  1.00  0.00    -0.162 NA 
HETATM   13  H   UNL     1     -10.086   9.130  69.605  1.00  0.00     0.000 HD 
HETATM   14  C   UNL     1      -8.760   7.893  70.817  1.00  0.00    -0.134 C  
HETATM   15  C   UNL     1      -7.296   8.359  70.790  1.00  0.00    -0.060 C  
HETATM   16  C   UNL     1      -8.834   6.386  71.097  1.00  0.00    -0.138 C  
HETATM   17  C   UNL     1      -9.434   8.627  72.001  1.00  0.00    -0.370 C  
ENDBRANCH   2  12
TORSDOF 3
ENDMDL
MODEL      240
REMARK 921   NORMALIZED FREE ENERGY PREDICTED BY IDOCK:   -2.80 KCAL/MOL
REMARK 922        TOTAL FREE ENERGY PREDICTED BY IDOCK:   -3.75 KCAL/MOL
REMARK 923 INTER-LIGAND FREE ENERGY PREDICTED BY IDOCK:   -4.81 KCAL/MOL
REMARK 924 INTRA-LIGAND FREE ENERGY PREDICTED BY IDOCK:    1.06 KCAL/MOL
REMARK 927      BINDING AFFINITY PREDICTED BY RF-SCORE:    0.00 PKD
ROOT
HETATM    1  C   UNL     1     -10.149  15.152  68.081  1.00  0.00    -0.222 C  
HETATM    2  C   UNL     1      -9.223  15.294  66.867  1.00  0.00    -0.234 C  
ENDROOT
BRANCH   2   3
HETATM    3  C   UNL     1     -10.117  15.525  65.620  1.00  0.00    -0.376 C  
HETATM    4  O   UNL     1     -10.338  16.652  65.171  1.00  0.00    -0.630 OA 
BRANCH   3   5
HETATM    5  C   UNL     1     -10.718  14.365  64.880  1.00  0.00    -0.444 A  
HETATM    6  C   UNL     1      -9.975  13.172  64.834  1.00  0.00    -0.152 A  
HETATM    7  C   UNL     1     -10.443  12.076  64.111  1.00  0.00    -0.353 A  
HETATM    8  C   UNL     1     -11.648  12.152  63.419  1.00  0.00    -0.508 A  
HETATM    9 CL   UNL     1      -9.521  10.624  64.067  1.00  0.00    -0.296 Cl 
HETATM   10  C   UNL     1     -12.407  13.320  63.483  1.00  0.00    -0.442 A  
HETATM   11  C   UNL     1     -11.954  14.418  64.225  1.00  0.00    -0.433 A  
ENDBRANCH   3   5
ENDBRANCH   2   3
BRANCH   2  12
HETATM   12  N   UNL     1      -8.375  14.094  66.667  1.00  0.00    -0.381 NA 
HETATM   13  H   UNL     1      -8.289  13.669  65.744  1.00  0.00     0.000 HD 
HETATM   14  C   UNL     1      -7.657  13.524  67.827  1.00  0.00    -0.162 C  
HETATM   15  C   UNL     1      -8.578  12.641  68.685  1.00  0.00     0.046 C  
HETATM   16  C   UNL     1      -6.965  14.578  68.702  1.00  0.00    -0.103 C  
HETATM   17  C   UNL     1      -6.563  12.592  67.255  1.00  0.00    -0.125 C  
ENDBRANCH   2  12
TORSDOF 3
ENDMDL
MODEL      241
REMARK 921   NORMALIZED FREE ENERGY PREDICTED BY IDOCK:   -2.80 KCAL/MOL
REMARK 922        TOTAL FREE ENERGY PREDICTED BY IDOCK:   -3.75 KCAL/MOL
REMARK 923 INTER-LIGAND FREE ENERGY PREDICTED BY IDOCK:   -3.23 KCAL/MOL
REMARK 924 INTRA-LIGAND FREE ENERGY PREDICTED BY IDOCK:   -0.52 KCAL/MOL
REMARK 927      BINDING AFFINITY PREDICTED BY RF-SCORE:    0.00 PKD
ROOT
HETATM    1  C   UNL     1      -9.233   7.331  66.770  1.00  0.00    -0.187 C  
HETATM    2  C   UNL     1      -9.137   6.390  67.976  1.00  0.00    -0.113 C  
ENDROOT
BRANCH   2   3
HETATM    3  C   UNL     1      -8.917   7.265  69.238  1.00  0.00    -0.135 C  
HETATM    4  O   UNL     1      -7.798   7.656  69.578  1.00  0.00    -0.110 OA 
BRANCH   3   5
HETATM    5  C   UNL     1     -10.080   7.708  70.077  1.00  0.00    -0.204 A  
HETATM    6  C   UNL     1     -10.599   8.992  69.838  1.00  0.00    -0.240 A  
HETATM    7  C   UNL     1     -11.637   9.492  70.623  1.00  0.00    -0.283 A  
HETATM    8  C   UNL     1     -12.167   8.728  71.659  1.00  0.00    -0.399 A  
HETATM    9 CL   UNL     1     -12.259  11.066  70.315  1.00  0.00    -0.420 Cl 
HETATM   10  C   UNL     1     -11.681   7.441  71.884  1.00  0.00    -0.323 A  
HETATM   11  C   UNL     1     -10.653   6.924  71.086  1.00  0.00    -0.246 A  
ENDBRANCH   3   5
ENDBRANCH   2   3
BRANCH   2  12
HETATM   12  N   UNL     1      -8.028   5.415  67.836  1.00  0.00    -0.096 NA 
HETATM   13  H   UNL     1      -7.057   5.728  67.857  1.00  0.00     0.000 HD 
HETATM   14  C   UNL     1      -8.350   3.982  67.665  1.00  0.00    -0.094 C  
HETATM   15  C   UNL     1      -8.724   3.656  66.210  1.00  0.00    -0.120 C  
HETATM   16  C   UNL     1      -9.441   3.479  68.620  1.00  0.00    -0.209 C  
HETATM   17  C   UNL     1      -7.053   3.197  67.973  1.00  0.00    -0.050 C  
ENDBRANCH   2  12
TORSDOF 3
ENDMDL
MODEL      242
REMARK 921   NORMALIZED FREE ENERGY PREDICTED BY IDOCK:   -2.78 KCAL/MOL
REMARK 922        TOTAL FREE ENERGY PREDICTED BY IDOCK:   -3.73 KCAL/MOL
REMARK 923 INTER-LIGAND FREE ENERGY PREDICTED BY IDOCK:   -5.20 KCAL/MOL
REMARK 924 INTRA-LIGAND FREE ENERGY PREDICTED BY IDOCK:    1.47 KCAL/MOL
REMARK 927      BINDING AFFINITY PREDICTED BY RF-SCORE:    0.00 PKD
ROOT
HETATM    1  C   UNL     1      -8.708  13.386  67.518  1.00  0.00    -0.205 C  
HETATM    2  C   UNL     1      -9.100  14.478  66.515  1.00  0.00    -0.219 C  
ENDROOT
BRANCH   2   3
HETATM    3  C   UNL     1     -10.174  15.371  67.190  1.00  0.00    -0.251 C  
HETATM    4  O   UNL     1     -11.250  14.917  67.587  1.00  0.00    -0.301 OA 
BRANCH   3   5
HETATM    5  C   UNL     1      -9.920  16.832  67.427  1.00  0.00    -0.267 A  
HETATM    6  C   UNL     1     -10.504  17.744  66.531  1.00  0.00    -0.297 A  
HETATM    7  C   UNL     1     -10.259  19.110  66.653  1.00  0.00    -0.411 A  
HETATM    8  C   UNL     1      -9.425  19.588  67.660  1.00  0.00    -0.416 A  
HETATM    9 CL   UNL     1     -10.982  20.211  65.547  1.00  0.00    -0.201 Cl 
HETATM   10  C   UNL     1      -8.866  18.695  68.574  1.00  0.00    -0.361 A  
HETATM   11  C   UNL     1      -9.125  17.323  68.470  1.00  0.00    -0.269 A  
ENDBRANCH   3   5
ENDBRANCH   2   3
BRANCH   2  12
HETATM   12  N   UNL     1      -9.634  13.911  65.253  1.00  0.00    -0.546 NA 
HETATM   13  H   UNL     1      -9.593  14.448  64.386  1.00  0.00     0.000 HD 
HETATM   14  C   UNL     1     -10.226  12.556  65.270  1.00  0.00    -0.282 C  
HETATM   15  C   UNL     1     -11.673  12.577  65.787  1.00  0.00    -0.478 C  
HETATM   16  C   UNL     1      -9.395  11.532  66.054  1.00  0.00    -0.239 C  
HETATM   17  C   UNL     1     -10.291  12.084  63.798  1.00  0.00    -0.457 C  
ENDBRANCH   2  12
TORSDOF 3
ENDMDL
MODEL      243
REMARK 921   NORMALIZED FREE ENERGY PREDICTED BY IDOCK:   -2.77 KCAL/MOL
REMARK 922        TOTAL FREE ENERGY PREDICTED BY IDOCK:   -3.72 KCAL/MOL
REMARK 923 INTER-LIGAND FREE ENERGY PREDICTED BY IDOCK:   -3.28 KCAL/MOL
REMARK 924 INTRA-LIGAND FREE ENERGY PREDICTED BY IDOCK:   -0.44 KCAL/MOL
REMARK 927      BINDING AFFINITY PREDICTED BY RF-SCORE:    0.00 PKD
ROOT
HETATM    1  C   UNL     1      -7.108  17.501  68.822  1.00  0.00    -0.248 C  
HETATM    2  C   UNL     1      -8.024  16.512  68.091  1.00  0.00    -0.163 C  
ENDROOT
BRANCH   2   3
HETATM    3  C   UNL     1      -7.158  15.297  67.665  1.00  0.00    -0.182 C  
HETATM    4  O   UNL     1      -5.945  15.395  67.464  1.00  0.00    -0.258 OA 
BRANCH   3   5
HETATM    5  C   UNL     1      -7.766  13.932  67.524  1.00  0.00    -0.192 A  
HETATM    6  C   UNL     1      -6.981  12.830  67.905  1.00  0.00    -0.116 A  
HETATM    7  C   UNL     1      -7.458  11.532  67.741  1.00  0.00    -0.101 A  
HETATM    8  C   UNL     1      -8.717  11.309  67.189  1.00  0.00    -0.151 A  
HETATM    9 CL   UNL     1      -6.483  10.196  68.214  1.00  0.00    -0.053 Cl 
HETATM   10  C   UNL     1      -9.517  12.395  66.837  1.00  0.00    -0.219 A  
HETATM   11  C   UNL     1      -9.052  13.704  67.019  1.00  0.00    -0.254 A  
ENDBRANCH   3   5
ENDBRANCH   2   3
BRANCH   2  12
HETATM   12  N   UNL     1      -8.664  17.120  66.900  1.00  0.00    -0.222 NA 
HETATM   13  H   UNL     1      -8.127  17.280  66.047  1.00  0.00     0.000 HD 
HETATM   14  C   UNL     1     -10.094  17.493  66.967  1.00  0.00    -0.323 C  
HETATM   15  C   UNL     1     -10.294  18.842  67.674  1.00  0.00    -0.496 C  
HETATM   16  C   UNL     1     -10.980  16.418  67.610  1.00  0.00    -0.225 C  
HETATM   17  C   UNL     1     -10.569  17.686  65.507  1.00  0.00    -0.072 C  
ENDBRANCH   2  12
TORSDOF 3
ENDMDL
MODEL      244
REMARK 921   NORMALIZED FREE ENERGY PREDICTED BY IDOCK:   -2.72 KCAL/MOL
REMARK 922        TOTAL FREE ENERGY PREDICTED BY IDOCK:   -3.67 KCAL/MOL
REMARK 923 INTER-LIGAND FREE ENERGY PREDICTED BY IDOCK:   -3.41 KCAL/MOL
REMARK 924 INTRA-LIGAND FREE ENERGY PREDICTED BY IDOCK:   -0.25 KCAL/MOL
REMARK 927      BINDING AFFINITY PREDICTED BY RF-SCORE:    0.00 PKD
ROOT
HETATM    1  C   UNL     1      -8.460   9.217  71.395  1.00  0.00    -0.041 C  
HETATM    2  C   UNL     1      -9.787   9.340  70.638  1.00  0.00    -0.270 C  
ENDROOT
BRANCH   2   3
HETATM    3  C   UNL     1     -10.779   8.323  71.261  1.00  0.00    -0.227 C  
HETATM    4  O   UNL     1     -11.979   8.317  70.973  1.00  0.00    -0.296 OA 
BRANCH   3   5
HETATM    5  C   UNL     1     -10.300   7.269  72.216  1.00  0.00    -0.239 A  
HETATM    6  C   UNL     1      -9.538   6.213  71.686  1.00  0.00    -0.166 A  
HETATM    7  C   UNL     1      -9.115   5.168  72.504  1.00  0.00    -0.133 A  
HETATM    8  C   UNL     1      -9.448   5.152  73.855  1.00  0.00    -0.133 A  
HETATM    9 CL   UNL     1      -8.183   3.884  71.838  1.00  0.00    -0.081 Cl 
HETATM   10  C   UNL     1     -10.176   6.210  74.398  1.00  0.00    -0.332 A  
HETATM   11  C   UNL     1     -10.587   7.274  73.587  1.00  0.00    -0.353 A  
ENDBRANCH   3   5
ENDBRANCH   2   3
BRANCH   2  12
HETATM   12  N   UNL     1      -9.630   9.072  69.188  1.00  0.00    -0.159 NA 
HETATM   13  H   UNL     1      -9.239   8.187  68.865  1.00  0.00     0.000 HD 
HETATM   14  C   UNL     1     -10.049  10.107  68.218  1.00  0.00    -0.156 C  
HETATM   15  C   UNL     1      -8.979  11.198  68.059  1.00  0.00    -0.149 C  
HETATM   16  C   UNL     1     -11.409  10.738  68.542  1.00  0.00    -0.360 C  
HETATM   17  C   UNL     1     -10.168   9.403  66.845  1.00  0.00    -0.318 C  
ENDBRANCH   2  12
TORSDOF 3
ENDMDL
MODEL      245
REMARK 921   NORMALIZED FREE ENERGY PREDICTED BY IDOCK:   -2.70 KCAL/MOL
REMARK 922        TOTAL FREE ENERGY PREDICTED BY IDOCK:   -3.65 KCAL/MOL
REMARK 923 INTER-LIGAND FREE ENERGY PREDICTED BY IDOCK:   -3.53 KCAL/MOL
REMARK 924 INTRA-LIGAND FREE ENERGY PREDICTED BY IDOCK:   -0.12 KCAL/MOL
REMARK 927      BINDING AFFINITY PREDICTED BY RF-SCORE:    0.00 PKD
ROOT
HETATM    1  C   UNL     1      -8.156  15.294  67.192  1.00  0.00    -0.248 C  
HETATM    2  C   UNL     1      -8.906  13.962  67.307  1.00  0.00    -0.221 C  
ENDROOT
BRANCH   2   3
HETATM    3  C   UNL     1      -7.862  12.822  67.174  1.00  0.00    -0.092 C  
HETATM    4  O   UNL     1      -6.648  13.040  67.194  1.00  0.00    -0.184 OA 
BRANCH   3   5
HETATM    5  C   UNL     1      -8.298  11.390  67.059  1.00  0.00    -0.161 A  
HETATM    6  C   UNL     1      -7.973  10.708  65.874  1.00  0.00    -0.157 A  
HETATM    7  C   UNL     1      -8.401   9.397  65.674  1.00  0.00    -0.124 A  
HETATM    8  C   UNL     1      -9.163   8.749  66.643  1.00  0.00    -0.223 A  
HETATM    9 CL   UNL     1      -7.994   8.578  64.217  1.00  0.00    -0.142 Cl 
HETATM   10  C   UNL     1      -9.463   9.406  67.835  1.00  0.00    -0.150 A  
HETATM   11  C   UNL     1      -9.019  10.716  68.052  1.00  0.00    -0.140 A  
ENDBRANCH   3   5
ENDBRANCH   2   3
BRANCH   2  12
HETATM   12  N   UNL     1      -9.950  13.817  66.263  1.00  0.00    -0.297 NA 
HETATM   13  H   UNL     1      -9.855  13.113  65.530  1.00  0.00     0.000 HD 
HETATM   14  C   UNL     1     -11.129  14.708  66.300  1.00  0.00    -0.336 C  
HETATM   15  C   UNL     1     -10.817  16.085  65.695  1.00  0.00    -0.273 C  
HETATM   16  C   UNL     1     -11.735  14.867  67.701  1.00  0.00    -0.329 C  
HETATM   17  C   UNL     1     -12.202  14.060  65.392  1.00  0.00    -0.453 C  
ENDBRANCH   2  12
TORSDOF 3
ENDMDL
MODEL      246
REMARK 921   NORMALIZED FREE ENERGY PREDICTED BY IDOCK:   -2.69 KCAL/MOL
REMARK 922        TOTAL FREE ENERGY PREDICTED BY IDOCK:   -3.63 KCAL/MOL
REMARK 923 INTER-LIGAND FREE ENERGY PREDICTED BY IDOCK:   -3.02 KCAL/MOL
REMARK 924 INTRA-LIGAND FREE ENERGY PREDICTED BY IDOCK:   -0.61 KCAL/MOL
REMARK 927      BINDING AFFINITY PREDICTED BY RF-SCORE:    0.00 PKD
ROOT
HETATM    1  C   UNL     1     -12.218   6.914  70.928  1.00  0.00    -0.404 C  
HETATM    2  C   UNL     1     -11.111   7.106  71.972  1.00  0.00    -0.245 C  
ENDROOT
BRANCH   2   3
HETATM    3  C   UNL     1     -10.341   8.402  71.605  1.00  0.00    -0.243 C  
HETATM    4  O   UNL     1     -10.808   9.524  71.818  1.00  0.00    -0.298 OA 
BRANCH   3   5
HETATM    5  C   UNL     1      -8.964   8.336  71.010  1.00  0.00    -0.183 A  
HETATM    6  C   UNL     1      -7.883   8.671  71.843  1.00  0.00    -0.122 A  
HETATM    7  C   UNL     1      -6.584   8.693  71.339  1.00  0.00    -0.072 A  
HETATM    8  C   UNL     1      -6.343   8.390  70.002  1.00  0.00    -0.035 A  
HETATM    9 CL   UNL     1      -5.272   9.105  72.373  1.00  0.00    -0.065 Cl 
HETATM   10  C   UNL     1      -7.404   8.025  69.175  1.00  0.00    -0.086 A  
HETATM   11  C   UNL     1      -8.710   7.981  69.680  1.00  0.00    -0.133 A  
ENDBRANCH   3   5
ENDBRANCH   2   3
BRANCH   2  12
HETATM   12  N   UNL     1     -10.177   5.956  72.013  1.00  0.00    -0.193 NA 
HETATM   13  H   UNL     1      -9.616   5.715  71.195  1.00  0.00     0.000 HD 
HETATM   14  C   UNL     1     -10.070   5.163  73.256  1.00  0.00    -0.173 C  
HETATM   15  C   UNL     1     -11.214   4.145  73.378  1.00  0.00    -0.339 C  
HETATM   16  C   UNL     1      -9.983   6.020  74.526  1.00  0.00    -0.321 C  
HETATM   17  C   UNL     1      -8.762   4.344  73.148  1.00  0.00    -0.107 C  
ENDBRANCH   2  12
TORSDOF 3
ENDMDL
MODEL      247
REMARK 921   NORMALIZED FREE ENERGY PREDICTED BY IDOCK:   -2.69 KCAL/MOL
REMARK 922        TOTAL FREE ENERGY PREDICTED BY IDOCK:   -3.63 KCAL/MOL
REMARK 923 INTER-LIGAND FREE ENERGY PREDICTED BY IDOCK:   -3.04 KCAL/MOL
REMARK 924 INTRA-LIGAND FREE ENERGY PREDICTED BY IDOCK:   -0.59 KCAL/MOL
REMARK 927      BINDING AFFINITY PREDICTED BY RF-SCORE:    0.00 PKD
ROOT
HETATM    1  C   UNL     1      -9.651   3.806  69.427  1.00  0.00    -0.219 C  
HETATM    2  C   UNL     1      -9.462   4.929  68.400  1.00  0.00    -0.139 C  
ENDROOT
BRANCH   2   3
HETATM    3  C   UNL     1     -10.474   6.054  68.743  1.00  0.00    -0.248 C  
HETATM    4  O   UNL     1     -11.512   6.221  68.098  1.00  0.00    -0.150 OA 
BRANCH   3   5
HETATM    5  C   UNL     1     -10.243   6.964  69.914  1.00  0.00    -0.214 A  
HETATM    6  C   UNL     1      -9.092   7.772  69.889  1.00  0.00    -0.147 A  
HETATM    7  C   UNL     1      -8.782   8.593  70.971  1.00  0.00    -0.186 A  
HETATM    8  C   UNL     1      -9.605   8.618  72.094  1.00  0.00    -0.378 A  
HETATM    9 CL   UNL     1      -7.371   9.575  70.923  1.00  0.00    -0.101 Cl 
HETATM   10  C   UNL     1     -10.765   7.844  72.116  1.00  0.00    -0.316 A  
HETATM   11  C   UNL     1     -11.094   7.032  71.024  1.00  0.00    -0.295 A  
ENDBRANCH   3   5
ENDBRANCH   2   3
BRANCH   2  12
HETATM   12  N   UNL     1      -9.680   4.457  67.011  1.00  0.00    -0.199 NA 
HETATM   13  H   UNL     1     -10.587   4.087  66.726  1.00  0.00     0.000 HD 
HETATM   14  C   UNL     1      -8.563   4.531  66.045  1.00  0.00    -0.114 C  
HETATM   15  C   UNL     1      -7.590   3.354  66.215  1.00  0.00    -0.077 C  
HETATM   16  C   UNL     1      -7.801   5.862  66.087  1.00  0.00    -0.104 C  
HETATM   17  C   UNL     1      -9.187   4.387  64.636  1.00  0.00    -0.156 C  
ENDBRANCH   2  12
TORSDOF 3
ENDMDL
MODEL      248
REMARK 921   NORMALIZED FREE ENERGY PREDICTED BY IDOCK:   -2.65 KCAL/MOL
REMARK 922        TOTAL FREE ENERGY PREDICTED BY IDOCK:   -3.59 KCAL/MOL
REMARK 923 INTER-LIGAND FREE ENERGY PREDICTED BY IDOCK:   -3.22 KCAL/MOL
REMARK 924 INTRA-LIGAND FREE ENERGY PREDICTED BY IDOCK:   -0.36 KCAL/MOL
REMARK 927      BINDING AFFINITY PREDICTED BY RF-SCORE:    0.00 PKD
ROOT
HETATM    1  C   UNL     1     -11.059   6.283  68.261  1.00  0.00    -0.364 C  
HETATM    2  C   UNL     1     -10.654   7.565  68.998  1.00  0.00    -0.180 C  
ENDROOT
BRANCH   2   3
HETATM    3  C   UNL     1      -9.350   8.090  68.342  1.00  0.00    -0.138 C  
HETATM    4  O   UNL     1      -8.976   9.259  68.470  1.00  0.00    -0.128 OA 
BRANCH   3   5
HETATM    5  C   UNL     1      -8.462   7.171  67.553  1.00  0.00    -0.123 A  
HETATM    6  C   UNL     1      -8.418   7.352  66.160  1.00  0.00    -0.147 A  
HETATM    7  C   UNL     1      -7.666   6.495  65.360  1.00  0.00    -0.099 A  
HETATM    8  C   UNL     1      -6.953   5.444  65.931  1.00  0.00    -0.066 A  
HETATM    9 CL   UNL     1      -7.624   6.730  63.657  1.00  0.00    -0.091 Cl 
HETATM   10  C   UNL     1      -6.963   5.275  67.315  1.00  0.00    -0.065 A  
HETATM   11  C   UNL     1      -7.701   6.146  68.127  1.00  0.00    -0.103 A  
ENDBRANCH   3   5
ENDBRANCH   2   3
BRANCH   2  12
HETATM   12  N   UNL     1     -10.434   7.331  70.445  1.00  0.00    -0.216 NA 
HETATM   13  H   UNL     1      -9.616   6.815  70.769  1.00  0.00     0.000 HD 
HETATM   14  C   UNL     1     -11.420   7.858  71.414  1.00  0.00    -0.260 C  
HETATM   15  C   UNL     1     -12.648   6.942  71.526  1.00  0.00    -0.412 C  
HETATM   16  C   UNL     1     -11.857   9.300  71.124  1.00  0.00    -0.396 C  
HETATM   17  C   UNL     1     -10.731   7.843  72.799  1.00  0.00    -0.435 C  
ENDBRANCH   2  12
TORSDOF 3
ENDMDL
MODEL      249
REMARK 921   NORMALIZED FREE ENERGY PREDICTED BY IDOCK:   -2.65 KCAL/MOL
REMARK 922        TOTAL FREE ENERGY PREDICTED BY IDOCK:   -3.58 KCAL/MOL
REMARK 923 INTER-LIGAND FREE ENERGY PREDICTED BY IDOCK:   -3.22 KCAL/MOL
REMARK 924 INTRA-LIGAND FREE ENERGY PREDICTED BY IDOCK:   -0.36 KCAL/MOL
REMARK 927      BINDING AFFINITY PREDICTED BY RF-SCORE:    0.00 PKD
ROOT
HETATM    1  C   UNL     1     -11.581   6.631  72.450  1.00  0.00    -0.281 C  
HETATM    2  C   UNL     1     -10.430   7.403  71.795  1.00  0.00    -0.196 C  
ENDROOT
BRANCH   2   3
HETATM    3  C   UNL     1     -10.837   7.697  70.327  1.00  0.00    -0.246 C  
HETATM    4  O   UNL     1     -11.288   6.822  69.584  1.00  0.00    -0.300 OA 
BRANCH   3   5
HETATM    5  C   UNL     1     -10.738   9.086  69.766  1.00  0.00    -0.233 A  
HETATM    6  C   UNL     1      -9.597   9.396  69.005  1.00  0.00    -0.164 A  
HETATM    7  C   UNL     1      -9.409  10.683  68.507  1.00  0.00    -0.170 A  
HETATM    8  C   UNL     1     -10.346  11.681  68.764  1.00  0.00    -0.213 A  
HETATM    9 CL   UNL     1      -8.007  11.045  67.578  1.00  0.00    -0.114 Cl 
HETATM   10  C   UNL     1     -11.496  11.376  69.490  1.00  0.00    -0.381 A  
HETATM   11  C   UNL     1     -11.702  10.079  69.976  1.00  0.00    -0.242 A  
ENDBRANCH   3   5
ENDBRANCH   2   3
BRANCH   2  12
HETATM   12  N   UNL     1      -9.159   6.640  71.824  1.00  0.00    -0.145 NA 
HETATM   13  H   UNL     1      -8.903   6.028  71.049  1.00  0.00     0.000 HD 
HETATM   14  C   UNL     1      -8.267   6.779  72.996  1.00  0.00    -0.108 C  
HETATM   15  C   UNL     1      -8.735   5.905  74.170  1.00  0.00    -0.122 C  
HETATM   16  C   UNL     1      -8.077   8.230  73.456  1.00  0.00    -0.237 C  
HETATM   17  C   UNL     1      -6.884   6.235  72.565  1.00  0.00    -0.070 C  
ENDBRANCH   2  12
TORSDOF 3
ENDMDL
MODEL      250
REMARK 921   NORMALIZED FREE ENERGY PREDICTED BY IDOCK:   -2.62 KCAL/MOL
REMARK 922        TOTAL FREE ENERGY PREDICTED BY IDOCK:   -3.55 KCAL/MOL
REMARK 923 INTER-LIGAND FREE ENERGY PREDICTED BY IDOCK:   -3.23 KCAL/MOL
REMARK 924 INTRA-LIGAND FREE ENERGY PREDICTED BY IDOCK:   -0.32 KCAL/MOL
REMARK 927      BINDING AFFINITY PREDICTED BY RF-SCORE:    0.00 PKD
ROOT
HETATM    1  C   UNL     1      -7.570   6.536  67.138  1.00  0.00    -0.096 C  
HETATM    2  C   UNL     1      -8.937   7.217  66.996  1.00  0.00    -0.129 C  
ENDROOT
BRANCH   2   3
HETATM    3  C   UNL     1     -10.018   6.105  67.004  1.00  0.00    -0.162 C  
HETATM    4  O   UNL     1     -11.220   6.358  66.887  1.00  0.00    -0.368 OA 
BRANCH   3   5
HETATM    5  C   UNL     1      -9.632   4.658  67.112  1.00  0.00    -0.197 A  
HETATM    6  C   UNL     1      -9.435   3.949  65.914  1.00  0.00    -0.182 A  
HETATM    7  C   UNL     1      -9.138   2.588  65.939  1.00  0.00    -0.098 A  
HETATM    8  C   UNL     1      -9.040   1.912  67.152  1.00  0.00    -0.126 A  
HETATM    9 CL   UNL     1      -8.900   1.737  64.463  1.00  0.00    -0.100 Cl 
HETATM   10  C   UNL     1      -9.201   2.612  68.347  1.00  0.00    -0.253 A  
HETATM   11  C   UNL     1      -9.480   3.984  68.330  1.00  0.00    -0.216 A  
ENDBRANCH   3   5
ENDBRANCH   2   3
BRANCH   2  12
HETATM   12  N   UNL     1      -9.037   8.013  65.749  1.00  0.00    -0.362 NA 
HETATM   13  H   UNL     1      -9.053   7.551  64.840  1.00  0.00     0.000 HD 
HETATM   14  C   UNL     1      -9.112   9.487  65.844  1.00  0.00    -0.184 C  
HETATM   15  C   UNL     1      -7.722  10.112  66.046  1.00  0.00    -0.120 C  
HETATM   16  C   UNL     1     -10.081   9.985  66.923  1.00  0.00    -0.287 C  
HETATM   17  C   UNL     1      -9.627   9.992  64.475  1.00  0.00    -0.346 C  
ENDBRANCH   2  12
TORSDOF 3
ENDMDL
MODEL      251
REMARK 921   NORMALIZED FREE ENERGY PREDICTED BY IDOCK:   -2.62 KCAL/MOL
REMARK 922        TOTAL FREE ENERGY PREDICTED BY IDOCK:   -3.55 KCAL/MOL
REMARK 923 INTER-LIGAND FREE ENERGY PREDICTED BY IDOCK:   -2.93 KCAL/MOL
REMARK 924 INTRA-LIGAND FREE ENERGY PREDICTED BY IDOCK:   -0.61 KCAL/MOL
REMARK 927      BINDING AFFINITY PREDICTED BY RF-SCORE:    0.00 PKD
ROOT
HETATM    1  C   UNL     1     -10.434   8.053  66.785  1.00  0.00    -0.319 C  
HETATM    2  C   UNL     1     -10.145   6.904  67.758  1.00  0.00    -0.161 C  
ENDROOT
BRANCH   2   3
HETATM    3  C   UNL     1     -10.031   5.601  66.924  1.00  0.00    -0.174 C  
HETATM    4  O   UNL     1     -10.984   5.145  66.288  1.00  0.00    -0.236 OA 
BRANCH   3   5
HETATM    5  C   UNL     1      -8.727   4.863  66.827  1.00  0.00    -0.107 A  
HETATM    6  C   UNL     1      -7.742   5.160  67.785  1.00  0.00    -0.088 A  
HETATM    7  C   UNL     1      -6.487   4.559  67.716  1.00  0.00    -0.045 A  
HETATM    8  C   UNL     1      -6.191   3.663  66.693  1.00  0.00    -0.028 A  
HETATM    9 CL   UNL     1      -5.294   4.934  68.897  1.00  0.00    -0.004 Cl 
HETATM   10  C   UNL     1      -7.170   3.337  65.756  1.00  0.00    -0.071 A  
HETATM   11  C   UNL     1      -8.441   3.921  65.831  1.00  0.00    -0.110 A  
ENDBRANCH   3   5
ENDBRANCH   2   3
BRANCH   2  12
HETATM   12  N   UNL     1     -11.208   6.759  68.782  1.00  0.00    -0.534 NA 
HETATM   13  H   UNL     1     -12.129   6.403  68.526  1.00  0.00     0.000 HD 
HETATM   14  C   UNL     1     -10.912   7.140  70.180  1.00  0.00    -0.267 C  
HETATM   15  C   UNL     1     -11.020   8.659  70.388  1.00  0.00    -0.256 C  
HETATM   16  C   UNL     1      -9.556   6.629  70.683  1.00  0.00    -0.177 C  
HETATM   17  C   UNL     1     -12.014   6.497  71.056  1.00  0.00    -0.358 C  
ENDBRANCH   2  12
TORSDOF 3
ENDMDL
MODEL      252
REMARK 921   NORMALIZED FREE ENERGY PREDICTED BY IDOCK:   -2.60 KCAL/MOL
REMARK 922        TOTAL FREE ENERGY PREDICTED BY IDOCK:   -3.52 KCAL/MOL
REMARK 923 INTER-LIGAND FREE ENERGY PREDICTED BY IDOCK:   -4.44 KCAL/MOL
REMARK 924 INTRA-LIGAND FREE ENERGY PREDICTED BY IDOCK:    0.92 KCAL/MOL
REMARK 927      BINDING AFFINITY PREDICTED BY RF-SCORE:    0.00 PKD
ROOT
HETATM    1  C   UNL     1     -11.161  12.098  69.495  1.00  0.00    -0.201 C  
HETATM    2  C   UNL     1     -11.892  12.956  68.455  1.00  0.00    -0.318 C  
ENDROOT
BRANCH   2   3
HETATM    3  C   UNL     1     -10.885  13.273  67.318  1.00  0.00    -0.264 C  
HETATM    4  O   UNL     1     -10.461  12.401  66.556  1.00  0.00    -0.227 OA 
BRANCH   3   5
HETATM    5  C   UNL     1     -10.418  14.679  67.075  1.00  0.00    -0.269 A  
HETATM    6  C   UNL     1      -9.426  15.189  67.931  1.00  0.00    -0.194 A  
HETATM    7  C   UNL     1      -8.993  16.507  67.803  1.00  0.00    -0.202 A  
HETATM    8  C   UNL     1      -9.542  17.337  66.830  1.00  0.00    -0.279 A  
HETATM    9 CL   UNL     1      -7.778  17.114  68.859  1.00  0.00    -0.252 Cl 
HETATM   10  C   UNL     1     -10.503  16.833  65.955  1.00  0.00    -0.300 A  
HETATM   11  C   UNL     1     -10.929  15.503  66.064  1.00  0.00    -0.251 A  
ENDBRANCH   3   5
ENDBRANCH   2   3
BRANCH   2  12
HETATM   12  N   UNL     1     -12.412  14.216  69.038  1.00  0.00    -0.495 NA 
HETATM   13  H   UNL     1     -12.798  14.945  68.436  1.00  0.00     0.000 HD 
HETATM   14  C   UNL     1     -12.362  14.402  70.504  1.00  0.00    -0.345 C  
HETATM   15  C   UNL     1     -10.967  14.847  70.971  1.00  0.00    -0.043 C  
HETATM   16  C   UNL     1     -12.821  13.171  71.296  1.00  0.00    -0.384 C  
HETATM   17  C   UNL     1     -13.328  15.564  70.835  1.00  0.00    -0.414 C  
ENDBRANCH   2  12
TORSDOF 3
ENDMDL
MODEL      253
REMARK 921   NORMALIZED FREE ENERGY PREDICTED BY IDOCK:   -2.51 KCAL/MOL
REMARK 922        TOTAL FREE ENERGY PREDICTED BY IDOCK:   -3.42 KCAL/MOL
REMARK 923 INTER-LIGAND FREE ENERGY PREDICTED BY IDOCK:   -2.69 KCAL/MOL
REMARK 924 INTRA-LIGAND FREE ENERGY PREDICTED BY IDOCK:   -0.73 KCAL/MOL
REMARK 927      BINDING AFFINITY PREDICTED BY RF-SCORE:    0.00 PKD
ROOT
HETATM    1  C   UNL     1     -11.067   8.437  69.963  1.00  0.00    -0.148 C  
HETATM    2  C   UNL     1     -10.328   8.172  68.646  1.00  0.00    -0.200 C  
ENDROOT
BRANCH   2   3
HETATM    3  C   UNL     1      -9.653   6.780  68.758  1.00  0.00    -0.132 C  
HETATM    4  O   UNL     1      -9.548   6.187  69.834  1.00  0.00    -0.156 OA 
BRANCH   3   5
HETATM    5  C   UNL     1      -9.134   6.077  67.537  1.00  0.00    -0.109 A  
HETATM    6  C   UNL     1     -10.078   5.477  66.686  1.00  0.00    -0.245 A  
HETATM    7  C   UNL     1      -9.662   4.753  65.570  1.00  0.00    -0.152 A  
HETATM    8  C   UNL     1      -8.307   4.610  65.288  1.00  0.00    -0.124 A  
HETATM    9 CL   UNL     1     -10.832   4.025  64.539  1.00  0.00    -0.241 Cl 
HETATM   10  C   UNL     1      -7.363   5.228  66.108  1.00  0.00    -0.081 A  
HETATM   11  C   UNL     1      -7.774   5.974  67.220  1.00  0.00    -0.097 A  
ENDBRANCH   3   5
ENDBRANCH   2   3
BRANCH   2  12
HETATM   12  N   UNL     1      -9.307   9.209  68.360  1.00  0.00    -0.135 NA 
HETATM   13  H   UNL     1      -8.499   9.323  68.972  1.00  0.00     0.000 HD 
HETATM   14  C   UNL     1      -9.479  10.077  67.175  1.00  0.00    -0.155 C  
HETATM   15  C   UNL     1     -10.463  11.224  67.453  1.00  0.00    -0.247 C  
HETATM   16  C   UNL     1      -9.894   9.315  65.910  1.00  0.00    -0.335 C  
HETATM   17  C   UNL     1      -8.104  10.732  66.904  1.00  0.00    -0.132 C  
ENDBRANCH   2  12
TORSDOF 3
ENDMDL
MODEL      254
REMARK 921   NORMALIZED FREE ENERGY PREDICTED BY IDOCK:   -2.50 KCAL/MOL
REMARK 922        TOTAL FREE ENERGY PREDICTED BY IDOCK:   -3.41 KCAL/MOL
REMARK 923 INTER-LIGAND FREE ENERGY PREDICTED BY IDOCK:   -2.90 KCAL/MOL
REMARK 924 INTRA-LIGAND FREE ENERGY PREDICTED BY IDOCK:   -0.51 KCAL/MOL
REMARK 927      BINDING AFFINITY PREDICTED BY RF-SCORE:    0.00 PKD
ROOT
HETATM    1  C   UNL     1     -11.079   6.622  67.027  1.00  0.00    -0.395 C  
HETATM    2  C   UNL     1     -10.044   5.714  67.701  1.00  0.00    -0.172 C  
ENDROOT
BRANCH   2   3
HETATM    3  C   UNL     1      -9.494   6.468  68.940  1.00  0.00    -0.129 C  
HETATM    4  O   UNL     1      -9.036   7.610  68.862  1.00  0.00    -0.141 OA 
BRANCH   3   5
HETATM    5  C   UNL     1      -9.540   5.841  70.304  1.00  0.00    -0.206 A  
HETATM    6  C   UNL     1      -9.783   6.690  71.398  1.00  0.00    -0.181 A  
HETATM    7  C   UNL     1      -9.775   6.187  72.697  1.00  0.00    -0.156 A  
HETATM    8  C   UNL     1      -9.520   4.838  72.928  1.00  0.00    -0.150 A  
HETATM    9 CL   UNL     1     -10.075   7.240  74.024  1.00  0.00    -0.307 Cl 
HETATM   10  C   UNL     1      -9.309   3.981  71.848  1.00  0.00    -0.192 A  
HETATM   11  C   UNL     1      -9.336   4.476  70.538  1.00  0.00    -0.218 A  
ENDBRANCH   3   5
ENDBRANCH   2   3
BRANCH   2  12
HETATM   12  N   UNL     1      -8.931   5.361  66.787  1.00  0.00    -0.112 NA 
HETATM   13  H   UNL     1      -8.149   6.002  66.651  1.00  0.00     0.000 HD 
HETATM   14  C   UNL     1      -8.972   4.065  66.075  1.00  0.00    -0.129 C  
HETATM   15  C   UNL     1      -9.875   4.131  64.833  1.00  0.00    -0.202 C  
HETATM   16  C   UNL     1      -9.378   2.886  66.967  1.00  0.00    -0.132 C  
HETATM   17  C   UNL     1      -7.536   3.798  65.562  1.00  0.00    -0.081 C  
ENDBRANCH   2  12
TORSDOF 3
ENDMDL
MODEL      255
REMARK 921   NORMALIZED FREE ENERGY PREDICTED BY IDOCK:   -2.50 KCAL/MOL
REMARK 922        TOTAL FREE ENERGY PREDICTED BY IDOCK:   -3.40 KCAL/MOL
REMARK 923 INTER-LIGAND FREE ENERGY PREDICTED BY IDOCK:   -2.69 KCAL/MOL
REMARK 924 INTRA-LIGAND FREE ENERGY PREDICTED BY IDOCK:   -0.72 KCAL/MOL
REMARK 927      BINDING AFFINITY PREDICTED BY RF-SCORE:    0.00 PKD
ROOT
HETATM    1  C   UNL     1      -9.622   4.615  65.733  1.00  0.00    -0.190 C  
HETATM    2  C   UNL     1      -9.173   5.757  66.651  1.00  0.00    -0.137 C  
ENDROOT
BRANCH   2   3
HETATM    3  C   UNL     1     -10.427   6.605  66.991  1.00  0.00    -0.298 C  
HETATM    4  O   UNL     1     -11.569   6.225  66.720  1.00  0.00     0.081 OA 
BRANCH   3   5
HETATM    5  C   UNL     1     -10.296   7.916  67.711  1.00  0.00    -0.289 A  
HETATM    6  C   UNL     1     -10.038   7.873  69.092  1.00  0.00    -0.197 A  
HETATM    7  C   UNL     1      -9.968   9.050  69.835  1.00  0.00    -0.191 A  
HETATM    8  C   UNL     1     -10.159  10.284  69.218  1.00  0.00    -0.244 A  
HETATM    9 CL   UNL     1      -9.652   8.979  71.524  1.00  0.00    -0.358 Cl 
HETATM   10  C   UNL     1     -10.384  10.340  67.843  1.00  0.00    -0.234 A  
HETATM   11  C   UNL     1     -10.435   9.162  67.087  1.00  0.00    -0.325 A  
ENDBRANCH   3   5
ENDBRANCH   2   3
BRANCH   2  12
HETATM   12  N   UNL     1      -8.141   6.611  66.016  1.00  0.00    -0.115 NA 
HETATM   13  H   UNL     1      -8.380   7.214  65.228  1.00  0.00     0.000 HD 
HETATM   14  C   UNL     1      -6.759   6.575  66.541  1.00  0.00    -0.056 C  
HETATM   15  C   UNL     1      -5.982   5.363  66.006  1.00  0.00    -0.022 C  
HETATM   16  C   UNL     1      -6.682   6.623  68.073  1.00  0.00    -0.071 C  
HETATM   17  C   UNL     1      -6.045   7.834  65.992  1.00  0.00    -0.038 C  
ENDBRANCH   2  12
TORSDOF 3
ENDMDL
MODEL      256
REMARK 921   NORMALIZED FREE ENERGY PREDICTED BY IDOCK:   -2.50 KCAL/MOL
REMARK 922        TOTAL FREE ENERGY PREDICTED BY IDOCK:   -3.40 KCAL/MOL
REMARK 923 INTER-LIGAND FREE ENERGY PREDICTED BY IDOCK:   -3.69 KCAL/MOL
REMARK 924 INTRA-LIGAND FREE ENERGY PREDICTED BY IDOCK:    0.28 KCAL/MOL
REMARK 927      BINDING AFFINITY PREDICTED BY RF-SCORE:    0.00 PKD
ROOT
HETATM    1  C   UNL     1      -9.579   4.601  70.367  1.00  0.00    -0.271 C  
HETATM    2  C   UNL     1      -9.520   5.389  69.054  1.00  0.00    -0.133 C  
ENDROOT
BRANCH   2   3
HETATM    3  C   UNL     1     -10.639   6.463  69.100  1.00  0.00    -0.255 C  
HETATM    4  O   UNL     1     -11.660   6.316  69.776  1.00  0.00    -0.436 OA 
BRANCH   3   5
HETATM    5  C   UNL     1     -10.496   7.755  68.349  1.00  0.00    -0.207 A  
HETATM    6  C   UNL     1     -10.707   8.946  69.064  1.00  0.00    -0.148 A  
HETATM    7  C   UNL     1     -10.654  10.178  68.416  1.00  0.00    -0.217 A  
HETATM    8  C   UNL     1     -10.398  10.243  67.049  1.00  0.00    -0.299 A  
HETATM    9 CL   UNL     1     -10.914  11.626  69.307  1.00  0.00    -0.268 Cl 
HETATM   10  C   UNL     1     -10.156   9.070  66.336  1.00  0.00    -0.351 A  
HETATM   11  C   UNL     1     -10.188   7.830  66.985  1.00  0.00    -0.375 A  
ENDBRANCH   3   5
ENDBRANCH   2   3
BRANCH   2  12
HETATM   12  N   UNL     1      -9.705   4.516  67.870  1.00  0.00    -0.156 NA 
HETATM   13  H   UNL     1     -10.404   4.743  67.162  1.00  0.00     0.000 HD 
HETATM   14  C   UNL     1      -8.861   3.310  67.730  1.00  0.00    -0.131 C  
HETATM   15  C   UNL     1      -9.392   2.146  68.581  1.00  0.00    -0.235 C  
HETATM   16  C   UNL     1      -7.378   3.558  68.035  1.00  0.00    -0.054 C  
HETATM   17  C   UNL     1      -8.971   2.861  66.253  1.00  0.00    -0.153 C  
ENDBRANCH   2  12
TORSDOF 3
ENDMDL
MODEL      257
REMARK 921   NORMALIZED FREE ENERGY PREDICTED BY IDOCK:   -2.45 KCAL/MOL
REMARK 922        TOTAL FREE ENERGY PREDICTED BY IDOCK:   -3.35 KCAL/MOL
REMARK 923 INTER-LIGAND FREE ENERGY PREDICTED BY IDOCK:   -2.72 KCAL/MOL
REMARK 924 INTRA-LIGAND FREE ENERGY PREDICTED BY IDOCK:   -0.63 KCAL/MOL
REMARK 927      BINDING AFFINITY PREDICTED BY RF-SCORE:    0.00 PKD
ROOT
HETATM    1  C   UNL     1      -8.138  10.999  68.884  1.00  0.00    -0.135 C  
HETATM    2  C   UNL     1      -9.044   9.776  68.696  1.00  0.00    -0.130 C  
ENDROOT
BRANCH   2   3
HETATM    3  C   UNL     1      -9.387   9.226  70.105  1.00  0.00    -0.228 C  
HETATM    4  O   UNL     1     -10.282   9.714  70.800  1.00  0.00    -0.290 OA 
BRANCH   3   5
HETATM    5  C   UNL     1      -8.661   8.036  70.663  1.00  0.00    -0.130 A  
HETATM    6  C   UNL     1      -9.384   6.838  70.792  1.00  0.00    -0.161 A  
HETATM    7  C   UNL     1      -8.792   5.713  71.361  1.00  0.00    -0.136 A  
HETATM    8  C   UNL     1      -7.477   5.764  71.816  1.00  0.00    -0.095 A  
HETATM    9 CL   UNL     1      -9.693   4.255  71.510  1.00  0.00    -0.233 Cl 
HETATM   10  C   UNL     1      -6.740   6.937  71.665  1.00  0.00    -0.053 A  
HETATM   11  C   UNL     1      -7.323   8.066  71.075  1.00  0.00    -0.059 A  
ENDBRANCH   3   5
ENDBRANCH   2   3
BRANCH   2  12
HETATM   12  N   UNL     1      -8.395   8.720  67.884  1.00  0.00    -0.118 NA 
HETATM   13  H   UNL     1      -7.450   8.404  68.103  1.00  0.00     0.000 HD 
HETATM   14  C   UNL     1      -9.138   8.130  66.749  1.00  0.00    -0.157 C  
HETATM   15  C   UNL     1      -9.073   9.027  65.503  1.00  0.00    -0.271 C  
HETATM   16  C   UNL     1     -10.596   7.785  67.081  1.00  0.00    -0.401 C  
HETATM   17  C   UNL     1      -8.413   6.813  66.382  1.00  0.00    -0.126 C  
ENDBRANCH   2  12
TORSDOF 3
ENDMDL
MODEL      258
REMARK 921   NORMALIZED FREE ENERGY PREDICTED BY IDOCK:   -2.42 KCAL/MOL
REMARK 922        TOTAL FREE ENERGY PREDICTED BY IDOCK:   -3.32 KCAL/MOL
REMARK 923 INTER-LIGAND FREE ENERGY PREDICTED BY IDOCK:   -2.97 KCAL/MOL
REMARK 924 INTRA-LIGAND FREE ENERGY PREDICTED BY IDOCK:   -0.34 KCAL/MOL
REMARK 927      BINDING AFFINITY PREDICTED BY RF-SCORE:    0.00 PKD
ROOT
HETATM    1  C   UNL     1      -7.439  10.718  66.691  1.00  0.00    -0.135 C  
HETATM    2  C   UNL     1      -8.207  11.208  67.925  1.00  0.00    -0.121 C  
ENDROOT
BRANCH   2   3
HETATM    3  C   UNL     1      -7.958  10.189  69.067  1.00  0.00    -0.115 C  
HETATM    4  O   UNL     1      -7.601  10.541  70.194  1.00  0.00    -0.129 OA 
BRANCH   3   5
HETATM    5  C   UNL     1      -8.189   8.721  68.851  1.00  0.00    -0.118 A  
HETATM    6  C   UNL     1      -9.480   8.225  69.104  1.00  0.00    -0.155 A  
HETATM    7  C   UNL     1      -9.748   6.862  68.986  1.00  0.00    -0.150 A  
HETATM    8  C   UNL     1      -8.739   5.975  68.622  1.00  0.00    -0.110 A  
HETATM    9 CL   UNL     1     -11.333   6.273  69.299  1.00  0.00    -0.474 Cl 
HETATM   10  C   UNL     1      -7.463   6.461  68.338  1.00  0.00    -0.088 A  
HETATM   11  C   UNL     1      -7.191   7.831  68.435  1.00  0.00    -0.093 A  
ENDBRANCH   3   5
ENDBRANCH   2   3
BRANCH   2  12
HETATM   12  N   UNL     1      -9.661  11.333  67.664  1.00  0.00    -0.169 NA 
HETATM   13  H   UNL     1     -10.249  10.502  67.600  1.00  0.00     0.000 HD 
HETATM   14  C   UNL     1     -10.246  12.681  67.499  1.00  0.00    -0.215 C  
HETATM   15  C   UNL     1     -10.018  13.226  66.080  1.00  0.00    -0.295 C  
HETATM   16  C   UNL     1      -9.760  13.695  68.543  1.00  0.00    -0.184 C  
HETATM   17  C   UNL     1     -11.776  12.523  67.670  1.00  0.00    -0.423 C  
ENDBRANCH   2  12
TORSDOF 3
ENDMDL
MODEL      259
REMARK 921   NORMALIZED FREE ENERGY PREDICTED BY IDOCK:   -2.41 KCAL/MOL
REMARK 922        TOTAL FREE ENERGY PREDICTED BY IDOCK:   -3.30 KCAL/MOL
REMARK 923 INTER-LIGAND FREE ENERGY PREDICTED BY IDOCK:   -2.87 KCAL/MOL
REMARK 924 INTRA-LIGAND FREE ENERGY PREDICTED BY IDOCK:   -0.43 KCAL/MOL
REMARK 927      BINDING AFFINITY PREDICTED BY RF-SCORE:    0.00 PKD
ROOT
HETATM    1  C   UNL     1      -9.042   4.046  68.642  1.00  0.00    -0.188 C  
HETATM    2  C   UNL     1      -8.783   4.857  67.367  1.00  0.00    -0.103 C  
ENDROOT
BRANCH   2   3
HETATM    3  C   UNL     1     -10.064   5.678  67.064  1.00  0.00    -0.188 C  
HETATM    4  O   UNL     1     -10.964   5.245  66.341  1.00  0.00    -0.235 OA 
BRANCH   3   5
HETATM    5  C   UNL     1     -10.275   7.029  67.684  1.00  0.00    -0.245 A  
HETATM    6  C   UNL     1     -10.241   8.145  66.830  1.00  0.00    -0.372 A  
HETATM    7  C   UNL     1     -10.366   9.433  67.346  1.00  0.00    -0.263 A  
HETATM    8  C   UNL     1     -10.519   9.631  68.716  1.00  0.00    -0.238 A  
HETATM    9 CL   UNL     1     -10.322  10.787  66.286  1.00  0.00    -0.303 Cl 
HETATM   10  C   UNL     1     -10.587   8.529  69.568  1.00  0.00    -0.215 A  
HETATM   11  C   UNL     1     -10.482   7.231  69.054  1.00  0.00    -0.219 A  
ENDBRANCH   3   5
ENDBRANCH   2   3
BRANCH   2  12
HETATM   12  N   UNL     1      -8.452   3.989  66.211  1.00  0.00    -0.108 NA 
HETATM   13  H   UNL     1      -9.174   3.422  65.766  1.00  0.00     0.000 HD 
HETATM   14  C   UNL     1      -7.060   3.957  65.714  1.00  0.00    -0.067 C  
HETATM   15  C   UNL     1      -6.176   3.034  66.567  1.00  0.00    -0.025 C  
HETATM   16  C   UNL     1      -6.419   5.345  65.592  1.00  0.00    -0.040 C  
HETATM   17  C   UNL     1      -7.110   3.333  64.299  1.00  0.00    -0.057 C  
ENDBRANCH   2  12
TORSDOF 3
ENDMDL
MODEL      260
REMARK 921   NORMALIZED FREE ENERGY PREDICTED BY IDOCK:   -2.36 KCAL/MOL
REMARK 922        TOTAL FREE ENERGY PREDICTED BY IDOCK:   -3.24 KCAL/MOL
REMARK 923 INTER-LIGAND FREE ENERGY PREDICTED BY IDOCK:   -2.50 KCAL/MOL
REMARK 924 INTRA-LIGAND FREE ENERGY PREDICTED BY IDOCK:   -0.74 KCAL/MOL
REMARK 927      BINDING AFFINITY PREDICTED BY RF-SCORE:    0.00 PKD
ROOT
HETATM    1  C   UNL     1     -10.553   7.897  69.663  1.00  0.00    -0.234 C  
HETATM    2  C   UNL     1      -9.826   7.206  68.503  1.00  0.00    -0.153 C  
ENDROOT
BRANCH   2   3
HETATM    3  C   UNL     1     -10.155   5.692  68.578  1.00  0.00    -0.182 C  
HETATM    4  O   UNL     1     -10.650   5.178  69.584  1.00  0.00    -0.261 OA 
BRANCH   3   5
HETATM    5  C   UNL     1      -9.919   4.795  67.398  1.00  0.00    -0.204 A  
HETATM    6  C   UNL     1      -8.921   3.812  67.521  1.00  0.00    -0.157 A  
HETATM    7  C   UNL     1      -8.605   2.987  66.444  1.00  0.00    -0.118 A  
HETATM    8  C   UNL     1      -9.270   3.131  65.229  1.00  0.00    -0.150 A  
HETATM    9 CL   UNL     1      -7.382   1.790  66.613  1.00  0.00    -0.055 Cl 
HETATM   10  C   UNL     1     -10.283   4.081  65.105  1.00  0.00    -0.172 A  
HETATM   11  C   UNL     1     -10.620   4.900  66.190  1.00  0.00    -0.322 A  
ENDBRANCH   3   5
ENDBRANCH   2   3
BRANCH   2  12
HETATM   12  N   UNL     1      -8.358   7.410  68.564  1.00  0.00    -0.125 NA 
HETATM   13  H   UNL     1      -7.812   7.018  69.332  1.00  0.00     0.000 HD 
HETATM   14  C   UNL     1      -7.698   8.189  67.494  1.00  0.00    -0.102 C  
HETATM   15  C   UNL     1      -7.844   9.702  67.725  1.00  0.00    -0.094 C  
HETATM   16  C   UNL     1      -8.169   7.818  66.082  1.00  0.00    -0.123 C  
HETATM   17  C   UNL     1      -6.186   7.874  67.587  1.00  0.00    -0.051 C  
ENDBRANCH   2  12
TORSDOF 3
ENDMDL
MODEL      261
REMARK 921   NORMALIZED FREE ENERGY PREDICTED BY IDOCK:   -2.36 KCAL/MOL
REMARK 922        TOTAL FREE ENERGY PREDICTED BY IDOCK:   -3.24 KCAL/MOL
REMARK 923 INTER-LIGAND FREE ENERGY PREDICTED BY IDOCK:   -2.86 KCAL/MOL
REMARK 924 INTRA-LIGAND FREE ENERGY PREDICTED BY IDOCK:   -0.38 KCAL/MOL
REMARK 927      BINDING AFFINITY PREDICTED BY RF-SCORE:    0.00 PKD
ROOT
HETATM    1  C   UNL     1     -11.067   8.521  70.085  1.00  0.00    -0.192 C  
HETATM    2  C   UNL     1     -10.365   8.304  68.740  1.00  0.00    -0.205 C  
ENDROOT
BRANCH   2   3
HETATM    3  C   UNL     1      -9.697   6.904  68.779  1.00  0.00    -0.137 C  
HETATM    4  O   UNL     1      -9.291   6.342  67.759  1.00  0.00    -0.119 OA 
BRANCH   3   5
HETATM    5  C   UNL     1      -9.480   6.193  70.084  1.00  0.00    -0.177 A  
HETATM    6  C   UNL     1      -8.348   6.553  70.836  1.00  0.00    -0.126 A  
HETATM    7  C   UNL     1      -8.050   5.889  72.024  1.00  0.00    -0.108 A  
HETATM    8  C   UNL     1      -8.866   4.857  72.478  1.00  0.00    -0.127 A  
HETATM    9 CL   UNL     1      -6.661   6.343  72.932  1.00  0.00    -0.068 Cl 
HETATM   10  C   UNL     1     -10.009   4.513  71.756  1.00  0.00    -0.264 A  
HETATM   11  C   UNL     1     -10.326   5.190  70.572  1.00  0.00    -0.314 A  
ENDBRANCH   3   5
ENDBRANCH   2   3
BRANCH   2  12
HETATM   12  N   UNL     1      -9.344   9.344  68.468  1.00  0.00    -0.137 NA 
HETATM   13  H   UNL     1      -8.543   9.459  69.090  1.00  0.00     0.000 HD 
HETATM   14  C   UNL     1      -9.505  10.214  67.283  1.00  0.00    -0.154 C  
HETATM   15  C   UNL     1     -10.495  11.358  67.551  1.00  0.00    -0.233 C  
HETATM   16  C   UNL     1      -9.902   9.453  66.011  1.00  0.00    -0.366 C  
HETATM   17  C   UNL     1      -8.128  10.874  67.029  1.00  0.00    -0.131 C  
ENDBRANCH   2  12
TORSDOF 3
ENDMDL
MODEL      262
REMARK 921   NORMALIZED FREE ENERGY PREDICTED BY IDOCK:   -2.29 KCAL/MOL
REMARK 922        TOTAL FREE ENERGY PREDICTED BY IDOCK:   -3.15 KCAL/MOL
REMARK 923 INTER-LIGAND FREE ENERGY PREDICTED BY IDOCK:   -2.52 KCAL/MOL
REMARK 924 INTRA-LIGAND FREE ENERGY PREDICTED BY IDOCK:   -0.64 KCAL/MOL
REMARK 927      BINDING AFFINITY PREDICTED BY RF-SCORE:    0.00 PKD
ROOT
HETATM    1  C   UNL     1     -10.658   8.599  68.704  1.00  0.00    -0.165 C  
HETATM    2  C   UNL     1      -9.792   8.199  67.504  1.00  0.00    -0.177 C  
ENDROOT
BRANCH   2   3
HETATM    3  C   UNL     1      -9.370   6.720  67.702  1.00  0.00    -0.120 C  
HETATM    4  O   UNL     1      -9.100   6.258  68.813  1.00  0.00    -0.128 OA 
BRANCH   3   5
HETATM    5  C   UNL     1      -9.317   5.773  66.537  1.00  0.00    -0.162 A  
HETATM    6  C   UNL     1      -8.124   5.726  65.796  1.00  0.00    -0.116 A  
HETATM    7  C   UNL     1      -8.027   4.918  64.665  1.00  0.00    -0.099 A  
HETATM    8  C   UNL     1      -9.114   4.153  64.251  1.00  0.00    -0.147 A  
HETATM    9 CL   UNL     1      -6.558   4.872  63.770  1.00  0.00    -0.036 Cl 
HETATM   10  C   UNL     1     -10.292   4.168  64.997  1.00  0.00    -0.209 A  
HETATM   11  C   UNL     1     -10.389   4.962  66.147  1.00  0.00    -0.329 A  
ENDBRANCH   3   5
ENDBRANCH   2   3
BRANCH   2  12
HETATM   12  N   UNL     1      -8.589   9.056  67.374  1.00  0.00    -0.115 NA 
HETATM   13  H   UNL     1      -7.830   8.989  68.052  1.00  0.00     0.000 HD 
HETATM   14  C   UNL     1      -8.507  10.010  66.247  1.00  0.00    -0.130 C  
HETATM   15  C   UNL     1      -9.301  11.293  66.533  1.00  0.00    -0.201 C  
HETATM   16  C   UNL     1      -8.932   9.409  64.901  1.00  0.00    -0.256 C  
HETATM   17  C   UNL     1      -7.021  10.428  66.129  1.00  0.00    -0.126 C  
ENDBRANCH   2  12
TORSDOF 3
ENDMDL
MODEL      263
REMARK 921   NORMALIZED FREE ENERGY PREDICTED BY IDOCK:   -2.28 KCAL/MOL
REMARK 922        TOTAL FREE ENERGY PREDICTED BY IDOCK:   -3.15 KCAL/MOL
REMARK 923 INTER-LIGAND FREE ENERGY PREDICTED BY IDOCK:   -2.42 KCAL/MOL
REMARK 924 INTRA-LIGAND FREE ENERGY PREDICTED BY IDOCK:   -0.73 KCAL/MOL
REMARK 927      BINDING AFFINITY PREDICTED BY RF-SCORE:    0.00 PKD
ROOT
HETATM    1  C   UNL     1      -6.086   8.906  68.086  1.00  0.00    -0.050 C  
HETATM    2  C   UNL     1      -7.469   8.344  67.735  1.00  0.00    -0.098 C  
ENDROOT
BRANCH   2   3
HETATM    3  C   UNL     1      -7.340   6.801  67.648  1.00  0.00    -0.096 C  
HETATM    4  O   UNL     1      -6.463   6.181  68.256  1.00  0.00    -0.044 OA 
BRANCH   3   5
HETATM    5  C   UNL     1      -8.316   5.992  66.845  1.00  0.00    -0.105 A  
HETATM    6  C   UNL     1      -7.853   5.422  65.646  1.00  0.00    -0.100 A  
HETATM    7  C   UNL     1      -8.722   4.713  64.819  1.00  0.00    -0.150 A  
HETATM    8  C   UNL     1     -10.062   4.567  65.167  1.00  0.00    -0.147 A  
HETATM    9 CL   UNL     1      -8.138   4.022  63.357  1.00  0.00    -0.087 Cl 
HETATM   10  C   UNL     1     -10.525   5.101  66.369  1.00  0.00    -0.356 A  
HETATM   11  C   UNL     1      -9.653   5.797  67.215  1.00  0.00    -0.122 A  
ENDBRANCH   3   5
ENDBRANCH   2   3
BRANCH   2  12
HETATM   12  N   UNL     1      -7.981   8.883  66.453  1.00  0.00    -0.102 NA 
HETATM   13  H   UNL     1      -7.558   8.604  65.567  1.00  0.00     0.000 HD 
HETATM   14  C   UNL     1      -9.115   9.832  66.476  1.00  0.00    -0.153 C  
HETATM   15  C   UNL     1      -8.651  11.259  66.807  1.00  0.00    -0.159 C  
HETATM   16  C   UNL     1     -10.251   9.410  67.417  1.00  0.00    -0.298 C  
HETATM   17  C   UNL     1      -9.684   9.877  65.038  1.00  0.00    -0.359 C  
ENDBRANCH   2  12
TORSDOF 3
ENDMDL
MODEL      264
REMARK 921   NORMALIZED FREE ENERGY PREDICTED BY IDOCK:   -2.27 KCAL/MOL
REMARK 922        TOTAL FREE ENERGY PREDICTED BY IDOCK:   -3.14 KCAL/MOL
REMARK 923 INTER-LIGAND FREE ENERGY PREDICTED BY IDOCK:   -2.72 KCAL/MOL
REMARK 924 INTRA-LIGAND FREE ENERGY PREDICTED BY IDOCK:   -0.42 KCAL/MOL
REMARK 927      BINDING AFFINITY PREDICTED BY RF-SCORE:    0.00 PKD
ROOT
HETATM    1  C   UNL     1      -6.388   4.791  72.452  1.00  0.00    -0.033 C  
HETATM    2  C   UNL     1      -7.885   5.090  72.313  1.00  0.00    -0.100 C  
ENDROOT
BRANCH   2   3
HETATM    3  C   UNL     1      -8.124   6.535  72.822  1.00  0.00    -0.106 C  
HETATM    4  O   UNL     1      -8.056   6.829  74.018  1.00  0.00    -0.115 OA 
BRANCH   3   5
HETATM    5  C   UNL     1      -8.410   7.652  71.859  1.00  0.00    -0.125 A  
HETATM    6  C   UNL     1      -9.681   8.249  71.919  1.00  0.00    -0.299 A  
HETATM    7  C   UNL     1     -10.036   9.246  71.013  1.00  0.00    -0.303 A  
HETATM    8  C   UNL     1      -9.138   9.659  70.033  1.00  0.00    -0.269 A  
HETATM    9 CL   UNL     1     -11.596   9.965  71.102  1.00  0.00    -0.446 Cl 
HETATM   10  C   UNL     1      -7.864   9.096  69.985  1.00  0.00    -0.099 A  
HETATM   11  C   UNL     1      -7.492   8.108  70.905  1.00  0.00    -0.061 A  
ENDBRANCH   3   5
ENDBRANCH   2   3
BRANCH   2  12
HETATM   12  N   UNL     1      -8.718   4.136  73.084  1.00  0.00    -0.096 NA 
HETATM   13  H   UNL     1      -8.412   3.802  73.998  1.00  0.00     0.000 HD 
HETATM   14  C   UNL     1     -10.000   3.676  72.508  1.00  0.00    -0.161 C  
HETATM   15  C   UNL     1      -9.789   2.551  71.484  1.00  0.00    -0.196 C  
HETATM   16  C   UNL     1     -10.838   4.805  71.893  1.00  0.00     0.000 C  
HETATM   17  C   UNL     1     -10.814   3.064  73.673  1.00  0.00    -0.310 C  
ENDBRANCH   2  12
TORSDOF 3
ENDMDL
MODEL      265
REMARK 921   NORMALIZED FREE ENERGY PREDICTED BY IDOCK:   -2.16 KCAL/MOL
REMARK 922        TOTAL FREE ENERGY PREDICTED BY IDOCK:   -3.01 KCAL/MOL
REMARK 923 INTER-LIGAND FREE ENERGY PREDICTED BY IDOCK:   -2.33 KCAL/MOL
REMARK 924 INTRA-LIGAND FREE ENERGY PREDICTED BY IDOCK:   -0.68 KCAL/MOL
REMARK 927      BINDING AFFINITY PREDICTED BY RF-SCORE:    0.00 PKD
ROOT
HETATM    1  C   UNL     1     -10.650   8.476  67.412  1.00  0.00    -0.304 C  
HETATM    2  C   UNL     1      -9.552   7.941  66.486  1.00  0.00    -0.212 C  
ENDROOT
BRANCH   2   3
HETATM    3  C   UNL     1      -8.968   6.662  67.141  1.00  0.00    -0.118 C  
HETATM    4  O   UNL     1      -8.900   6.524  68.365  1.00  0.00    -0.124 OA 
BRANCH   3   5
HETATM    5  C   UNL     1      -8.499   5.512  66.297  1.00  0.00    -0.122 A  
HETATM    6  C   UNL     1      -9.467   4.820  65.549  1.00  0.00    -0.170 A  
HETATM    7  C   UNL     1      -9.112   3.704  64.795  1.00  0.00    -0.134 A  
HETATM    8  C   UNL     1      -7.794   3.256  64.778  1.00  0.00    -0.078 A  
HETATM    9 CL   UNL     1     -10.311   2.870  63.885  1.00  0.00    -0.168 Cl 
HETATM   10  C   UNL     1      -6.820   3.954  65.491  1.00  0.00    -0.057 A  
HETATM   11  C   UNL     1      -7.166   5.088  66.235  1.00  0.00    -0.077 A  
ENDBRANCH   3   5
ENDBRANCH   2   3
BRANCH   2  12
HETATM   12  N   UNL     1      -8.474   8.935  66.266  1.00  0.00    -0.119 NA 
HETATM   13  H   UNL     1      -7.952   9.316  67.055  1.00  0.00     0.000 HD 
HETATM   14  C   UNL     1      -8.167   9.366  64.885  1.00  0.00    -0.142 C  
HETATM   15  C   UNL     1      -9.155  10.436  64.394  1.00  0.00    -0.267 C  
HETATM   16  C   UNL     1      -8.095   8.207  63.881  1.00  0.00    -0.114 C  
HETATM   17  C   UNL     1      -6.775  10.039  64.931  1.00  0.00    -0.126 C  
ENDBRANCH   2  12
TORSDOF 3
ENDMDL
MODEL      266
REMARK 921   NORMALIZED FREE ENERGY PREDICTED BY IDOCK:   -2.13 KCAL/MOL
REMARK 922        TOTAL FREE ENERGY PREDICTED BY IDOCK:   -2.97 KCAL/MOL
REMARK 923 INTER-LIGAND FREE ENERGY PREDICTED BY IDOCK:   -4.05 KCAL/MOL
REMARK 924 INTRA-LIGAND FREE ENERGY PREDICTED BY IDOCK:    1.08 KCAL/MOL
REMARK 927      BINDING AFFINITY PREDICTED BY RF-SCORE:    0.00 PKD
ROOT
HETATM    1  C   UNL     1      -9.127  14.992  68.879  1.00  0.00    -0.202 C  
HETATM    2  C   UNL     1      -9.078  13.594  68.252  1.00  0.00    -0.193 C  
ENDROOT
BRANCH   2   3
HETATM    3  C   UNL     1      -9.334  13.753  66.730  1.00  0.00    -0.266 C  
HETATM    4  O   UNL     1      -9.301  14.852  66.171  1.00  0.00    -0.292 OA 
BRANCH   3   5
HETATM    5  C   UNL     1      -9.592  12.554  65.864  1.00  0.00    -0.174 A  
HETATM    6  C   UNL     1      -8.792  11.418  66.078  1.00  0.00    -0.177 A  
HETATM    7  C   UNL     1      -8.934  10.292  65.269  1.00  0.00    -0.186 A  
HETATM    8  C   UNL     1      -9.864  10.283  64.233  1.00  0.00    -0.357 A  
HETATM    9 CL   UNL     1      -7.948   8.910  65.545  1.00  0.00    -0.103 Cl 
HETATM   10  C   UNL     1     -10.684  11.393  64.033  1.00  0.00    -0.450 A  
HETATM   11  C   UNL     1     -10.562  12.519  64.855  1.00  0.00    -0.330 A  
ENDBRANCH   3   5
ENDBRANCH   2   3
BRANCH   2  12
HETATM   12  N   UNL     1     -10.086  12.681  68.842  1.00  0.00    -0.425 NA 
HETATM   13  H   UNL     1      -9.861  11.701  69.012  1.00  0.00     0.000 HD 
HETATM   14  C   UNL     1     -11.424  13.213  69.180  1.00  0.00    -0.305 C  
HETATM   15  C   UNL     1     -12.329  13.296  67.942  1.00  0.00     0.067 C  
HETATM   16  C   UNL     1     -11.383  14.568  69.900  1.00  0.00    -0.288 C  
HETATM   17  C   UNL     1     -12.078  12.188  70.137  1.00  0.00    -0.368 C  
ENDBRANCH   2  12
TORSDOF 3
ENDMDL
MODEL      267
REMARK 921   NORMALIZED FREE ENERGY PREDICTED BY IDOCK:   -2.10 KCAL/MOL
REMARK 922        TOTAL FREE ENERGY PREDICTED BY IDOCK:   -2.93 KCAL/MOL
REMARK 923 INTER-LIGAND FREE ENERGY PREDICTED BY IDOCK:   -2.75 KCAL/MOL
REMARK 924 INTRA-LIGAND FREE ENERGY PREDICTED BY IDOCK:   -0.18 KCAL/MOL
REMARK 927      BINDING AFFINITY PREDICTED BY RF-SCORE:    0.00 PKD
ROOT
HETATM    1  C   UNL     1     -10.171  13.312  69.060  1.00  0.00     0.071 C  
HETATM    2  C   UNL     1      -9.156  13.245  67.913  1.00  0.00    -0.203 C  
ENDROOT
BRANCH   2   3
HETATM    3  C   UNL     1      -7.957  12.387  68.396  1.00  0.00    -0.149 C  
HETATM    4  O   UNL     1      -6.987  12.883  68.974  1.00  0.00    -0.101 OA 
BRANCH   3   5
HETATM    5  C   UNL     1      -7.956  10.897  68.215  1.00  0.00    -0.121 A  
HETATM    6  C   UNL     1      -9.101  10.313  67.644  1.00  0.00    -0.144 A  
HETATM    7  C   UNL     1      -9.194   8.930  67.506  1.00  0.00    -0.136 A  
HETATM    8  C   UNL     1      -8.156   8.108  67.937  1.00  0.00    -0.128 A  
HETATM    9 CL   UNL     1     -10.602   8.233  66.805  1.00  0.00    -0.332 Cl 
HETATM   10  C   UNL     1      -7.003   8.678  68.475  1.00  0.00    -0.065 A  
HETATM   11  C   UNL     1      -6.894  10.069  68.598  1.00  0.00    -0.054 A  
ENDBRANCH   3   5
ENDBRANCH   2   3
BRANCH   2  12
HETATM   12  N   UNL     1      -8.685  14.590  67.505  1.00  0.00    -0.177 NA 
HETATM   13  H   UNL     1      -7.792  14.951  67.844  1.00  0.00     0.000 HD 
HETATM   14  C   UNL     1      -9.528  15.402  66.601  1.00  0.00    -0.259 C  
HETATM   15  C   UNL     1     -10.658  16.108  67.366  1.00  0.00    -0.311 C  
HETATM   16  C   UNL     1     -10.099  14.610  65.418  1.00  0.00    -0.403 C  
HETATM   17  C   UNL     1      -8.619  16.516  66.030  1.00  0.00    -0.241 C  
ENDBRANCH   2  12
TORSDOF 3
ENDMDL
MODEL      268
REMARK 921   NORMALIZED FREE ENERGY PREDICTED BY IDOCK:   -1.98 KCAL/MOL
REMARK 922        TOTAL FREE ENERGY PREDICTED BY IDOCK:   -2.79 KCAL/MOL
REMARK 923 INTER-LIGAND FREE ENERGY PREDICTED BY IDOCK:   -3.86 KCAL/MOL
REMARK 924 INTRA-LIGAND FREE ENERGY PREDICTED BY IDOCK:    1.07 KCAL/MOL
REMARK 927      BINDING AFFINITY PREDICTED BY RF-SCORE:    0.00 PKD
ROOT
HETATM    1  C   UNL     1      -8.663  17.710  69.167  1.00  0.00     0.125 C  
HETATM    2  C   UNL     1     -10.195  17.648  69.164  1.00  0.00    -0.238 C  
ENDROOT
BRANCH   2   3
HETATM    3  C   UNL     1     -10.606  16.212  69.582  1.00  0.00    -0.311 C  
HETATM    4  O   UNL     1     -11.274  15.990  70.595  1.00  0.00    -0.354 OA 
BRANCH   3   5
HETATM    5  C   UNL     1     -10.238  15.029  68.735  1.00  0.00    -0.235 A  
HETATM    6  C   UNL     1      -8.878  14.678  68.670  1.00  0.00    -0.183 A  
HETATM    7  C   UNL     1      -8.457  13.631  67.852  1.00  0.00    -0.177 A  
HETATM    8  C   UNL     1      -9.378  12.924  67.084  1.00  0.00    -0.229 A  
HETATM    9 CL   UNL     1      -6.789  13.215  67.785  1.00  0.00    -0.133 Cl 
HETATM   10  C   UNL     1     -10.733  13.243  67.166  1.00  0.00    -0.264 A  
HETATM   11  C   UNL     1     -11.166  14.280  68.001  1.00  0.00    -0.300 A  
ENDBRANCH   3   5
ENDBRANCH   2   3
BRANCH   2  12
HETATM   12  N   UNL     1     -10.764  17.970  67.833  1.00  0.00    -0.372 NA 
HETATM   13  H   UNL     1     -11.761  17.851  67.654  1.00  0.00     0.000 HD 
HETATM   14  C   UNL     1      -9.864  18.467  66.770  1.00  0.00    -0.342 C  
HETATM   15  C   UNL     1      -9.107  17.318  66.087  1.00  0.00    -0.193 C  
HETATM   16  C   UNL     1      -8.880  19.542  67.250  1.00  0.00    -0.358 C  
HETATM   17  C   UNL     1     -10.769  19.104  65.688  1.00  0.00    -0.297 C  
ENDBRANCH   2  12
TORSDOF 3
ENDMDL
MODEL      269
REMARK 921   NORMALIZED FREE ENERGY PREDICTED BY IDOCK:   -1.91 KCAL/MOL
REMARK 922        TOTAL FREE ENERGY PREDICTED BY IDOCK:   -2.71 KCAL/MOL
REMARK 923 INTER-LIGAND FREE ENERGY PREDICTED BY IDOCK:   -2.52 KCAL/MOL
REMARK 924 INTRA-LIGAND FREE ENERGY PREDICTED BY IDOCK:   -0.19 KCAL/MOL
REMARK 927      BINDING AFFINITY PREDICTED BY RF-SCORE:    0.00 PKD
ROOT
HETATM    1  C   UNL     1     -11.337   8.176  71.067  1.00  0.00    -0.293 C  
HETATM    2  C   UNL     1     -10.476   7.724  69.882  1.00  0.00    -0.232 C  
ENDROOT
BRANCH   2   3
HETATM    3  C   UNL     1     -10.078   6.245  70.128  1.00  0.00    -0.179 C  
HETATM    4  O   UNL     1     -10.463   5.619  71.118  1.00  0.00    -0.221 OA 
BRANCH   3   5
HETATM    5  C   UNL     1      -9.232   5.501  69.136  1.00  0.00    -0.142 A  
HETATM    6  C   UNL     1      -9.384   4.105  69.074  1.00  0.00    -0.232 A  
HETATM    7  C   UNL     1      -8.586   3.345  68.222  1.00  0.00    -0.094 A  
HETATM    8  C   UNL     1      -7.623   3.958  67.425  1.00  0.00    -0.072 A  
HETATM    9 CL   UNL     1      -8.785   1.637  68.160  1.00  0.00    -0.098 Cl 
HETATM   10  C   UNL     1      -7.487   5.346  67.454  1.00  0.00    -0.084 A  
HETATM   11  C   UNL     1      -8.299   6.118  68.293  1.00  0.00    -0.114 A  
ENDBRANCH   3   5
ENDBRANCH   2   3
BRANCH   2  12
HETATM   12  N   UNL     1      -9.260   8.557  69.725  1.00  0.00    -0.155 NA 
HETATM   13  H   UNL     1      -8.431   8.376  70.293  1.00  0.00     0.000 HD 
HETATM   14  C   UNL     1      -9.266   9.656  68.735  1.00  0.00    -0.141 C  
HETATM   15  C   UNL     1      -9.966  10.908  69.285  1.00  0.00    -0.137 C  
HETATM   16  C   UNL     1      -9.869   9.259  67.381  1.00  0.00    -0.229 C  
HETATM   17  C   UNL     1      -7.787  10.045  68.498  1.00  0.00    -0.093 C  
ENDBRANCH   2  12
TORSDOF 3
ENDMDL
MODEL      270
REMARK 921   NORMALIZED FREE ENERGY PREDICTED BY IDOCK:   -1.82 KCAL/MOL
REMARK 922        TOTAL FREE ENERGY PREDICTED BY IDOCK:   -2.61 KCAL/MOL
REMARK 923 INTER-LIGAND FREE ENERGY PREDICTED BY IDOCK:   -3.30 KCAL/MOL
REMARK 924 INTRA-LIGAND FREE ENERGY PREDICTED BY IDOCK:    0.70 KCAL/MOL
REMARK 927      BINDING AFFINITY PREDICTED BY RF-SCORE:    0.00 PKD
ROOT
HETATM    1  C   UNL     1      -8.629   8.165  69.588  1.00  0.00    -0.131 C  
HETATM    2  C   UNL     1     -10.020   8.274  68.952  1.00  0.00    -0.186 C  
ENDROOT
BRANCH   2   3
HETATM    3  C   UNL     1     -10.029   9.543  68.059  1.00  0.00    -0.167 C  
HETATM    4  O   UNL     1     -10.987  10.320  68.034  1.00  0.00    -0.263 OA 
BRANCH   3   5
HETATM    5  C   UNL     1      -8.839   9.898  67.216  1.00  0.00    -0.138 A  
HETATM    6  C   UNL     1      -9.004   9.874  65.820  1.00  0.00    -0.189 A  
HETATM    7  C   UNL     1      -7.925  10.130  64.977  1.00  0.00    -0.146 A  
HETATM    8  C   UNL     1      -6.668  10.407  65.507  1.00  0.00    -0.121 A  
HETATM    9 CL   UNL     1      -8.146  10.096  63.271  1.00  0.00    -0.155 Cl 
HETATM   10  C   UNL     1      -6.500  10.465  66.890  1.00  0.00    -0.076 A  
HETATM   11  C   UNL     1      -7.584  10.229  67.744  1.00  0.00    -0.089 A  
ENDBRANCH   3   5
ENDBRANCH   2   3
BRANCH   2  12
HETATM   12  N   UNL     1     -11.094   8.363  69.970  1.00  0.00    -0.394 NA 
HETATM   13  H   UNL     1     -11.754   9.141  69.961  1.00  0.00     0.000 HD 
HETATM   14  C   UNL     1     -11.195   7.306  70.999  1.00  0.00    -0.266 C  
HETATM   15  C   UNL     1     -10.192   7.533  72.142  1.00  0.00    -0.238 C  
HETATM   16  C   UNL     1     -11.050   5.885  70.438  1.00  0.00    -0.353 C  
HETATM   17  C   UNL     1     -12.606   7.428  71.621  1.00  0.00    -0.391 C  
ENDBRANCH   2  12
TORSDOF 3
ENDMDL
MODEL      271
REMARK 921   NORMALIZED FREE ENERGY PREDICTED BY IDOCK:   -1.81 KCAL/MOL
REMARK 922        TOTAL FREE ENERGY PREDICTED BY IDOCK:   -2.60 KCAL/MOL
REMARK 923 INTER-LIGAND FREE ENERGY PREDICTED BY IDOCK:   -2.28 KCAL/MOL
REMARK 924 INTRA-LIGAND FREE ENERGY PREDICTED BY IDOCK:   -0.32 KCAL/MOL
REMARK 927      BINDING AFFINITY PREDICTED BY RF-SCORE:    0.00 PKD
ROOT
HETATM    1  C   UNL     1     -10.150   7.702  70.362  1.00  0.00    -0.190 C  
HETATM    2  C   UNL     1      -9.171   6.898  69.499  1.00  0.00    -0.148 C  
ENDROOT
BRANCH   2   3
HETATM    3  C   UNL     1      -9.411   5.394  69.795  1.00  0.00    -0.142 C  
HETATM    4  O   UNL     1      -9.716   4.988  70.919  1.00  0.00    -0.167 OA 
BRANCH   3   5
HETATM    5  C   UNL     1      -9.320   4.371  68.700  1.00  0.00    -0.206 A  
HETATM    6  C   UNL     1      -9.233   4.844  67.379  1.00  0.00    -0.136 A  
HETATM    7  C   UNL     1      -9.211   3.951  66.309  1.00  0.00    -0.163 A  
HETATM    8  C   UNL     1      -9.282   2.579  66.536  1.00  0.00    -0.059 A  
HETATM    9 CL   UNL     1      -9.103   4.547  64.700  1.00  0.00    -0.152 Cl 
HETATM   10  C   UNL     1      -9.337   2.098  67.844  1.00  0.00    -0.223 A  
HETATM   11  C   UNL     1      -9.339   2.989  68.925  1.00  0.00    -0.228 A  
ENDBRANCH   3   5
ENDBRANCH   2   3
BRANCH   2  12
HETATM   12  N   UNL     1      -7.759   7.251  69.781  1.00  0.00    -0.105 NA 
HETATM   13  H   UNL     1      -7.184   6.654  70.375  1.00  0.00     0.000 HD 
HETATM   14  C   UNL     1      -7.197   8.484  69.188  1.00  0.00    -0.068 C  
HETATM   15  C   UNL     1      -7.594   9.731  69.993  1.00  0.00    -0.169 C  
HETATM   16  C   UNL     1      -7.552   8.671  67.707  1.00  0.00    -0.098 C  
HETATM   17  C   UNL     1      -5.658   8.363  69.293  1.00  0.00    -0.031 C  
ENDBRANCH   2  12
TORSDOF 3
ENDMDL
MODEL      272
REMARK 921   NORMALIZED FREE ENERGY PREDICTED BY IDOCK:   -1.75 KCAL/MOL
REMARK 922        TOTAL FREE ENERGY PREDICTED BY IDOCK:   -2.53 KCAL/MOL
REMARK 923 INTER-LIGAND FREE ENERGY PREDICTED BY IDOCK:   -3.40 KCAL/MOL
REMARK 924 INTRA-LIGAND FREE ENERGY PREDICTED BY IDOCK:    0.87 KCAL/MOL
REMARK 927      BINDING AFFINITY PREDICTED BY RF-SCORE:    0.00 PKD
ROOT
HETATM    1  C   UNL     1      -7.491  13.280  67.887  1.00  0.00    -0.143 C  
HETATM    2  C   UNL     1      -8.607  13.147  66.844  1.00  0.00    -0.109 C  
ENDROOT
BRANCH   2   3
HETATM    3  C   UNL     1      -9.903  13.728  67.466  1.00  0.00    -0.230 C  
HETATM    4  O   UNL     1     -10.392  14.795  67.085  1.00  0.00    -0.252 OA 
BRANCH   3   5
HETATM    5  C   UNL     1     -10.643  12.982  68.538  1.00  0.00    -0.274 A  
HETATM    6  C   UNL     1     -10.355  11.615  68.691  1.00  0.00    -0.229 A  
HETATM    7  C   UNL     1     -11.050  10.847  69.623  1.00  0.00    -0.266 A  
HETATM    8  C   UNL     1     -12.043  11.424  70.410  1.00  0.00    -0.473 A  
HETATM    9 CL   UNL     1     -10.684   9.175  69.797  1.00  0.00    -0.235 Cl 
HETATM   10  C   UNL     1     -12.314  12.786  70.289  1.00  0.00    -0.277 A  
HETATM   11  C   UNL     1     -11.606  13.568  69.369  1.00  0.00    -0.369 A  
ENDBRANCH   3   5
ENDBRANCH   2   3
BRANCH   2  12
HETATM   12  N   UNL     1      -8.827  11.738  66.438  1.00  0.00    -0.249 NA 
HETATM   13  H   UNL     1      -8.470  10.972  67.011  1.00  0.00     0.000 HD 
HETATM   14  C   UNL     1      -9.570  11.459  65.191  1.00  0.00    -0.229 C  
HETATM   15  C   UNL     1      -8.670  11.598  63.953  1.00  0.00     0.643 C  
HETATM   16  C   UNL     1     -10.837  12.308  65.027  1.00  0.00    -0.337 C  
HETATM   17  C   UNL     1     -10.002   9.974  65.256  1.00  0.00    -0.368 C  
ENDBRANCH   2  12
TORSDOF 3
ENDMDL
MODEL      273
REMARK 921   NORMALIZED FREE ENERGY PREDICTED BY IDOCK:   -1.55 KCAL/MOL
REMARK 922        TOTAL FREE ENERGY PREDICTED BY IDOCK:   -2.29 KCAL/MOL
REMARK 923 INTER-LIGAND FREE ENERGY PREDICTED BY IDOCK:   -2.40 KCAL/MOL
REMARK 924 INTRA-LIGAND FREE ENERGY PREDICTED BY IDOCK:    0.11 KCAL/MOL
REMARK 927      BINDING AFFINITY PREDICTED BY RF-SCORE:    0.00 PKD
ROOT
HETATM    1  C   UNL     1      -6.199  13.220  68.001  1.00  0.00    -0.129 C  
HETATM    2  C   UNL     1      -7.639  12.696  68.040  1.00  0.00    -0.132 C  
ENDROOT
BRANCH   2   3
HETATM    3  C   UNL     1      -7.670  11.348  67.274  1.00  0.00    -0.145 C  
HETATM    4  O   UNL     1      -7.009  11.161  66.249  1.00  0.00    -0.123 OA 
BRANCH   3   5
HETATM    5  C   UNL     1      -8.481  10.192  67.783  1.00  0.00    -0.114 A  
HETATM    6  C   UNL     1      -7.789   9.020  68.135  1.00  0.00    -0.100 A  
HETATM    7  C   UNL     1      -8.485   7.888  68.554  1.00  0.00    -0.128 A  
HETATM    8  C   UNL     1      -9.875   7.902  68.624  1.00  0.00    -0.177 A  
HETATM    9 CL   UNL     1      -7.621   6.463  68.981  1.00  0.00    -0.098 Cl 
HETATM   10  C   UNL     1     -10.570   9.069  68.308  1.00  0.00    -0.213 A  
HETATM   11  C   UNL     1      -9.876  10.217  67.905  1.00  0.00    -0.181 A  
ENDBRANCH   3   5
ENDBRANCH   2   3
BRANCH   2  12
HETATM   12  N   UNL     1      -8.596  13.649  67.428  1.00  0.00    -0.198 NA 
HETATM   13  H   UNL     1      -9.183  13.362  66.645  1.00  0.00     0.000 HD 
HETATM   14  C   UNL     1      -8.686  15.022  67.970  1.00  0.00    -0.159 C  
HETATM   15  C   UNL     1      -7.560  15.918  67.430  1.00  0.00    -0.208 C  
HETATM   16  C   UNL     1      -8.721  15.077  69.503  1.00  0.00    -0.062 C  
HETATM   17  C   UNL     1     -10.014  15.619  67.445  1.00  0.00    -0.232 C  
ENDBRANCH   2  12
TORSDOF 3
ENDMDL
MODEL      274
REMARK 921   NORMALIZED FREE ENERGY PREDICTED BY IDOCK:   -1.24 KCAL/MOL
REMARK 922        TOTAL FREE ENERGY PREDICTED BY IDOCK:   -1.93 KCAL/MOL
REMARK 923 INTER-LIGAND FREE ENERGY PREDICTED BY IDOCK:   -3.08 KCAL/MOL
REMARK 924 INTRA-LIGAND FREE ENERGY PREDICTED BY IDOCK:    1.15 KCAL/MOL
REMARK 927      BINDING AFFINITY PREDICTED BY RF-SCORE:    0.00 PKD
ROOT
HETATM    1  C   UNL     1      -6.902  11.629  67.917  1.00  0.00    -0.074 C  
HETATM    2  C   UNL     1      -7.587  11.247  69.234  1.00  0.00    -0.019 C  
ENDROOT
BRANCH   2   3
HETATM    3  C   UNL     1      -7.605   9.699  69.322  1.00  0.00    -0.091 C  
HETATM    4  O   UNL     1      -7.251   8.984  68.381  1.00  0.00    -0.075 OA 
BRANCH   3   5
HETATM    5  C   UNL     1      -8.019   9.005  70.588  1.00  0.00    -0.159 A  
HETATM    6  C   UNL     1      -9.387   9.010  70.910  1.00  0.00    -0.326 A  
HETATM    7  C   UNL     1      -9.833   8.441  72.102  1.00  0.00    -0.302 A  
HETATM    8  C   UNL     1      -8.928   7.868  72.990  1.00  0.00    -0.286 A  
HETATM    9 CL   UNL     1     -11.511   8.456  72.480  1.00  0.00    -0.447 Cl 
HETATM   10  C   UNL     1      -7.573   7.829  72.665  1.00  0.00    -0.123 A  
HETATM   11  C   UNL     1      -7.120   8.380  71.460  1.00  0.00    -0.087 A  
ENDBRANCH   3   5
ENDBRANCH   2   3
BRANCH   2  12
HETATM   12  N   UNL     1      -8.970  11.775  69.317  1.00  0.00    -0.142 NA 
HETATM   13  H   UNL     1      -9.347  12.103  70.207  1.00  0.00     0.000 HD 
HETATM   14  C   UNL     1      -9.795  11.820  68.091  1.00  0.00    -0.190 C  
HETATM   15  C   UNL     1     -10.415  10.449  67.777  1.00  0.00    -0.268 C  
HETATM   16  C   UNL     1      -9.047  12.359  66.865  1.00  0.00    -0.211 C  
HETATM   17  C   UNL     1     -10.974  12.779  68.385  1.00  0.00    -0.281 C  
ENDBRANCH   2  12
TORSDOF 3
ENDMDL
MODEL      275
REMARK 921   NORMALIZED FREE ENERGY PREDICTED BY IDOCK:   -1.23 KCAL/MOL
REMARK 922        TOTAL FREE ENERGY PREDICTED BY IDOCK:   -1.91 KCAL/MOL
REMARK 923 INTER-LIGAND FREE ENERGY PREDICTED BY IDOCK:   -1.31 KCAL/MOL
REMARK 924 INTRA-LIGAND FREE ENERGY PREDICTED BY IDOCK:   -0.61 KCAL/MOL
REMARK 927      BINDING AFFINITY PREDICTED BY RF-SCORE:    0.00 PKD
ROOT
HETATM    1  C   UNL     1      -8.849   7.559  66.945  1.00  0.00    -0.145 C  
HETATM    2  C   UNL     1      -8.108   8.608  67.783  1.00  0.00    -0.107 C  
ENDROOT
BRANCH   2   3
HETATM    3  C   UNL     1      -8.590   8.462  69.250  1.00  0.00    -0.130 C  
HETATM    4  O   UNL     1      -9.786   8.390  69.543  1.00  0.00    -0.173 OA 
BRANCH   3   5
HETATM    5  C   UNL     1      -7.603   8.358  70.377  1.00  0.00    -0.072 A  
HETATM    6  C   UNL     1      -8.083   8.576  71.680  1.00  0.00    -0.195 A  
HETATM    7  C   UNL     1      -7.210   8.558  72.766  1.00  0.00    -0.009 A  
HETATM    8  C   UNL     1      -5.850   8.332  72.572  1.00  0.00    -0.053 A  
HETATM    9 CL   UNL     1      -7.815   8.826  74.353  1.00  0.00    -0.055 Cl 
HETATM   10  C   UNL     1      -5.368   8.084  71.288  1.00  0.00    -0.033 A  
HETATM   11  C   UNL     1      -6.243   8.079  70.194  1.00  0.00    -0.032 A  
ENDBRANCH   3   5
ENDBRANCH   2   3
BRANCH   2  12
HETATM   12  N   UNL     1      -8.360   9.987  67.301  1.00  0.00    -0.121 NA 
HETATM   13  H   UNL     1      -9.270  10.427  67.443  1.00  0.00     0.000 HD 
HETATM   14  C   UNL     1      -7.273  10.716  66.611  1.00  0.00    -0.128 C  
HETATM   15  C   UNL     1      -7.161  10.299  65.137  1.00  0.00    -0.121 C  
HETATM   16  C   UNL     1      -5.911  10.589  67.306  1.00  0.00    -0.053 C  
HETATM   17  C   UNL     1      -7.671  12.211  66.617  1.00  0.00     0.122 C  
ENDBRANCH   2  12
TORSDOF 3
ENDMDL
MODEL      276
REMARK 921   NORMALIZED FREE ENERGY PREDICTED BY IDOCK:   -1.15 KCAL/MOL
REMARK 922        TOTAL FREE ENERGY PREDICTED BY IDOCK:   -1.82 KCAL/MOL
REMARK 923 INTER-LIGAND FREE ENERGY PREDICTED BY IDOCK:   -3.05 KCAL/MOL
REMARK 924 INTRA-LIGAND FREE ENERGY PREDICTED BY IDOCK:    1.23 KCAL/MOL
REMARK 927      BINDING AFFINITY PREDICTED BY RF-SCORE:    0.00 PKD
ROOT
HETATM    1  C   UNL     1     -11.207  13.883  69.833  1.00  0.00    -0.093 C  
HETATM    2  C   UNL     1     -11.474  14.036  68.331  1.00  0.00    -0.306 C  
ENDROOT
BRANCH   2   3
HETATM    3  C   UNL     1     -10.351  13.276  67.576  1.00  0.00    -0.229 C  
HETATM    4  O   UNL     1      -9.339  12.865  68.148  1.00  0.00    -0.206 OA 
BRANCH   3   5
HETATM    5  C   UNL     1     -10.479  12.974  66.111  1.00  0.00    -0.289 A  
HETATM    6  C   UNL     1     -11.412  13.724  65.374  1.00  0.00    -0.318 A  
HETATM    7  C   UNL     1     -11.628  13.453  64.024  1.00  0.00    -0.385 A  
HETATM    8  C   UNL     1     -10.928  12.430  63.391  1.00  0.00    -0.442 A  
HETATM    9 CL   UNL     1     -12.773  14.382  63.138  1.00  0.00     1.083 Cl 
HETATM   10  C   UNL     1      -9.978  11.700  64.105  1.00  0.00    -0.311 A  
HETATM   11  C   UNL     1      -9.740  11.981  65.456  1.00  0.00    -0.221 A  
ENDBRANCH   3   5
ENDBRANCH   2   3
BRANCH   2  12
HETATM   12  N   UNL     1     -11.496  15.457  67.909  1.00  0.00    -0.327 NA 
HETATM   13  H   UNL     1     -12.323  15.852  67.461  1.00  0.00     0.000 HD 
HETATM   14  C   UNL     1     -10.300  16.294  68.148  1.00  0.00    -0.277 C  
HETATM   15  C   UNL     1      -9.227  16.067  67.073  1.00  0.00    -0.229 C  
HETATM   16  C   UNL     1      -9.697  16.119  69.548  1.00  0.00    -0.179 C  
HETATM   17  C   UNL     1     -10.757  17.766  68.011  1.00  0.00    -0.317 C  
ENDBRANCH   2  12
TORSDOF 3
ENDMDL
MODEL      277
REMARK 921   NORMALIZED FREE ENERGY PREDICTED BY IDOCK:   -0.65 KCAL/MOL
REMARK 922        TOTAL FREE ENERGY PREDICTED BY IDOCK:   -1.24 KCAL/MOL
REMARK 923 INTER-LIGAND FREE ENERGY PREDICTED BY IDOCK:   -2.69 KCAL/MOL
REMARK 924 INTRA-LIGAND FREE ENERGY PREDICTED BY IDOCK:    1.46 KCAL/MOL
REMARK 927      BINDING AFFINITY PREDICTED BY RF-SCORE:    0.00 PKD
ROOT
HETATM    1  C   UNL     1      -5.458  11.482  67.377  1.00  0.00    -0.067 C  
HETATM    2  C   UNL     1      -6.798  11.124  68.030  1.00  0.00    -0.067 C  
ENDROOT
BRANCH   2   3
HETATM    3  C   UNL     1      -7.839  10.939  66.895  1.00  0.00    -0.135 C  
HETATM    4  O   UNL     1      -7.550  10.404  65.821  1.00  0.00    -0.138 OA 
BRANCH   3   5
HETATM    5  C   UNL     1      -9.265  11.370  67.081  1.00  0.00    -0.170 A  
HETATM    6  C   UNL     1      -9.863  11.106  68.326  1.00  0.00    -0.195 A  
HETATM    7  C   UNL     1     -11.203  11.422  68.546  1.00  0.00    -0.250 A  
HETATM    8  C   UNL     1     -11.967  11.995  67.533  1.00  0.00    -0.144 A  
HETATM    9 CL   UNL     1     -11.918  11.092  70.075  1.00  0.00    -0.411 Cl 
HETATM   10  C   UNL     1     -11.375  12.290  66.306  1.00  0.00    -0.395 A  
HETATM   11  C   UNL     1     -10.024  11.995  66.084  1.00  0.00    -0.254 A  
ENDBRANCH   3   5
ENDBRANCH   2   3
BRANCH   2  12
HETATM   12  N   UNL     1      -7.258  12.173  68.972  1.00  0.00    -0.253 NA 
HETATM   13  H   UNL     1      -7.936  11.953  69.702  1.00  0.00     0.000 HD 
HETATM   14  C   UNL     1      -6.719  13.544  68.837  1.00  0.00    -0.109 C  
HETATM   15  C   UNL     1      -7.438  14.327  67.727  1.00  0.00    -0.175 C  
HETATM   16  C   UNL     1      -5.201  13.589  68.622  1.00  0.00    -0.077 C  
HETATM   17  C   UNL     1      -7.031  14.274  70.165  1.00  0.00     0.146 C  
ENDBRANCH   2  12
TORSDOF 3
ENDMDL
MODEL      278
REMARK 921   NORMALIZED FREE ENERGY PREDICTED BY IDOCK:   -0.37 KCAL/MOL
REMARK 922        TOTAL FREE ENERGY PREDICTED BY IDOCK:   -0.91 KCAL/MOL
REMARK 923 INTER-LIGAND FREE ENERGY PREDICTED BY IDOCK:   -2.24 KCAL/MOL
REMARK 924 INTRA-LIGAND FREE ENERGY PREDICTED BY IDOCK:    1.34 KCAL/MOL
REMARK 927      BINDING AFFINITY PREDICTED BY RF-SCORE:    0.00 PKD
ROOT
HETATM    1  C   UNL     1      -5.454  11.510  67.424  1.00  0.00    -0.067 C  
HETATM    2  C   UNL     1      -6.669  11.247  68.322  1.00  0.00    -0.059 C  
ENDROOT
BRANCH   2   3
HETATM    3  C   UNL     1      -7.832  10.776  67.410  1.00  0.00    -0.111 C  
HETATM    4  O   UNL     1      -8.271  11.474  66.493  1.00  0.00    -0.167 OA 
BRANCH   3   5
HETATM    5  C   UNL     1      -8.445   9.417  67.588  1.00  0.00    -0.119 A  
HETATM    6  C   UNL     1      -9.399   9.265  68.609  1.00  0.00    -0.139 A  
HETATM    7  C   UNL     1      -9.960   8.017  68.871  1.00  0.00    -0.195 A  
HETATM    8  C   UNL     1      -9.578   6.903  68.128  1.00  0.00    -0.124 A  
HETATM    9 CL   UNL     1     -11.126   7.850  70.125  1.00  0.00    -0.238 Cl 
HETATM   10  C   UNL     1      -8.657   7.049  67.091  1.00  0.00    -0.121 A  
HETATM   11  C   UNL     1      -8.104   8.304  66.809  1.00  0.00    -0.103 A  
ENDBRANCH   3   5
ENDBRANCH   2   3
BRANCH   2  12
HETATM   12  N   UNL     1      -7.075  12.455  69.079  1.00  0.00    -0.228 NA 
HETATM   13  H   UNL     1      -7.666  12.373  69.907  1.00  0.00     0.000 HD 
HETATM   14  C   UNL     1      -6.613  13.781  68.615  1.00  0.00    -0.096 C  
HETATM   15  C   UNL     1      -7.474  14.307  67.456  1.00  0.00    -0.201 C  
HETATM   16  C   UNL     1      -5.127  13.815  68.233  1.00  0.00    -0.104 C  
HETATM   17  C   UNL     1      -6.820  14.760  69.796  1.00  0.00    -0.173 C  
ENDBRANCH   2  12
TORSDOF 3
ENDMDL
MODEL      279
REMARK 921   NORMALIZED FREE ENERGY PREDICTED BY IDOCK:   -0.02 KCAL/MOL
REMARK 922        TOTAL FREE ENERGY PREDICTED BY IDOCK:   -0.49 KCAL/MOL
REMARK 923 INTER-LIGAND FREE ENERGY PREDICTED BY IDOCK:   -1.10 KCAL/MOL
REMARK 924 INTRA-LIGAND FREE ENERGY PREDICTED BY IDOCK:    0.60 KCAL/MOL
REMARK 927      BINDING AFFINITY PREDICTED BY RF-SCORE:    0.00 PKD
ROOT
HETATM    1  C   UNL     1      -6.041  12.263  66.742  1.00  0.00     0.247 C  
HETATM    2  C   UNL     1      -6.074  11.976  68.248  1.00  0.00    -0.051 C  
ENDROOT
BRANCH   2   3
HETATM    3  C   UNL     1      -6.495  10.494  68.433  1.00  0.00    -0.055 C  
HETATM    4  O   UNL     1      -6.077   9.806  69.367  1.00  0.00    -0.040 OA 
BRANCH   3   5
HETATM    5  C   UNL     1      -7.473   9.850  67.494  1.00  0.00    -0.091 A  
HETATM    6  C   UNL     1      -8.416  10.685  66.868  1.00  0.00    -0.127 A  
HETATM    7  C   UNL     1      -9.393  10.146  66.035  1.00  0.00    -0.169 A  
HETATM    8  C   UNL     1      -9.453   8.772  65.817  1.00  0.00    -0.239 A  
HETATM    9 CL   UNL     1     -10.538  11.182  65.278  1.00  0.00    -0.325 Cl 
HETATM   10  C   UNL     1      -8.503   7.938  66.407  1.00  0.00    -0.139 A  
HETATM   11  C   UNL     1      -7.505   8.475  67.230  1.00  0.00    -0.093 A  
ENDBRANCH   3   5
ENDBRANCH   2   3
BRANCH   2  12
HETATM   12  N   UNL     1      -7.019  12.865  68.965  1.00  0.00    -0.195 NA 
HETATM   13  H   UNL     1      -7.911  12.506  69.305  1.00  0.00     0.000 HD 
HETATM   14  C   UNL     1      -6.648  14.280  69.181  1.00  0.00    -0.114 C  
HETATM   15  C   UNL     1      -6.911  15.131  67.929  1.00  0.00    -0.167 C  
HETATM   16  C   UNL     1      -5.202  14.471  69.660  1.00  0.00    -0.091 C  
HETATM   17  C   UNL     1      -7.587  14.820  70.286  1.00  0.00     0.550 C  
ENDBRANCH   2  12
TORSDOF 3
ENDMDL
MODEL      280
REMARK 921   NORMALIZED FREE ENERGY PREDICTED BY IDOCK:    0.05 KCAL/MOL
REMARK 922        TOTAL FREE ENERGY PREDICTED BY IDOCK:   -0.41 KCAL/MOL
REMARK 923 INTER-LIGAND FREE ENERGY PREDICTED BY IDOCK:   -1.72 KCAL/MOL
REMARK 924 INTRA-LIGAND FREE ENERGY PREDICTED BY IDOCK:    1.31 KCAL/MOL
REMARK 927      BINDING AFFINITY PREDICTED BY RF-SCORE:    0.00 PKD
ROOT
HETATM    1  C   UNL     1      -5.455  11.499  67.361  1.00  0.00    -0.067 C  
HETATM    2  C   UNL     1      -6.867  11.267  67.910  1.00  0.00    -0.068 C  
ENDROOT
BRANCH   2   3
HETATM    3  C   UNL     1      -7.822  11.109  66.698  1.00  0.00    -0.155 C  
HETATM    4  O   UNL     1      -8.729  11.913  66.468  1.00  0.00    -0.194 OA 
BRANCH   3   5
HETATM    5  C   UNL     1      -7.646   9.981  65.722  1.00  0.00    -0.120 A  
HETATM    6  C   UNL     1      -7.349   8.712  66.248  1.00  0.00    -0.086 A  
HETATM    7  C   UNL     1      -7.110   7.634  65.398  1.00  0.00    -0.063 A  
HETATM    8  C   UNL     1      -7.155   7.803  64.017  1.00  0.00    -0.072 A  
HETATM    9 CL   UNL     1      -6.748   6.087  66.059  1.00  0.00    -0.054 Cl 
HETATM   10  C   UNL     1      -7.480   9.050  63.485  1.00  0.00    -0.103 A  
HETATM   11  C   UNL     1      -7.742  10.133  64.334  1.00  0.00    -0.134 A  
ENDBRANCH   3   5
ENDBRANCH   2   3
BRANCH   2  12
HETATM   12  N   UNL     1      -7.322  12.384  68.772  1.00  0.00    -0.187 NA 
HETATM   13  H   UNL     1      -8.080  12.247  69.441  1.00  0.00     0.000 HD 
HETATM   14  C   UNL     1      -6.662  13.701  68.645  1.00  0.00    -0.100 C  
HETATM   15  C   UNL     1      -7.209  14.496  67.449  1.00  0.00    -0.165 C  
HETATM   16  C   UNL     1      -5.132  13.618  68.574  1.00  0.00    -0.090 C  
HETATM   17  C   UNL     1      -7.033  14.505  69.915  1.00  0.00    -0.063 C  
ENDBRANCH   2  12
TORSDOF 3
ENDMDL
MODEL      281
REMARK 921   NORMALIZED FREE ENERGY PREDICTED BY IDOCK:   15.87 KCAL/MOL
REMARK 922        TOTAL FREE ENERGY PREDICTED BY IDOCK:   18.18 KCAL/MOL
REMARK 923 INTER-LIGAND FREE ENERGY PREDICTED BY IDOCK:   16.18 KCAL/MOL
REMARK 924 INTRA-LIGAND FREE ENERGY PREDICTED BY IDOCK:    2.01 KCAL/MOL
REMARK 927      BINDING AFFINITY PREDICTED BY RF-SCORE:    0.00 PKD
ROOT
HETATM    1  C   UNL     1      -8.867  12.710  70.600  1.00  0.00     7.764 C  
HETATM    2  C   UNL     1      -9.062  14.206  70.323  1.00  0.00     2.304 C  
ENDROOT
BRANCH   2   3
HETATM    3  C   UNL     1     -10.525  14.408  69.849  1.00  0.00     0.245 C  
HETATM    4  O   UNL     1     -10.933  15.493  69.427  1.00  0.00    -0.240 OA 
BRANCH   3   5
HETATM    5  C   UNL     1     -11.497  13.264  69.846  1.00  0.00    -0.170 A  
HETATM    6  C   UNL     1     -11.011  12.001  70.227  1.00  0.00     0.932 A  
HETATM    7  C   UNL     1     -11.842  10.883  70.186  1.00  0.00    -0.353 A  
HETATM    8  C   UNL     1     -13.162  11.003  69.760  1.00  0.00     0.815 A  
HETATM    9 CL   UNL     1     -11.231   9.346  70.655  1.00  0.00    -0.320 Cl 
HETATM   10  C   UNL     1     -13.663  12.256  69.411  1.00  0.00     5.164 A  
HETATM   11  C   UNL     1     -12.840  13.388  69.470  1.00  0.00     0.690 A  
ENDBRANCH   3   5
ENDBRANCH   2   3
BRANCH   2  12
HETATM   12  N   UNL     1      -8.121  14.711  69.294  1.00  0.00    -0.342 NA 
HETATM   13  H   UNL     1      -8.470  15.189  68.463  1.00  0.00     0.000 HD 
HETATM   14  C   UNL     1      -6.669  14.510  69.490  1.00  0.00    -0.151 C  
HETATM   15  C   UNL     1      -6.235  13.092  69.088  1.00  0.00    -0.101 C  
HETATM   16  C   UNL     1      -6.191  14.829  70.913  1.00  0.00     0.036 C  
HETATM   17  C   UNL     1      -5.954  15.481  68.521  1.00  0.00    -0.097 C  
ENDBRANCH   2  12
TORSDOF 3
ENDMDL
