MODEL        1
REMARK 921   NORMALIZED FREE ENERGY PREDICTED BY IDOCK:   -6.75 KCAL/MOL
REMARK 922        TOTAL FREE ENERGY PREDICTED BY IDOCK:  -10.09 KCAL/MOL
REMARK 923 INTER-LIGAND FREE ENERGY PREDICTED BY IDOCK:   -9.11 KCAL/MOL
REMARK 924 INTRA-LIGAND FREE ENERGY PREDICTED BY IDOCK:   -0.97 KCAL/MOL
REMARK 927      BINDING AFFINITY PREDICTED BY RF-SCORE:    0.00 PKD
ROOT
HETATM    1  O   UNL     1     -12.103  15.191  68.246  1.00  0.00    -0.226 OA 
HETATM    2  C   UNL     1     -11.143  15.609  67.602  1.00  0.00    -0.305 C  
HETATM    3  C   UNL     1     -10.015  16.350  68.271  1.00  0.00    -0.243 C  
HETATM    4  C   UNL     1      -9.542  17.573  67.478  1.00  0.00    -0.265 C  
HETATM    5  C   UNL     1      -9.383  17.213  66.001  1.00  0.00    -0.156 C  
HETATM    6  C   UNL     1      -8.191  18.057  68.062  1.00  0.00    -0.261 C  
HETATM    7  C   UNL     1     -10.568  16.454  65.460  1.00  0.00    -0.330 C  
HETATM    8  C   UNL     1      -8.401  19.506  68.478  1.00  0.00    -0.372 C  
HETATM    9  N   UNL     1     -10.944  15.386  66.252  1.00  0.00    -0.311 N  
HETATM   10  C   UNL     1      -9.886  19.594  68.777  1.00  0.00    -0.519 C  
HETATM   11  O   UNL     1     -11.084  16.746  64.385  1.00  0.00    -1.072 OA 
HETATM   12  C   UNL     1     -10.509  18.764  67.665  1.00  0.00    -0.495 C  
ENDROOT
BRANCH   9  13
HETATM   13  C   UNL     1     -11.710  14.323  65.631  1.00  0.00    -0.358 C  
BRANCH  13  14
HETATM   14  C   UNL     1     -10.765  13.349  64.917  1.00  0.00    -0.381 C  
BRANCH  14  15
HETATM   15  C   UNL     1     -10.550  12.058  65.696  1.00  0.00    -0.303 C  
BRANCH  15  16
HETATM   16  C   UNL     1     -11.384  11.972  66.980  1.00  0.00    -0.336 C  
BRANCH  16  17
HETATM   17  N   UNL     1     -10.590  12.125  68.215  1.00  0.00    -0.210 NA 
HETATM   18  C   UNL     1     -11.433  12.100  69.438  1.00  0.00    -0.290 C  
HETATM   19  C   UNL     1     -12.198  10.775  69.647  1.00  0.00    -0.254 C  
HETATM   20  N   UNL     1     -11.274   9.638  69.612  1.00  0.00    -0.189 NA 
HETATM   21  C   UNL     1      -9.615  11.011  68.344  1.00  0.00    -0.181 C  
HETATM   22  C   UNL     1     -10.250   9.619  68.565  1.00  0.00    -0.193 C  
BRANCH  20  23
HETATM   23  C   UNL     1     -11.061   8.970  70.794  1.00  0.00    -0.272 A  
HETATM   24  N   UNL     1     -12.041   8.172  71.258  1.00  0.00    -0.295 NA 
HETATM   25  C   UNL     1     -11.806   7.468  72.378  1.00  0.00    -0.261 A  
HETATM   26  C   UNL     1     -10.633   7.539  73.082  1.00  0.00    -0.442 A  
HETATM   27  C   UNL     1      -9.693   8.383  72.551  1.00  0.00    -0.289 A  
HETATM   28  N   UNL     1      -9.877   9.087  71.420  1.00  0.00    -0.304 NA 
ENDBRANCH  20  23
ENDBRANCH  16  17
ENDBRANCH  15  16
ENDBRANCH  14  15
ENDBRANCH  13  14
ENDBRANCH   9  13
TORSDOF 6
ENDMDL
MODEL        2
REMARK 921   NORMALIZED FREE ENERGY PREDICTED BY IDOCK:   -6.73 KCAL/MOL
REMARK 922        TOTAL FREE ENERGY PREDICTED BY IDOCK:  -10.06 KCAL/MOL
REMARK 923 INTER-LIGAND FREE ENERGY PREDICTED BY IDOCK:   -9.24 KCAL/MOL
REMARK 924 INTRA-LIGAND FREE ENERGY PREDICTED BY IDOCK:   -0.82 KCAL/MOL
REMARK 927      BINDING AFFINITY PREDICTED BY RF-SCORE:    0.00 PKD
ROOT
HETATM    1  O   UNL     1     -12.817  10.660  71.967  1.00  0.00    -0.422 OA 
HETATM    2  C   UNL     1     -12.195   9.794  71.358  1.00  0.00    -0.397 C  
HETATM    3  C   UNL     1     -12.331   8.336  71.712  1.00  0.00    -0.366 C  
HETATM    4  C   UNL     1     -10.993   7.589  71.718  1.00  0.00    -0.268 C  
HETATM    5  C   UNL     1     -10.184   7.948  70.471  1.00  0.00    -0.198 C  
HETATM    6  C   UNL     1     -11.270   6.065  71.759  1.00  0.00    -0.333 C  
HETATM    7  C   UNL     1     -10.147   9.433  70.215  1.00  0.00    -0.240 C  
HETATM    8  C   UNL     1     -10.567   5.538  73.001  1.00  0.00    -0.274 C  
HETATM    9  N   UNL     1     -11.392  10.030  70.257  1.00  0.00    -0.286 N  
HETATM   10  C   UNL     1     -10.527   6.729  73.939  1.00  0.00    -0.356 C  
HETATM   11  O   UNL     1      -9.101  10.013  69.936  1.00  0.00    -0.213 OA 
HETATM   12  C   UNL     1     -10.197   7.887  73.008  1.00  0.00    -0.394 C  
ENDROOT
BRANCH   9  13
HETATM   13  C   UNL     1     -11.556  11.296  69.569  1.00  0.00    -0.328 C  
BRANCH  13  14
HETATM   14  C   UNL     1     -11.898  11.048  68.095  1.00  0.00    -0.195 C  
BRANCH  14  15
HETATM   15  C   UNL     1     -10.780  11.472  67.152  1.00  0.00    -0.294 C  
BRANCH  15  16
HETATM   16  C   UNL     1     -10.832  12.956  66.769  1.00  0.00    -0.267 C  
BRANCH  16  17
HETATM   17  N   UNL     1      -9.728  13.755  67.335  1.00  0.00    -0.230 NA 
HETATM   18  C   UNL     1      -9.151  14.704  66.350  1.00  0.00    -0.209 C  
HETATM   19  C   UNL     1     -10.153  15.763  65.837  1.00  0.00    -0.356 C  
HETATM   20  N   UNL     1     -10.773  16.470  66.961  1.00  0.00    -0.247 NA 
HETATM   21  C   UNL     1     -10.213  14.567  68.481  1.00  0.00    -0.240 C  
HETATM   22  C   UNL     1     -11.224  15.675  68.106  1.00  0.00    -0.345 C  
BRANCH  20  23
HETATM   23  C   UNL     1     -10.433  17.791  67.132  1.00  0.00    -0.335 A  
HETATM   24  N   UNL     1     -10.266  18.551  66.033  1.00  0.00    -0.553 NA 
HETATM   25  C   UNL     1      -9.999  19.856  66.203  1.00  0.00    -0.487 A  
HETATM   26  C   UNL     1      -9.866  20.447  67.432  1.00  0.00    -0.587 A  
HETATM   27  C   UNL     1     -10.038  19.602  68.497  1.00  0.00    -0.453 A  
HETATM   28  N   UNL     1     -10.330  18.295  68.374  1.00  0.00    -0.367 NA 
ENDBRANCH  20  23
ENDBRANCH  16  17
ENDBRANCH  15  16
ENDBRANCH  14  15
ENDBRANCH  13  14
ENDBRANCH   9  13
TORSDOF 6
ENDMDL
MODEL        3
REMARK 921   NORMALIZED FREE ENERGY PREDICTED BY IDOCK:   -6.69 KCAL/MOL
REMARK 922        TOTAL FREE ENERGY PREDICTED BY IDOCK:  -10.01 KCAL/MOL
REMARK 923 INTER-LIGAND FREE ENERGY PREDICTED BY IDOCK:   -9.14 KCAL/MOL
REMARK 924 INTRA-LIGAND FREE ENERGY PREDICTED BY IDOCK:   -0.87 KCAL/MOL
REMARK 927      BINDING AFFINITY PREDICTED BY RF-SCORE:    0.00 PKD
ROOT
HETATM    1  O   UNL     1     -12.714  10.810  71.766  1.00  0.00    -0.413 OA 
HETATM    2  C   UNL     1     -12.089   9.946  71.154  1.00  0.00    -0.374 C  
HETATM    3  C   UNL     1     -12.247   8.485  71.482  1.00  0.00    -0.355 C  
HETATM    4  C   UNL     1     -10.918   7.723  71.502  1.00  0.00    -0.267 C  
HETATM    5  C   UNL     1     -10.081   8.094  70.278  1.00  0.00    -0.192 C  
HETATM    6  C   UNL     1     -11.212   6.202  71.513  1.00  0.00    -0.346 C  
HETATM    7  C   UNL     1     -10.022   9.582  70.046  1.00  0.00    -0.237 C  
HETATM    8  C   UNL     1     -10.539   5.647  72.760  1.00  0.00    -0.266 C  
HETATM    9  N   UNL     1     -11.262  10.191  70.074  1.00  0.00    -0.279 N  
HETATM   10  C   UNL     1     -10.505   6.823  73.718  1.00  0.00    -0.383 C  
HETATM   11  O   UNL     1      -8.965  10.155  69.798  1.00  0.00    -0.199 OA 
HETATM   12  C   UNL     1     -10.144   7.992  72.813  1.00  0.00    -0.378 C  
ENDROOT
BRANCH   9  13
HETATM   13  C   UNL     1     -11.399  11.470  69.404  1.00  0.00    -0.289 C  
BRANCH  13  14
HETATM   14  C   UNL     1     -11.900  11.257  67.971  1.00  0.00    -0.244 C  
BRANCH  14  15
HETATM   15  C   UNL     1     -10.824  11.518  66.925  1.00  0.00    -0.331 C  
BRANCH  15  16
HETATM   16  C   UNL     1     -10.260  12.943  66.969  1.00  0.00    -0.243 C  
BRANCH  16  17
HETATM   17  N   UNL     1     -11.265  13.988  66.689  1.00  0.00    -0.316 NA 
HETATM   18  C   UNL     1     -11.499  14.876  67.856  1.00  0.00    -0.340 C  
HETATM   19  C   UNL     1     -10.251  15.668  68.304  1.00  0.00    -0.223 C  
HETATM   20  N   UNL     1      -9.681  16.409  67.175  1.00  0.00    -0.235 NA 
HETATM   21  C   UNL     1     -10.810  14.857  65.574  1.00  0.00    -0.356 C  
HETATM   22  C   UNL     1      -9.563  15.715  65.890  1.00  0.00    -0.350 C  
BRANCH  20  23
HETATM   23  C   UNL     1      -9.786  17.779  67.210  1.00  0.00    -0.312 A  
HETATM   24  N   UNL     1      -9.820  18.443  66.039  1.00  0.00    -0.525 NA 
HETATM   25  C   UNL     1      -9.989  19.774  66.072  1.00  0.00    -0.447 A  
HETATM   26  C   UNL     1     -10.105  20.492  67.233  1.00  0.00    -0.439 A  
HETATM   27  C   UNL     1     -10.048  19.744  68.380  1.00  0.00    -0.454 A  
HETATM   28  N   UNL     1      -9.903  18.407  68.392  1.00  0.00    -0.351 NA 
ENDBRANCH  20  23
ENDBRANCH  16  17
ENDBRANCH  15  16
ENDBRANCH  14  15
ENDBRANCH  13  14
ENDBRANCH   9  13
TORSDOF 6
ENDMDL
MODEL        4
REMARK 921   NORMALIZED FREE ENERGY PREDICTED BY IDOCK:   -6.54 KCAL/MOL
REMARK 922        TOTAL FREE ENERGY PREDICTED BY IDOCK:   -9.81 KCAL/MOL
REMARK 923 INTER-LIGAND FREE ENERGY PREDICTED BY IDOCK:   -8.94 KCAL/MOL
REMARK 924 INTRA-LIGAND FREE ENERGY PREDICTED BY IDOCK:   -0.87 KCAL/MOL
REMARK 927      BINDING AFFINITY PREDICTED BY RF-SCORE:    0.00 PKD
ROOT
HETATM    1  O   UNL     1     -11.084  16.754  64.345  1.00  0.00    -1.072 OA 
HETATM    2  C   UNL     1     -10.638  16.835  65.487  1.00  0.00    -0.230 C  
HETATM    3  C   UNL     1     -10.420  18.169  66.150  1.00  0.00    -0.377 C  
HETATM    4  C   UNL     1      -9.098  18.252  66.921  1.00  0.00    -0.282 C  
HETATM    5  C   UNL     1      -8.903  16.994  67.767  1.00  0.00    -0.223 C  
HETATM    6  C   UNL     1      -9.122  19.510  67.824  1.00  0.00    -0.384 C  
HETATM    7  C   UNL     1      -9.176  15.729  66.994  1.00  0.00    -0.216 C  
HETATM    8  C   UNL     1      -7.921  20.351  67.416  1.00  0.00    -0.361 C  
HETATM    9  N   UNL     1     -10.373  15.752  66.307  1.00  0.00    -0.297 N  
HETATM   10  C   UNL     1      -7.682  19.976  65.966  1.00  0.00    -0.318 C  
HETATM   11  O   UNL     1      -8.414  14.767  67.044  1.00  0.00    -0.213 OA 
HETATM   12  C   UNL     1      -7.908  18.471  65.960  1.00  0.00    -0.182 C  
ENDROOT
BRANCH   9  13
HETATM   13  C   UNL     1     -10.968  14.480  65.946  1.00  0.00    -0.320 C  
BRANCH  13  14
HETATM   14  C   UNL     1     -12.246  14.253  66.763  1.00  0.00    -0.384 C  
BRANCH  14  15
HETATM   15  C   UNL     1     -11.962  13.961  68.231  1.00  0.00    -0.392 C  
BRANCH  15  16
HETATM   16  C   UNL     1     -11.098  12.714  68.452  1.00  0.00    -0.265 C  
BRANCH  16  17
HETATM   17  N   UNL     1     -11.834  11.445  68.287  1.00  0.00    -0.567 NA 
HETATM   18  C   UNL     1     -10.927  10.282  68.110  1.00  0.00    -0.274 C  
HETATM   19  C   UNL     1      -9.997  10.021  69.316  1.00  0.00    -0.213 C  
HETATM   20  N   UNL     1     -10.779   9.906  70.551  1.00  0.00    -0.306 NA 
HETATM   21  C   UNL     1     -12.660  11.166  69.491  1.00  0.00     0.068 C  
HETATM   22  C   UNL     1     -11.850  10.880  70.777  1.00  0.00    -0.319 C  
BRANCH  20  23
HETATM   23  C   UNL     1     -10.844   8.665  71.136  1.00  0.00    -0.259 A  
HETATM   24  N   UNL     1     -10.625   8.575  72.462  1.00  0.00    -0.303 NA 
HETATM   25  C   UNL     1     -10.753   7.372  73.044  1.00  0.00    -0.364 A  
HETATM   26  C   UNL     1     -11.072   6.231  72.356  1.00  0.00    -0.307 A  
HETATM   27  C   UNL     1     -11.265   6.405  71.011  1.00  0.00    -0.313 A  
HETATM   28  N   UNL     1     -11.171   7.594  70.391  1.00  0.00    -0.264 NA 
ENDBRANCH  20  23
ENDBRANCH  16  17
ENDBRANCH  15  16
ENDBRANCH  14  15
ENDBRANCH  13  14
ENDBRANCH   9  13
TORSDOF 6
ENDMDL
MODEL        5
REMARK 921   NORMALIZED FREE ENERGY PREDICTED BY IDOCK:   -6.50 KCAL/MOL
REMARK 922        TOTAL FREE ENERGY PREDICTED BY IDOCK:   -9.75 KCAL/MOL
REMARK 923 INTER-LIGAND FREE ENERGY PREDICTED BY IDOCK:   -8.79 KCAL/MOL
REMARK 924 INTRA-LIGAND FREE ENERGY PREDICTED BY IDOCK:   -0.97 KCAL/MOL
REMARK 927      BINDING AFFINITY PREDICTED BY RF-SCORE:    0.00 PKD
ROOT
HETATM    1  O   UNL     1      -8.993   8.230  67.211  1.00  0.00    -0.134 OA 
HETATM    2  C   UNL     1      -9.391   8.918  68.148  1.00  0.00    -0.142 C  
HETATM    3  C   UNL     1      -9.143   8.511  69.577  1.00  0.00    -0.150 C  
HETATM    4  C   UNL     1     -10.362   8.719  70.483  1.00  0.00    -0.241 C  
HETATM    5  C   UNL     1     -10.979  10.094  70.229  1.00  0.00    -0.380 C  
HETATM    6  C   UNL     1      -9.914   8.595  71.961  1.00  0.00    -0.399 C  
HETATM    7  C   UNL     1     -11.151  10.387  68.760  1.00  0.00    -0.250 C  
HETATM    8  C   UNL     1     -10.753   7.481  72.569  1.00  0.00    -0.335 C  
HETATM    9  N   UNL     1     -10.013  10.146  68.015  1.00  0.00    -0.144 N  
HETATM   10  C   UNL     1     -11.099   6.591  71.389  1.00  0.00    -0.315 C  
HETATM   11  O   UNL     1     -12.195  10.855  68.314  1.00  0.00    -0.526 OA 
HETATM   12  C   UNL     1     -11.400   7.592  70.283  1.00  0.00    -0.219 C  
ENDROOT
BRANCH   9  13
HETATM   13  C   UNL     1      -9.886  10.823  66.739  1.00  0.00    -0.193 C  
BRANCH  13  14
HETATM   14  C   UNL     1      -9.078  12.115  66.914  1.00  0.00    -0.203 C  
BRANCH  14  15
HETATM   15  C   UNL     1      -9.662  13.286  66.135  1.00  0.00    -0.258 C  
BRANCH  15  16
HETATM   16  C   UNL     1      -9.616  14.614  66.898  1.00  0.00    -0.244 C  
BRANCH  16  17
HETATM   17  N   UNL     1     -10.940  15.242  67.078  1.00  0.00    -0.326 NA 
HETATM   18  C   UNL     1     -11.910  14.339  67.749  1.00  0.00    -0.379 C  
HETATM   19  C   UNL     1     -11.496  13.924  69.178  1.00  0.00    -0.299 C  
HETATM   20  N   UNL     1     -11.215  15.107  69.996  1.00  0.00    -0.261 NA 
HETATM   21  C   UNL     1     -10.826  16.456  67.928  1.00  0.00    -0.328 C  
HETATM   22  C   UNL     1     -10.421  16.182  69.395  1.00  0.00    -0.283 C  
BRANCH  20  23
HETATM   23  C   UNL     1     -12.097  15.390  71.011  1.00  0.00    -0.365 A  
HETATM   24  N   UNL     1     -13.399  15.106  70.818  1.00  0.00    -0.378 NA 
HETATM   25  C   UNL     1     -14.250  15.321  71.835  1.00  0.00    -0.581 A  
HETATM   26  C   UNL     1     -13.865  15.835  73.046  1.00  0.00    -0.499 A  
HETATM   27  C   UNL     1     -12.528  16.108  73.155  1.00  0.00    -0.519 A  
HETATM   28  N   UNL     1     -11.637  15.886  72.173  1.00  0.00    -0.434 NA 
ENDBRANCH  20  23
ENDBRANCH  16  17
ENDBRANCH  15  16
ENDBRANCH  14  15
ENDBRANCH  13  14
ENDBRANCH   9  13
TORSDOF 6
ENDMDL
MODEL        6
REMARK 921   NORMALIZED FREE ENERGY PREDICTED BY IDOCK:   -6.50 KCAL/MOL
REMARK 922        TOTAL FREE ENERGY PREDICTED BY IDOCK:   -9.75 KCAL/MOL
REMARK 923 INTER-LIGAND FREE ENERGY PREDICTED BY IDOCK:   -8.57 KCAL/MOL
REMARK 924 INTRA-LIGAND FREE ENERGY PREDICTED BY IDOCK:   -1.18 KCAL/MOL
REMARK 927      BINDING AFFINITY PREDICTED BY RF-SCORE:    0.00 PKD
ROOT
HETATM    1  O   UNL     1     -12.408  14.121  67.511  1.00  0.00    -0.296 OA 
HETATM    2  C   UNL     1     -11.467  14.617  66.896  1.00  0.00    -0.363 C  
HETATM    3  C   UNL     1     -10.242  15.121  67.614  1.00  0.00    -0.241 C  
HETATM    4  C   UNL     1      -9.734  16.462  67.072  1.00  0.00    -0.253 C  
HETATM    5  C   UNL     1      -9.706  16.435  65.544  1.00  0.00    -0.025 C  
HETATM    6  C   UNL     1      -8.313  16.723  67.632  1.00  0.00    -0.191 C  
HETATM    7  C   UNL     1     -10.979  15.887  64.952  1.00  0.00    -0.411 C  
HETATM    8  C   UNL     1      -8.384  18.050  68.372  1.00  0.00    -0.305 C  
HETATM    9  N   UNL     1     -11.379  14.692  65.518  1.00  0.00    -0.335 N  
HETATM   10  C   UNL     1      -9.833  18.155  68.807  1.00  0.00    -0.362 C  
HETATM   11  O   UNL     1     -11.546  16.443  64.015  1.00  0.00    -1.071 OA 
HETATM   12  C   UNL     1     -10.593  17.634  67.597  1.00  0.00    -0.364 C  
ENDROOT
BRANCH   9  13
HETATM   13  C   UNL     1     -12.264  13.843  64.745  1.00  0.00    -0.415 C  
BRANCH  13  14
HETATM   14  C   UNL     1     -11.442  12.947  63.811  1.00  0.00    -0.519 C  
BRANCH  14  15
HETATM   15  C   UNL     1     -10.124  12.502  64.431  1.00  0.00    -0.284 C  
BRANCH  15  16
HETATM   16  C   UNL     1     -10.110  11.026  64.848  1.00  0.00    -0.300 C  
BRANCH  16  17
HETATM   17  N   UNL     1      -9.119  10.715  65.897  1.00  0.00    -0.173 NA 
HETATM   18  C   UNL     1      -9.372  11.462  67.155  1.00  0.00    -0.172 C  
HETATM   19  C   UNL     1     -10.730  11.139  67.817  1.00  0.00    -0.222 C  
HETATM   20  N   UNL     1     -10.873   9.694  68.016  1.00  0.00    -0.228 NA 
HETATM   21  C   UNL     1      -9.167   9.269  66.240  1.00  0.00    -0.186 C  
HETATM   22  C   UNL     1     -10.478   8.808  66.918  1.00  0.00    -0.249 C  
BRANCH  20  23
HETATM   23  C   UNL     1     -10.848   9.236  69.311  1.00  0.00    -0.152 A  
HETATM   24  N   UNL     1     -11.327  10.040  70.279  1.00  0.00    -0.286 NA 
HETATM   25  C   UNL     1     -11.362   9.567  71.535  1.00  0.00    -0.385 A  
HETATM   26  C   UNL     1     -10.915   8.319  71.884  1.00  0.00    -0.354 A  
HETATM   27  C   UNL     1     -10.431   7.570  70.845  1.00  0.00    -0.213 A  
HETATM   28  N   UNL     1     -10.399   7.995  69.569  1.00  0.00    -0.218 NA 
ENDBRANCH  20  23
ENDBRANCH  16  17
ENDBRANCH  15  16
ENDBRANCH  14  15
ENDBRANCH  13  14
ENDBRANCH   9  13
TORSDOF 6
ENDMDL
MODEL        7
REMARK 921   NORMALIZED FREE ENERGY PREDICTED BY IDOCK:   -6.49 KCAL/MOL
REMARK 922        TOTAL FREE ENERGY PREDICTED BY IDOCK:   -9.74 KCAL/MOL
REMARK 923 INTER-LIGAND FREE ENERGY PREDICTED BY IDOCK:   -8.82 KCAL/MOL
REMARK 924 INTRA-LIGAND FREE ENERGY PREDICTED BY IDOCK:   -0.92 KCAL/MOL
REMARK 927      BINDING AFFINITY PREDICTED BY RF-SCORE:    0.00 PKD
ROOT
HETATM    1  O   UNL     1     -10.554   7.331  67.387  1.00  0.00    -0.251 OA 
HETATM    2  C   UNL     1     -10.385   8.184  68.255  1.00  0.00    -0.197 C  
HETATM    3  C   UNL     1      -9.934   7.810  69.642  1.00  0.00    -0.190 C  
HETATM    4  C   UNL     1     -10.682   8.568  70.745  1.00  0.00    -0.254 C  
HETATM    5  C   UNL     1     -10.766  10.055  70.397  1.00  0.00    -0.369 C  
HETATM    6  C   UNL     1      -9.933   8.370  72.086  1.00  0.00    -0.376 C  
HETATM    7  C   UNL     1     -11.203  10.292  68.974  1.00  0.00    -0.208 C  
HETATM    8  C   UNL     1     -10.937   7.753  73.048  1.00  0.00    -0.442 C  
HETATM    9  N   UNL     1     -10.497   9.547  68.050  1.00  0.00    -0.219 N  
HETATM   10  C   UNL     1     -11.905   7.010  72.146  1.00  0.00    -0.314 C  
HETATM   11  O   UNL     1     -12.065  11.121  68.695  1.00  0.00    -0.556 OA 
HETATM   12  C   UNL     1     -12.086   7.967  70.977  1.00  0.00    -0.246 C  
ENDROOT
BRANCH   9  13
HETATM   13  C   UNL     1     -10.470  10.022  66.680  1.00  0.00    -0.174 C  
BRANCH  13  14
HETATM   14  C   UNL     1      -9.046  10.447  66.304  1.00  0.00    -0.180 C  
BRANCH  14  15
HETATM   15  C   UNL     1      -8.803  11.937  66.508  1.00  0.00    -0.178 C  
BRANCH  15  16
HETATM   16  C   UNL     1      -9.926  12.822  65.954  1.00  0.00    -0.266 C  
BRANCH  16  17
HETATM   17  N   UNL     1     -10.573  13.669  66.975  1.00  0.00    -0.272 NA 
HETATM   18  C   UNL     1      -9.591  14.451  67.769  1.00  0.00    -0.216 C  
HETATM   19  C   UNL     1      -8.757  15.446  66.932  1.00  0.00    -0.254 C  
HETATM   20  N   UNL     1      -9.635  16.324  66.154  1.00  0.00    -0.310 NA 
HETATM   21  C   UNL     1     -11.483  14.651  66.331  1.00  0.00    -0.347 C  
HETATM   22  C   UNL     1     -10.774  15.716  65.462  1.00  0.00    -0.389 C  
BRANCH  20  23
HETATM   23  C   UNL     1      -9.682  17.647  66.522  1.00  0.00    -0.304 A  
HETATM   24  N   UNL     1      -8.709  18.465  66.078  1.00  0.00    -0.503 NA 
HETATM   25  C   UNL     1      -8.791  19.770  66.383  1.00  0.00    -0.377 A  
HETATM   26  C   UNL     1      -9.799  20.306  67.142  1.00  0.00    -0.606 A  
HETATM   27  C   UNL     1     -10.740  19.405  67.566  1.00  0.00    -0.453 A  
HETATM   28  N   UNL     1     -10.710  18.096  67.263  1.00  0.00    -0.364 NA 
ENDBRANCH  20  23
ENDBRANCH  16  17
ENDBRANCH  15  16
ENDBRANCH  14  15
ENDBRANCH  13  14
ENDBRANCH   9  13
TORSDOF 6
ENDMDL
MODEL        8
REMARK 921   NORMALIZED FREE ENERGY PREDICTED BY IDOCK:   -6.44 KCAL/MOL
REMARK 922        TOTAL FREE ENERGY PREDICTED BY IDOCK:   -9.67 KCAL/MOL
REMARK 923 INTER-LIGAND FREE ENERGY PREDICTED BY IDOCK:   -8.73 KCAL/MOL
REMARK 924 INTRA-LIGAND FREE ENERGY PREDICTED BY IDOCK:   -0.94 KCAL/MOL
REMARK 927      BINDING AFFINITY PREDICTED BY RF-SCORE:    0.00 PKD
ROOT
HETATM    1  O   UNL     1     -12.138  15.027  68.132  1.00  0.00    -0.231 OA 
HETATM    2  C   UNL     1     -11.209  15.519  67.496  1.00  0.00    -0.272 C  
HETATM    3  C   UNL     1     -10.113  16.293  68.182  1.00  0.00    -0.244 C  
HETATM    4  C   UNL     1      -9.713  17.568  67.431  1.00  0.00    -0.274 C  
HETATM    5  C   UNL     1      -9.552  17.271  65.940  1.00  0.00    -0.074 C  
HETATM    6  C   UNL     1      -8.384  18.101  68.020  1.00  0.00    -0.268 C  
HETATM    7  C   UNL     1     -10.702  16.471  65.382  1.00  0.00    -0.259 C  
HETATM    8  C   UNL     1      -8.665  19.520  68.492  1.00  0.00    -0.388 C  
HETATM    9  N   UNL     1     -11.012  15.357  66.137  1.00  0.00    -0.310 N  
HETATM   10  C   UNL     1     -10.148  19.519  68.807  1.00  0.00    -0.519 C  
HETATM   11  O   UNL     1     -11.244  16.774  64.323  1.00  0.00    -1.163 OA 
HETATM   12  C   UNL     1     -10.740  18.698  67.670  1.00  0.00    -0.428 C  
ENDROOT
BRANCH   9  13
HETATM   13  C   UNL     1     -11.729  14.278  65.483  1.00  0.00    -0.353 C  
BRANCH  13  14
HETATM   14  C   UNL     1     -10.771  13.115  65.197  1.00  0.00    -0.329 C  
BRANCH  14  15
HETATM   15  C   UNL     1      -9.589  13.076  66.157  1.00  0.00    -0.209 C  
BRANCH  15  16
HETATM   16  C   UNL     1      -9.723  12.010  67.251  1.00  0.00    -0.185 C  
BRANCH  16  17
HETATM   17  N   UNL     1     -10.982  11.242  67.180  1.00  0.00    -0.277 NA 
HETATM   18  C   UNL     1     -10.755   9.775  67.236  1.00  0.00    -0.227 C  
HETATM   19  C   UNL     1     -10.095   9.291  68.547  1.00  0.00    -0.190 C  
HETATM   20  N   UNL     1     -10.857   9.759  69.708  1.00  0.00    -0.244 NA 
HETATM   21  C   UNL     1     -11.862  11.584  68.327  1.00  0.00    -0.256 C  
HETATM   22  C   UNL     1     -11.321  11.149  69.709  1.00  0.00    -0.278 C  
BRANCH  20  23
HETATM   23  C   UNL     1     -11.532   8.809  70.437  1.00  0.00    -0.144 A  
HETATM   24  N   UNL     1     -12.489   9.224  71.288  1.00  0.00    -0.318 NA 
HETATM   25  C   UNL     1     -13.193   8.291  71.950  1.00  0.00    -0.344 A  
HETATM   26  C   UNL     1     -12.971   6.945  71.822  1.00  0.00    -0.326 A  
HETATM   27  C   UNL     1     -11.972   6.608  70.947  1.00  0.00    -0.355 A  
HETATM   28  N   UNL     1     -11.259   7.507  70.246  1.00  0.00    -0.263 NA 
ENDBRANCH  20  23
ENDBRANCH  16  17
ENDBRANCH  15  16
ENDBRANCH  14  15
ENDBRANCH  13  14
ENDBRANCH   9  13
TORSDOF 6
ENDMDL
MODEL        9
REMARK 921   NORMALIZED FREE ENERGY PREDICTED BY IDOCK:   -6.43 KCAL/MOL
REMARK 922        TOTAL FREE ENERGY PREDICTED BY IDOCK:   -9.66 KCAL/MOL
REMARK 923 INTER-LIGAND FREE ENERGY PREDICTED BY IDOCK:   -9.01 KCAL/MOL
REMARK 924 INTRA-LIGAND FREE ENERGY PREDICTED BY IDOCK:   -0.66 KCAL/MOL
REMARK 927      BINDING AFFINITY PREDICTED BY RF-SCORE:    0.00 PKD
ROOT
HETATM    1  O   UNL     1      -9.880   9.830  69.877  1.00  0.00    -0.216 OA 
HETATM    2  C   UNL     1     -10.555   9.550  70.865  1.00  0.00    -0.325 C  
HETATM    3  C   UNL     1     -10.020   8.653  71.950  1.00  0.00    -0.392 C  
HETATM    4  C   UNL     1     -11.050   7.636  72.454  1.00  0.00    -0.362 C  
HETATM    5  C   UNL     1     -12.395   8.322  72.692  1.00  0.00    -0.256 C  
HETATM    6  C   UNL     1     -10.528   7.002  73.768  1.00  0.00    -0.392 C  
HETATM    7  C   UNL     1     -12.803   9.209  71.544  1.00  0.00    -0.347 C  
HETATM    8  C   UNL     1     -10.468   5.502  73.524  1.00  0.00    -0.283 C  
HETATM    9  N   UNL     1     -11.806  10.074  71.137  1.00  0.00    -0.369 N  
HETATM   10  C   UNL     1     -10.271   5.378  72.025  1.00  0.00    -0.256 C  
HETATM   11  O   UNL     1     -13.940   9.183  71.082  1.00  0.00    -0.247 OA 
HETATM   12  C   UNL     1     -11.190   6.454  71.468  1.00  0.00    -0.334 C  
ENDROOT
BRANCH   9  13
HETATM   13  C   UNL     1     -12.202  11.267  70.413  1.00  0.00    -0.365 C  
BRANCH  13  14
HETATM   14  C   UNL     1     -12.629  12.358  71.403  1.00  0.00    -0.299 C  
BRANCH  14  15
HETATM   15  C   UNL     1     -12.385  13.764  70.871  1.00  0.00    -0.456 C  
BRANCH  15  16
HETATM   16  C   UNL     1     -11.958  13.796  69.398  1.00  0.00    -0.347 C  
BRANCH  16  17
HETATM   17  N   UNL     1     -10.544  14.170  69.198  1.00  0.00    -0.202 NA 
HETATM   18  C   UNL     1     -10.209  14.371  67.765  1.00  0.00    -0.230 C  
HETATM   19  C   UNL     1     -10.997  15.515  67.089  1.00  0.00    -0.295 C  
HETATM   20  N   UNL     1     -10.852  16.758  67.851  1.00  0.00    -0.339 NA 
HETATM   21  C   UNL     1     -10.244  15.449  69.892  1.00  0.00    -0.266 C  
HETATM   22  C   UNL     1     -10.968  16.685  69.310  1.00  0.00    -0.261 C  
BRANCH  20  23
HETATM   23  C   UNL     1     -10.121  17.766  67.270  1.00  0.00    -0.337 A  
HETATM   24  N   UNL     1     -10.749  18.921  66.982  1.00  0.00    -0.434 NA 
HETATM   25  C   UNL     1     -10.020  19.928  66.474  1.00  0.00    -0.474 A  
HETATM   26  C   UNL     1      -8.678  19.832  66.214  1.00  0.00    -0.403 A  
HETATM   27  C   UNL     1      -8.118  18.621  66.523  1.00  0.00    -0.284 A  
HETATM   28  N   UNL     1      -8.805  17.594  67.054  1.00  0.00    -0.240 NA 
ENDBRANCH  20  23
ENDBRANCH  16  17
ENDBRANCH  15  16
ENDBRANCH  14  15
ENDBRANCH  13  14
ENDBRANCH   9  13
TORSDOF 6
ENDMDL
MODEL       10
REMARK 921   NORMALIZED FREE ENERGY PREDICTED BY IDOCK:   -6.40 KCAL/MOL
REMARK 922        TOTAL FREE ENERGY PREDICTED BY IDOCK:   -9.62 KCAL/MOL
REMARK 923 INTER-LIGAND FREE ENERGY PREDICTED BY IDOCK:   -9.16 KCAL/MOL
REMARK 924 INTRA-LIGAND FREE ENERGY PREDICTED BY IDOCK:   -0.46 KCAL/MOL
REMARK 927      BINDING AFFINITY PREDICTED BY RF-SCORE:    0.00 PKD
ROOT
HETATM    1  O   UNL     1     -12.973  11.830  71.726  1.00  0.00    -0.423 OA 
HETATM    2  C   UNL     1     -12.538  10.965  70.969  1.00  0.00    -0.417 C  
HETATM    3  C   UNL     1     -12.855   9.508  71.181  1.00  0.00    -0.361 C  
HETATM    4  C   UNL     1     -11.645   8.590  70.973  1.00  0.00    -0.317 C  
HETATM    5  C   UNL     1     -10.901   8.981  69.697  1.00  0.00    -0.196 C  
HETATM    6  C   UNL     1     -12.137   7.124  70.882  1.00  0.00    -0.368 C  
HETATM    7  C   UNL     1     -10.668  10.467  69.595  1.00  0.00    -0.259 C  
HETATM    8  C   UNL     1     -11.416   6.363  71.985  1.00  0.00    -0.350 C  
HETATM    9  N   UNL     1     -11.805  11.218  69.824  1.00  0.00    -0.332 N  
HETATM   10  C   UNL     1     -11.124   7.419  73.034  1.00  0.00    -0.390 C  
HETATM   11  O   UNL     1      -9.576  10.928  69.276  1.00  0.00    -0.158 OA 
HETATM   12  C   UNL     1     -10.708   8.623  72.201  1.00  0.00    -0.417 C  
ENDROOT
BRANCH   9  13
HETATM   13  C   UNL     1     -11.840  12.567  69.294  1.00  0.00    -0.304 C  
BRANCH  13  14
HETATM   14  C   UNL     1     -11.828  12.525  67.761  1.00  0.00    -0.375 C  
BRANCH  14  15
HETATM   15  C   UNL     1     -12.027  13.897  67.132  1.00  0.00    -0.455 C  
BRANCH  15  16
HETATM   16  C   UNL     1     -11.557  15.053  68.023  1.00  0.00    -0.338 C  
BRANCH  16  17
HETATM   17  N   UNL     1     -10.088  15.163  68.129  1.00  0.00    -0.221 NA 
HETATM   18  C   UNL     1      -9.444  15.428  66.818  1.00  0.00    -0.241 C  
HETATM   19  C   UNL     1      -9.871  16.762  66.166  1.00  0.00    -0.309 C  
HETATM   20  N   UNL     1      -9.669  17.876  67.097  1.00  0.00    -0.280 NA 
HETATM   21  C   UNL     1      -9.717  16.288  69.026  1.00  0.00    -0.252 C  
HETATM   22  C   UNL     1     -10.085  17.690  68.489  1.00  0.00    -0.375 C  
BRANCH  20  23
HETATM   23  C   UNL     1      -8.673  18.773  66.791  1.00  0.00    -0.300 A  
HETATM   24  N   UNL     1      -8.534  19.858  67.576  1.00  0.00    -0.320 NA 
HETATM   25  C   UNL     1      -7.520  20.700  67.316  1.00  0.00    -0.347 A  
HETATM   26  C   UNL     1      -6.637  20.523  66.283  1.00  0.00    -0.286 A  
HETATM   27  C   UNL     1      -6.857  19.403  65.526  1.00  0.00    -0.274 A  
HETATM   28  N   UNL     1      -7.844  18.521  65.764  1.00  0.00    -0.499 NA 
ENDBRANCH  20  23
ENDBRANCH  16  17
ENDBRANCH  15  16
ENDBRANCH  14  15
ENDBRANCH  13  14
ENDBRANCH   9  13
TORSDOF 6
ENDMDL
MODEL       11
REMARK 921   NORMALIZED FREE ENERGY PREDICTED BY IDOCK:   -6.37 KCAL/MOL
REMARK 922        TOTAL FREE ENERGY PREDICTED BY IDOCK:   -9.58 KCAL/MOL
REMARK 923 INTER-LIGAND FREE ENERGY PREDICTED BY IDOCK:   -8.94 KCAL/MOL
REMARK 924 INTRA-LIGAND FREE ENERGY PREDICTED BY IDOCK:   -0.64 KCAL/MOL
REMARK 927      BINDING AFFINITY PREDICTED BY RF-SCORE:    0.00 PKD
ROOT
HETATM    1  O   UNL     1      -8.630   9.013  71.998  1.00  0.00    -0.367 OA 
HETATM    2  C   UNL     1      -9.632   8.354  71.729  1.00  0.00    -0.234 C  
HETATM    3  C   UNL     1     -10.203   7.362  72.708  1.00  0.00    -0.287 C  
HETATM    4  C   UNL     1     -10.636   6.046  72.051  1.00  0.00    -0.267 C  
HETATM    5  C   UNL     1     -11.430   6.330  70.776  1.00  0.00    -0.383 C  
HETATM    6  C   UNL     1     -11.500   5.245  73.057  1.00  0.00    -0.340 C  
HETATM    7  C   UNL     1     -10.763   7.356  69.897  1.00  0.00    -0.243 C  
HETATM    8  C   UNL     1     -10.805   3.904  73.242  1.00  0.00    -0.297 C  
HETATM    9  N   UNL     1     -10.381   8.497  70.575  1.00  0.00    -0.196 N  
HETATM   10  C   UNL     1      -9.345   4.200  72.955  1.00  0.00    -0.138 C  
HETATM   11  O   UNL     1     -10.645   7.188  68.686  1.00  0.00    -0.201 OA 
HETATM   12  C   UNL     1      -9.415   5.143  71.763  1.00  0.00    -0.188 C  
ENDROOT
BRANCH   9  13
HETATM   13  C   UNL     1     -10.191   9.709  69.802  1.00  0.00    -0.237 C  
BRANCH  13  14
HETATM   14  C   UNL     1     -11.374  10.660  70.026  1.00  0.00    -0.400 C  
BRANCH  14  15
HETATM   15  C   UNL     1     -11.874  11.293  68.734  1.00  0.00    -0.396 C  
BRANCH  15  16
HETATM   16  C   UNL     1     -11.184  12.620  68.395  1.00  0.00    -0.279 C  
BRANCH  16  17
HETATM   17  N   UNL     1     -12.122  13.741  68.189  1.00  0.00    -0.343 NA 
HETATM   18  C   UNL     1     -11.903  14.848  69.154  1.00  0.00    -0.307 C  
HETATM   19  C   UNL     1     -10.508  15.505  69.052  1.00  0.00    -0.231 C  
HETATM   20  N   UNL     1     -10.244  15.935  67.676  1.00  0.00    -0.257 NA 
HETATM   21  C   UNL     1     -11.950  14.316  66.830  1.00  0.00    -0.438 C  
HETATM   22  C   UNL     1     -10.591  15.013  66.591  1.00  0.00    -0.301 C  
BRANCH  20  23
HETATM   23  C   UNL     1     -10.203  17.288  67.441  1.00  0.00    -0.325 A  
HETATM   24  N   UNL     1     -10.375  17.719  66.177  1.00  0.00    -0.435 NA 
HETATM   25  C   UNL     1     -10.401  19.043  65.958  1.00  0.00    -0.446 A  
HETATM   26  C   UNL     1     -10.238  19.976  66.949  1.00  0.00    -0.595 A  
HETATM   27  C   UNL     1     -10.055  19.455  68.203  1.00  0.00    -0.425 A  
HETATM   28  N   UNL     1     -10.046  18.138  68.471  1.00  0.00    -0.386 NA 
ENDBRANCH  20  23
ENDBRANCH  16  17
ENDBRANCH  15  16
ENDBRANCH  14  15
ENDBRANCH  13  14
ENDBRANCH   9  13
TORSDOF 6
ENDMDL
MODEL       12
REMARK 921   NORMALIZED FREE ENERGY PREDICTED BY IDOCK:   -6.33 KCAL/MOL
REMARK 922        TOTAL FREE ENERGY PREDICTED BY IDOCK:   -9.52 KCAL/MOL
REMARK 923 INTER-LIGAND FREE ENERGY PREDICTED BY IDOCK:   -8.92 KCAL/MOL
REMARK 924 INTRA-LIGAND FREE ENERGY PREDICTED BY IDOCK:   -0.60 KCAL/MOL
REMARK 927      BINDING AFFINITY PREDICTED BY RF-SCORE:    0.00 PKD
ROOT
HETATM    1  O   UNL     1     -13.289   7.320  71.579  1.00  0.00    -0.379 OA 
HETATM    2  C   UNL     1     -12.156   7.324  71.104  1.00  0.00    -0.340 C  
HETATM    3  C   UNL     1     -11.609   6.126  70.372  1.00  0.00    -0.262 C  
HETATM    4  C   UNL     1     -10.154   5.810  70.733  1.00  0.00    -0.260 C  
HETATM    5  C   UNL     1      -9.320   7.092  70.728  1.00  0.00    -0.161 C  
HETATM    6  C   UNL     1      -9.591   4.798  69.704  1.00  0.00    -0.253 C  
HETATM    7  C   UNL     1      -9.989   8.219  71.473  1.00  0.00    -0.199 C  
HETATM    8  C   UNL     1      -9.130   3.589  70.504  1.00  0.00    -0.192 C  
HETATM    9  N   UNL     1     -11.306   8.415  71.105  1.00  0.00    -0.261 N  
HETATM   10  C   UNL     1     -10.004   3.609  71.743  1.00  0.00    -0.210 C  
HETATM   11  O   UNL     1      -9.374   8.915  72.276  1.00  0.00    -0.360 OA 
HETATM   12  C   UNL     1     -10.065   5.088  72.096  1.00  0.00    -0.252 C  
ENDROOT
BRANCH   9  13
HETATM   13  C   UNL     1     -11.891   9.716  71.364  1.00  0.00    -0.406 C  
BRANCH  13  14
HETATM   14  C   UNL     1     -11.702  10.624  70.142  1.00  0.00    -0.417 C  
BRANCH  14  15
HETATM   15  C   UNL     1     -12.121  12.064  70.407  1.00  0.00    -0.407 C  
BRANCH  15  16
HETATM   16  C   UNL     1     -11.425  13.082  69.496  1.00  0.00    -0.222 C  
BRANCH  16  17
HETATM   17  N   UNL     1     -12.332  14.116  68.959  1.00  0.00    -0.226 NA 
HETATM   18  C   UNL     1     -12.257  15.388  69.722  1.00  0.00    -0.306 C  
HETATM   19  C   UNL     1     -10.865  16.059  69.690  1.00  0.00    -0.329 C  
HETATM   20  N   UNL     1     -10.413  16.237  68.307  1.00  0.00    -0.271 NA 
HETATM   21  C   UNL     1     -11.974  14.437  67.553  1.00  0.00    -0.354 C  
HETATM   22  C   UNL     1     -10.599  15.122  67.376  1.00  0.00    -0.271 C  
BRANCH  20  23
HETATM   23  C   UNL     1     -10.348  17.525  67.833  1.00  0.00    -0.371 A  
HETATM   24  N   UNL     1     -10.207  18.524  68.724  1.00  0.00    -0.353 NA 
HETATM   25  C   UNL     1     -10.077  19.776  68.255  1.00  0.00    -0.458 A  
HETATM   26  C   UNL     1     -10.104  20.090  66.922  1.00  0.00    -0.601 A  
HETATM   27  C   UNL     1     -10.264  19.019  66.083  1.00  0.00    -0.446 A  
HETATM   28  N   UNL     1     -10.374  17.747  66.507  1.00  0.00    -0.355 NA 
ENDBRANCH  20  23
ENDBRANCH  16  17
ENDBRANCH  15  16
ENDBRANCH  14  15
ENDBRANCH  13  14
ENDBRANCH   9  13
TORSDOF 6
ENDMDL
MODEL       13
REMARK 921   NORMALIZED FREE ENERGY PREDICTED BY IDOCK:   -6.30 KCAL/MOL
REMARK 922        TOTAL FREE ENERGY PREDICTED BY IDOCK:   -9.48 KCAL/MOL
REMARK 923 INTER-LIGAND FREE ENERGY PREDICTED BY IDOCK:   -9.25 KCAL/MOL
REMARK 924 INTRA-LIGAND FREE ENERGY PREDICTED BY IDOCK:   -0.24 KCAL/MOL
REMARK 927      BINDING AFFINITY PREDICTED BY RF-SCORE:    0.00 PKD
ROOT
HETATM    1  O   UNL     1      -9.644   9.569  69.973  1.00  0.00    -0.206 OA 
HETATM    2  C   UNL     1     -10.340   9.334  70.958  1.00  0.00    -0.318 C  
HETATM    3  C   UNL     1      -9.876   8.393  72.039  1.00  0.00    -0.354 C  
HETATM    4  C   UNL     1     -10.979   7.450  72.533  1.00  0.00    -0.341 C  
HETATM    5  C   UNL     1     -12.271   8.232  72.773  1.00  0.00    -0.166 C  
HETATM    6  C   UNL     1     -10.508   6.773  73.844  1.00  0.00    -0.356 C  
HETATM    7  C   UNL     1     -12.609   9.154  71.630  1.00  0.00    -0.360 C  
HETATM    8  C   UNL     1     -10.558   5.273  73.591  1.00  0.00    -0.322 C  
HETATM    9  N   UNL     1     -11.550   9.946  71.230  1.00  0.00    -0.380 N  
HETATM   10  C   UNL     1     -10.365   5.144  72.092  1.00  0.00    -0.272 C  
HETATM   11  O   UNL     1     -13.744   9.214  71.164  1.00  0.00    -0.279 OA 
HETATM   12  C   UNL     1     -11.202   6.288  71.539  1.00  0.00    -0.344 C  
ENDROOT
BRANCH   9  13
HETATM   13  C   UNL     1     -11.856  11.169  70.513  1.00  0.00    -0.351 C  
BRANCH  13  14
HETATM   14  C   UNL     1     -12.154  10.850  69.043  1.00  0.00    -0.240 C  
BRANCH  14  15
HETATM   15  C   UNL     1     -11.420  11.773  68.080  1.00  0.00    -0.388 C  
BRANCH  15  16
HETATM   16  C   UNL     1     -10.969  13.092  68.719  1.00  0.00    -0.262 C  
BRANCH  16  17
HETATM   17  N   UNL     1     -11.931  14.198  68.541  1.00  0.00    -0.349 NA 
HETATM   18  C   UNL     1     -11.631  15.357  69.419  1.00  0.00    -0.340 C  
HETATM   19  C   UNL     1     -10.256  16.010  69.151  1.00  0.00    -0.242 C  
HETATM   20  N   UNL     1     -10.125  16.365  67.735  1.00  0.00    -0.255 NA 
HETATM   21  C   UNL     1     -11.890  14.698  67.142  1.00  0.00    -0.345 C  
HETATM   22  C   UNL     1     -10.564  15.384  66.739  1.00  0.00    -0.309 C  
BRANCH  20  23
HETATM   23  C   UNL     1     -10.116  17.703  67.424  1.00  0.00    -0.331 A  
HETATM   24  N   UNL     1     -10.282  18.057  66.135  1.00  0.00    -0.490 NA 
HETATM   25  C   UNL     1     -10.339  19.366  65.841  1.00  0.00    -0.451 A  
HETATM   26  C   UNL     1     -10.214  20.357  66.779  1.00  0.00    -0.394 A  
HETATM   27  C   UNL     1     -10.035  19.913  68.063  1.00  0.00    -0.429 A  
HETATM   28  N   UNL     1      -9.996  18.614  68.406  1.00  0.00    -0.369 NA 
ENDBRANCH  20  23
ENDBRANCH  16  17
ENDBRANCH  15  16
ENDBRANCH  14  15
ENDBRANCH  13  14
ENDBRANCH   9  13
TORSDOF 6
ENDMDL
MODEL       14
REMARK 921   NORMALIZED FREE ENERGY PREDICTED BY IDOCK:   -6.29 KCAL/MOL
REMARK 922        TOTAL FREE ENERGY PREDICTED BY IDOCK:   -9.47 KCAL/MOL
REMARK 923 INTER-LIGAND FREE ENERGY PREDICTED BY IDOCK:   -8.26 KCAL/MOL
REMARK 924 INTRA-LIGAND FREE ENERGY PREDICTED BY IDOCK:   -1.21 KCAL/MOL
REMARK 927      BINDING AFFINITY PREDICTED BY RF-SCORE:    0.00 PKD
ROOT
HETATM    1  O   UNL     1      -9.192  15.098  66.269  1.00  0.00    -0.282 OA 
HETATM    2  C   UNL     1      -9.972  14.149  66.264  1.00  0.00    -0.303 C  
HETATM    3  C   UNL     1      -9.504  12.752  65.956  1.00  0.00    -0.127 C  
HETATM    4  C   UNL     1     -10.458  11.985  65.033  1.00  0.00    -0.327 C  
HETATM    5  C   UNL     1     -11.902  12.167  65.501  1.00  0.00    -0.350 C  
HETATM    6  C   UNL     1     -10.072  10.485  65.048  1.00  0.00    -0.390 C  
HETATM    7  C   UNL     1     -12.235  13.606  65.800  1.00  0.00    -0.464 C  
HETATM    8  C   UNL     1      -9.778  10.106  63.604  1.00  0.00    -0.168 C  
HETATM    9  N   UNL     1     -11.308  14.228  66.614  1.00  0.00    -0.337 N  
HETATM   10  C   UNL     1      -9.331  11.406  62.963  1.00  0.00    -0.344 C  
HETATM   11  O   UNL     1     -13.272  14.126  65.394  1.00  0.00    -0.741 OA 
HETATM   12  C   UNL     1     -10.284  12.429  63.563  1.00  0.00    -0.339 C  
ENDROOT
BRANCH   9  13
HETATM   13  C   UNL     1     -11.737  15.399  67.352  1.00  0.00    -0.031 C  
BRANCH  13  14
HETATM   14  C   UNL     1     -11.476  15.195  68.850  1.00  0.00    -0.337 C  
BRANCH  14  15
HETATM   15  C   UNL     1     -12.289  14.050  69.438  1.00  0.00    -0.247 C  
BRANCH  15  16
HETATM   16  C   UNL     1     -11.464  12.783  69.695  1.00  0.00    -0.185 C  
BRANCH  16  17
HETATM   17  N   UNL     1     -12.095  11.550  69.185  1.00  0.00    -0.325 NA 
HETATM   18  C   UNL     1     -11.097  10.555  68.716  1.00  0.00    -0.265 C  
HETATM   19  C   UNL     1     -10.141  10.055  69.822  1.00  0.00    -0.248 C  
HETATM   20  N   UNL     1     -10.902   9.549  70.968  1.00  0.00    -0.329 NA 
HETATM   21  C   UNL     1     -12.886  10.891  70.256  1.00  0.00    -0.142 C  
HETATM   22  C   UNL     1     -12.047  10.336  71.431  1.00  0.00    -0.362 C  
BRANCH  20  23
HETATM   23  C   UNL     1     -10.861   8.195  71.197  1.00  0.00    -0.232 A  
HETATM   24  N   UNL     1     -10.870   7.766  72.473  1.00  0.00    -0.298 NA 
HETATM   25  C   UNL     1     -10.897   6.442  72.695  1.00  0.00    -0.240 A  
HETATM   26  C   UNL     1     -10.891   5.508  71.693  1.00  0.00    -0.271 A  
HETATM   27  C   UNL     1     -10.868   6.026  70.425  1.00  0.00    -0.318 A  
HETATM   28  N   UNL     1     -10.865   7.344  70.156  1.00  0.00    -0.252 NA 
ENDBRANCH  20  23
ENDBRANCH  16  17
ENDBRANCH  15  16
ENDBRANCH  14  15
ENDBRANCH  13  14
ENDBRANCH   9  13
TORSDOF 6
ENDMDL
MODEL       15
REMARK 921   NORMALIZED FREE ENERGY PREDICTED BY IDOCK:   -6.29 KCAL/MOL
REMARK 922        TOTAL FREE ENERGY PREDICTED BY IDOCK:   -9.46 KCAL/MOL
REMARK 923 INTER-LIGAND FREE ENERGY PREDICTED BY IDOCK:   -8.49 KCAL/MOL
REMARK 924 INTRA-LIGAND FREE ENERGY PREDICTED BY IDOCK:   -0.97 KCAL/MOL
REMARK 927      BINDING AFFINITY PREDICTED BY RF-SCORE:    0.00 PKD
ROOT
HETATM    1  O   UNL     1      -7.707  15.569  66.647  1.00  0.00    -0.160 OA 
HETATM    2  C   UNL     1      -8.295  16.644  66.558  1.00  0.00    -0.287 C  
HETATM    3  C   UNL     1      -7.560  17.914  66.216  1.00  0.00    -0.315 C  
HETATM    4  C   UNL     1      -8.005  19.114  67.059  1.00  0.00    -0.273 C  
HETATM    5  C   UNL     1      -9.531  19.170  67.131  1.00  0.00    -0.367 C  
HETATM    6  C   UNL     1      -7.448  20.410  66.417  1.00  0.00    -0.245 C  
HETATM    7  C   UNL     1     -10.143  17.832  67.456  1.00  0.00    -0.340 C  
HETATM    8  C   UNL     1      -6.607  21.088  67.488  1.00  0.00    -0.438 C  
HETATM    9  N   UNL     1      -9.665  16.803  66.669  1.00  0.00    -0.256 N  
HETATM   10  C   UNL     1      -6.142  19.947  68.372  1.00  0.00    -0.286 C  
HETATM   11  O   UNL     1     -11.026  17.715  68.302  1.00  0.00    -0.259 OA 
HETATM   12  C   UNL     1      -7.377  19.064  68.470  1.00  0.00    -0.341 C  
ENDROOT
BRANCH   9  13
HETATM   13  C   UNL     1     -10.487  15.615  66.538  1.00  0.00    -0.302 C  
BRANCH  13  14
HETATM   14  C   UNL     1     -10.733  15.312  65.055  1.00  0.00    -0.461 C  
BRANCH  14  15
HETATM   15  C   UNL     1     -10.393  13.875  64.684  1.00  0.00    -0.366 C  
BRANCH  15  16
HETATM   16  C   UNL     1     -10.111  12.979  65.896  1.00  0.00    -0.288 C  
BRANCH  16  17
HETATM   17  N   UNL     1     -11.163  11.976  66.151  1.00  0.00    -0.330 NA 
HETATM   18  C   UNL     1     -10.619  10.715  66.716  1.00  0.00    -0.237 C  
HETATM   19  C   UNL     1      -9.926  10.887  68.086  1.00  0.00    -0.174 C  
HETATM   20  N   UNL     1     -10.824  11.554  69.034  1.00  0.00    -0.214 NA 
HETATM   21  C   UNL     1     -12.147  12.498  67.135  1.00  0.00    -0.065 C  
HETATM   22  C   UNL     1     -11.584  12.713  68.559  1.00  0.00    -0.323 C  
BRANCH  20  23
HETATM   23  C   UNL     1     -11.303  10.800  70.078  1.00  0.00    -0.319 A  
HETATM   24  N   UNL     1     -12.513  11.107  70.582  1.00  0.00    -0.353 NA 
HETATM   25  C   UNL     1     -13.008  10.329  71.557  1.00  0.00    -0.453 A  
HETATM   26  C   UNL     1     -12.337   9.255  72.081  1.00  0.00    -0.398 A  
HETATM   27  C   UNL     1     -11.108   9.019  71.524  1.00  0.00    -0.349 A  
HETATM   28  N   UNL     1     -10.584   9.757  70.530  1.00  0.00    -0.296 NA 
ENDBRANCH  20  23
ENDBRANCH  16  17
ENDBRANCH  15  16
ENDBRANCH  14  15
ENDBRANCH  13  14
ENDBRANCH   9  13
TORSDOF 6
ENDMDL
MODEL       16
REMARK 921   NORMALIZED FREE ENERGY PREDICTED BY IDOCK:   -6.26 KCAL/MOL
REMARK 922        TOTAL FREE ENERGY PREDICTED BY IDOCK:   -9.43 KCAL/MOL
REMARK 923 INTER-LIGAND FREE ENERGY PREDICTED BY IDOCK:   -8.68 KCAL/MOL
REMARK 924 INTRA-LIGAND FREE ENERGY PREDICTED BY IDOCK:   -0.75 KCAL/MOL
REMARK 927      BINDING AFFINITY PREDICTED BY RF-SCORE:    0.00 PKD
ROOT
HETATM    1  O   UNL     1      -8.849   9.624  70.611  1.00  0.00    -0.200 OA 
HETATM    2  C   UNL     1      -9.711   8.802  70.309  1.00  0.00    -0.176 C  
HETATM    3  C   UNL     1     -10.608   8.188  71.353  1.00  0.00    -0.269 C  
HETATM    4  C   UNL     1     -10.817   6.682  71.158  1.00  0.00    -0.284 C  
HETATM    5  C   UNL     1     -11.117   6.378  69.691  1.00  0.00    -0.465 C  
HETATM    6  C   UNL     1     -11.993   6.220  72.055  1.00  0.00    -0.353 C  
HETATM    7  C   UNL     1     -10.165   7.071  68.750  1.00  0.00    -0.176 C  
HETATM    8  C   UNL     1     -11.435   5.134  72.963  1.00  0.00    -0.349 C  
HETATM    9  N   UNL     1     -10.014   8.418  69.015  1.00  0.00    -0.185 N  
HETATM   10  C   UNL     1      -9.959   5.467  73.076  1.00  0.00    -0.190 C  
HETATM   11  O   UNL     1      -9.640   6.478  67.812  1.00  0.00    -0.123 OA 
HETATM   12  C   UNL     1      -9.593   5.883  71.659  1.00  0.00    -0.173 C  
ENDROOT
BRANCH   9  13
HETATM   13  C   UNL     1      -9.542   9.268  67.940  1.00  0.00    -0.142 C  
BRANCH  13  14
HETATM   14  C   UNL     1     -10.736   9.846  67.171  1.00  0.00    -0.276 C  
BRANCH  14  15
HETATM   15  C   UNL     1     -11.180  11.202  67.704  1.00  0.00    -0.364 C  
BRANCH  15  16
HETATM   16  C   UNL     1     -11.089  12.328  66.667  1.00  0.00    -0.297 C  
BRANCH  16  17
HETATM   17  N   UNL     1     -12.033  13.436  66.909  1.00  0.00    -0.391 NA 
HETATM   18  C   UNL     1     -11.669  14.242  68.102  1.00  0.00    -0.350 C  
HETATM   19  C   UNL     1     -10.294  14.939  67.994  1.00  0.00    -0.244 C  
HETATM   20  N   UNL     1     -10.219  15.737  66.767  1.00  0.00    -0.275 NA 
HETATM   21  C   UNL     1     -12.046  14.367  65.751  1.00  0.00    -0.355 C  
HETATM   22  C   UNL     1     -10.725  15.140  65.529  1.00  0.00    -0.365 C  
BRANCH  20  23
HETATM   23  C   UNL     1     -10.195  17.104  66.911  1.00  0.00    -0.315 A  
HETATM   24  N   UNL     1     -10.390  17.861  65.815  1.00  0.00    -0.615 NA 
HETATM   25  C   UNL     1     -10.432  19.195  65.968  1.00  0.00    -0.467 A  
HETATM   26  C   UNL     1     -10.265  19.822  67.175  1.00  0.00    -0.574 A  
HETATM   27  C   UNL     1     -10.059  18.981  68.236  1.00  0.00    -0.396 A  
HETATM   28  N   UNL     1     -10.033  17.641  68.133  1.00  0.00    -0.311 NA 
ENDBRANCH  20  23
ENDBRANCH  16  17
ENDBRANCH  15  16
ENDBRANCH  14  15
ENDBRANCH  13  14
ENDBRANCH   9  13
TORSDOF 6
ENDMDL
MODEL       17
REMARK 921   NORMALIZED FREE ENERGY PREDICTED BY IDOCK:   -6.24 KCAL/MOL
REMARK 922        TOTAL FREE ENERGY PREDICTED BY IDOCK:   -9.40 KCAL/MOL
REMARK 923 INTER-LIGAND FREE ENERGY PREDICTED BY IDOCK:   -8.19 KCAL/MOL
REMARK 924 INTRA-LIGAND FREE ENERGY PREDICTED BY IDOCK:   -1.22 KCAL/MOL
REMARK 927      BINDING AFFINITY PREDICTED BY RF-SCORE:    0.00 PKD
ROOT
HETATM    1  O   UNL     1      -9.249  10.956  68.475  1.00  0.00    -0.166 OA 
HETATM    2  C   UNL     1      -9.696   9.961  67.909  1.00  0.00    -0.140 C  
HETATM    3  C   UNL     1     -10.520   8.942  68.651  1.00  0.00    -0.223 C  
HETATM    4  C   UNL     1     -10.155   7.496  68.295  1.00  0.00    -0.209 C  
HETATM    5  C   UNL     1     -10.027   7.344  66.779  1.00  0.00    -0.300 C  
HETATM    6  C   UNL     1     -11.257   6.553  68.839  1.00  0.00    -0.341 C  
HETATM    7  C   UNL     1      -9.200   8.440  66.156  1.00  0.00    -0.205 C  
HETATM    8  C   UNL     1     -10.558   5.572  69.768  1.00  0.00    -0.388 C  
HETATM    9  N   UNL     1      -9.578   9.707  66.554  1.00  0.00    -0.182 N  
HETATM   10  C   UNL     1      -9.342   6.332  70.263  1.00  0.00    -0.170 C  
HETATM   11  O   UNL     1      -8.324   8.196  65.331  1.00  0.00    -0.142 OA 
HETATM   12  C   UNL     1      -8.860   7.057  69.015  1.00  0.00    -0.134 C  
ENDROOT
BRANCH   9  13
HETATM   13  C   UNL     1      -9.218  10.819  65.696  1.00  0.00    -0.199 C  
BRANCH  13  14
HETATM   14  C   UNL     1     -10.429  11.238  64.852  1.00  0.00    -0.375 C  
BRANCH  14  15
HETATM   15  C   UNL     1     -10.448  12.731  64.550  1.00  0.00    -0.392 C  
BRANCH  15  16
HETATM   16  C   UNL     1     -10.119  13.606  65.766  1.00  0.00    -0.298 C  
BRANCH  16  17
HETATM   17  N   UNL     1     -11.229  14.485  66.183  1.00  0.00    -0.334 NA 
HETATM   18  C   UNL     1     -12.397  13.722  66.691  1.00  0.00    -0.357 C  
HETATM   19  C   UNL     1     -12.097  12.878  67.950  1.00  0.00    -0.157 C  
HETATM   20  N   UNL     1     -11.507  13.713  68.999  1.00  0.00    -0.280 NA 
HETATM   21  C   UNL     1     -10.792  15.383  67.283  1.00  0.00    -0.316 C  
HETATM   22  C   UNL     1     -10.462  14.665  68.611  1.00  0.00    -0.244 C  
BRANCH  20  23
HETATM   23  C   UNL     1     -12.275  13.953  70.113  1.00  0.00    -0.358 A  
HETATM   24  N   UNL     1     -12.770  15.192  70.289  1.00  0.00    -0.330 NA 
HETATM   25  C   UNL     1     -13.574  15.408  71.342  1.00  0.00    -0.518 A  
HETATM   26  C   UNL     1     -13.896  14.441  72.258  1.00  0.00    -0.589 A  
HETATM   27  C   UNL     1     -13.341  13.212  72.014  1.00  0.00    -0.493 A  
HETATM   28  N   UNL     1     -12.551  12.945  70.960  1.00  0.00    -0.345 NA 
ENDBRANCH  20  23
ENDBRANCH  16  17
ENDBRANCH  15  16
ENDBRANCH  14  15
ENDBRANCH  13  14
ENDBRANCH   9  13
TORSDOF 6
ENDMDL
MODEL       18
REMARK 921   NORMALIZED FREE ENERGY PREDICTED BY IDOCK:   -6.23 KCAL/MOL
REMARK 922        TOTAL FREE ENERGY PREDICTED BY IDOCK:   -9.39 KCAL/MOL
REMARK 923 INTER-LIGAND FREE ENERGY PREDICTED BY IDOCK:   -8.65 KCAL/MOL
REMARK 924 INTRA-LIGAND FREE ENERGY PREDICTED BY IDOCK:   -0.74 KCAL/MOL
REMARK 927      BINDING AFFINITY PREDICTED BY RF-SCORE:    0.00 PKD
ROOT
HETATM    1  O   UNL     1      -8.905   9.632  70.703  1.00  0.00    -0.200 OA 
HETATM    2  C   UNL     1      -9.742   8.790  70.388  1.00  0.00    -0.180 C  
HETATM    3  C   UNL     1     -10.675   8.193  71.409  1.00  0.00    -0.280 C  
HETATM    4  C   UNL     1     -10.855   6.679  71.249  1.00  0.00    -0.279 C  
HETATM    5  C   UNL     1     -11.087   6.329  69.779  1.00  0.00    -0.473 C  
HETATM    6  C   UNL     1     -12.062   6.225  72.108  1.00  0.00    -0.304 C  
HETATM    7  C   UNL     1     -10.104   7.009  68.861  1.00  0.00    -0.173 C  
HETATM    8  C   UNL     1     -11.530   5.174  73.070  1.00  0.00    -0.349 C  
HETATM    9  N   UNL     1      -9.983   8.365  69.094  1.00  0.00    -0.191 N  
HETATM   10  C   UNL     1     -10.065   5.531  73.236  1.00  0.00    -0.202 C  
HETATM   11  O   UNL     1      -9.531   6.398  67.964  1.00  0.00    -0.119 OA 
HETATM   12  C   UNL     1      -9.643   5.912  71.825  1.00  0.00    -0.171 C  
ENDROOT
BRANCH   9  13
HETATM   13  C   UNL     1      -9.476   9.191  68.015  1.00  0.00    -0.141 C  
BRANCH  13  14
HETATM   14  C   UNL     1     -10.642   9.704  67.160  1.00  0.00    -0.298 C  
BRANCH  14  15
HETATM   15  C   UNL     1     -11.107  11.095  67.571  1.00  0.00    -0.353 C  
BRANCH  15  16
HETATM   16  C   UNL     1     -10.867  12.163  66.498  1.00  0.00    -0.270 C  
BRANCH  16  17
HETATM   17  N   UNL     1     -11.895  13.223  66.475  1.00  0.00    -0.380 NA 
HETATM   18  C   UNL     1     -11.886  14.047  67.710  1.00  0.00    -0.384 C  
HETATM   19  C   UNL     1     -10.565  14.812  67.946  1.00  0.00    -0.248 C  
HETATM   20  N   UNL     1     -10.217  15.612  66.768  1.00  0.00    -0.269 NA 
HETATM   21  C   UNL     1     -11.655  14.151  65.339  1.00  0.00    -0.334 C  
HETATM   22  C   UNL     1     -10.360  14.988  65.450  1.00  0.00    -0.383 C  
BRANCH  20  23
HETATM   23  C   UNL     1     -10.297  16.978  66.894  1.00  0.00    -0.303 A  
HETATM   24  N   UNL     1     -10.219  17.507  68.130  1.00  0.00    -0.338 NA 
HETATM   25  C   UNL     1     -10.231  18.845  68.246  1.00  0.00    -0.380 A  
HETATM   26  C   UNL     1     -10.341  19.695  67.178  1.00  0.00    -0.581 A  
HETATM   27  C   UNL     1     -10.429  19.077  65.958  1.00  0.00    -0.458 A  
HETATM   28  N   UNL     1     -10.397  17.743  65.793  1.00  0.00    -0.609 NA 
ENDBRANCH  20  23
ENDBRANCH  16  17
ENDBRANCH  15  16
ENDBRANCH  14  15
ENDBRANCH  13  14
ENDBRANCH   9  13
TORSDOF 6
ENDMDL
MODEL       19
REMARK 921   NORMALIZED FREE ENERGY PREDICTED BY IDOCK:   -6.23 KCAL/MOL
REMARK 922        TOTAL FREE ENERGY PREDICTED BY IDOCK:   -9.38 KCAL/MOL
REMARK 923 INTER-LIGAND FREE ENERGY PREDICTED BY IDOCK:   -8.50 KCAL/MOL
REMARK 924 INTRA-LIGAND FREE ENERGY PREDICTED BY IDOCK:   -0.89 KCAL/MOL
REMARK 927      BINDING AFFINITY PREDICTED BY RF-SCORE:    0.00 PKD
ROOT
HETATM    1  O   UNL     1     -10.607   9.766  67.849  1.00  0.00    -0.227 OA 
HETATM    2  C   UNL     1     -10.233   8.890  67.072  1.00  0.00    -0.275 C  
HETATM    3  C   UNL     1     -10.704   7.467  67.212  1.00  0.00    -0.379 C  
HETATM    4  C   UNL     1      -9.586   6.438  67.008  1.00  0.00    -0.168 C  
HETATM    5  C   UNL     1      -8.758   6.799  65.774  1.00  0.00    -0.122 C  
HETATM    6  C   UNL     1     -10.221   5.035  66.839  1.00  0.00    -0.270 C  
HETATM    7  C   UNL     1      -8.373   8.256  65.742  1.00  0.00    -0.137 C  
HETATM    8  C   UNL     1      -9.623   4.163  67.933  1.00  0.00    -0.203 C  
HETATM    9  N   UNL     1      -9.435   9.110  65.964  1.00  0.00    -0.236 N  
HETATM   10  C   UNL     1      -9.265   5.142  69.034  1.00  0.00    -0.156 C  
HETATM   11  O   UNL     1      -7.228   8.614  65.479  1.00  0.00    -0.081 OA 
HETATM   12  C   UNL     1      -8.698   6.328  68.267  1.00  0.00    -0.115 C  
ENDROOT
BRANCH   9  13
HETATM   13  C   UNL     1      -9.313  10.475  65.489  1.00  0.00    -0.202 C  
BRANCH  13  14
HETATM   14  C   UNL     1     -10.160  10.664  64.225  1.00  0.00    -0.411 C  
BRANCH  14  15
HETATM   15  C   UNL     1     -11.260  11.702  64.402  1.00  0.00    -0.360 C  
BRANCH  15  16
HETATM   16  C   UNL     1     -11.179  12.460  65.733  1.00  0.00    -0.333 C  
BRANCH  16  17
HETATM   17  N   UNL     1     -12.110  13.601  65.825  1.00  0.00    -0.401 NA 
HETATM   18  C   UNL     1     -12.035  14.290  67.139  1.00  0.00    -0.417 C  
HETATM   19  C   UNL     1     -10.654  14.909  67.446  1.00  0.00    -0.263 C  
HETATM   20  N   UNL     1     -10.233  15.793  66.355  1.00  0.00    -0.280 NA 
HETATM   21  C   UNL     1     -11.787  14.617  64.789  1.00  0.00    -0.440 C  
HETATM   22  C   UNL     1     -10.425  15.323  64.980  1.00  0.00    -0.382 C  
BRANCH  20  23
HETATM   23  C   UNL     1     -10.195  17.140  66.622  1.00  0.00    -0.319 A  
HETATM   24  N   UNL     1     -10.417  17.995  65.605  1.00  0.00    -0.621 NA 
HETATM   25  C   UNL     1     -10.445  19.309  65.880  1.00  0.00    -0.451 A  
HETATM   26  C   UNL     1     -10.236  19.824  67.132  1.00  0.00    -0.574 A  
HETATM   27  C   UNL     1     -10.005  18.889  68.106  1.00  0.00    -0.376 A  
HETATM   28  N   UNL     1      -9.992  17.564  67.881  1.00  0.00    -0.297 NA 
ENDBRANCH  20  23
ENDBRANCH  16  17
ENDBRANCH  15  16
ENDBRANCH  14  15
ENDBRANCH  13  14
ENDBRANCH   9  13
TORSDOF 6
ENDMDL
MODEL       20
REMARK 921   NORMALIZED FREE ENERGY PREDICTED BY IDOCK:   -6.20 KCAL/MOL
REMARK 922        TOTAL FREE ENERGY PREDICTED BY IDOCK:   -9.35 KCAL/MOL
REMARK 923 INTER-LIGAND FREE ENERGY PREDICTED BY IDOCK:   -7.98 KCAL/MOL
REMARK 924 INTRA-LIGAND FREE ENERGY PREDICTED BY IDOCK:   -1.37 KCAL/MOL
REMARK 927      BINDING AFFINITY PREDICTED BY RF-SCORE:    0.00 PKD
ROOT
HETATM    1  O   UNL     1     -10.955   5.826  66.697  1.00  0.00    -0.277 OA 
HETATM    2  C   UNL     1     -10.359   6.735  67.271  1.00  0.00    -0.244 C  
HETATM    3  C   UNL     1     -10.778   8.172  67.108  1.00  0.00    -0.264 C  
HETATM    4  C   UNL     1      -9.594   9.130  66.934  1.00  0.00    -0.233 C  
HETATM    5  C   UNL     1      -8.507   8.815  67.962  1.00  0.00    -0.126 C  
HETATM    6  C   UNL     1     -10.097  10.585  67.111  1.00  0.00    -0.253 C  
HETATM    7  C   UNL     1      -8.199   7.342  68.044  1.00  0.00    -0.124 C  
HETATM    8  C   UNL     1      -9.744  11.317  65.825  1.00  0.00    -0.263 C  
HETATM    9  N   UNL     1      -9.324   6.552  68.171  1.00  0.00    -0.111 N  
HETATM   10  C   UNL     1      -9.718  10.225  64.772  1.00  0.00    -0.397 C  
HETATM   11  O   UNL     1      -7.044   6.925  68.058  1.00  0.00    -0.080 OA 
HETATM   12  C   UNL     1      -9.039   9.070  65.494  1.00  0.00    -0.271 C  
ENDROOT
BRANCH   9  13
HETATM   13  C   UNL     1      -9.157   5.226  68.735  1.00  0.00    -0.112 C  
BRANCH  13  14
HETATM   14  C   UNL     1     -10.179   5.006  69.858  1.00  0.00    -0.340 C  
BRANCH  14  15
HETATM   15  C   UNL     1     -10.117   6.086  70.930  1.00  0.00    -0.246 C  
BRANCH  15  16
HETATM   16  C   UNL     1     -11.452   6.807  71.149  1.00  0.00    -0.314 C  
BRANCH  16  17
HETATM   17  N   UNL     1     -11.418   7.802  72.240  1.00  0.00    -0.309 NA 
HETATM   18  C   UNL     1     -10.494   8.928  71.952  1.00  0.00    -0.345 C  
HETATM   19  C   UNL     1     -10.879   9.754  70.705  1.00  0.00    -0.329 C  
HETATM   20  N   UNL     1     -12.268  10.214  70.804  1.00  0.00    -0.317 NA 
HETATM   21  C   UNL     1     -12.766   8.394  72.442  1.00  0.00    -0.296 C  
HETATM   22  C   UNL     1     -13.276   9.257  71.265  1.00  0.00    -0.261 C  
BRANCH  20  23
HETATM   23  C   UNL     1     -12.468  11.562  70.981  1.00  0.00    -0.356 A  
HETATM   24  N   UNL     1     -11.900  12.410  70.103  1.00  0.00    -0.305 NA 
HETATM   25  C   UNL     1     -12.151  13.722  70.239  1.00  0.00    -0.355 A  
HETATM   26  C   UNL     1     -12.933  14.242  71.236  1.00  0.00    -0.422 A  
HETATM   27  C   UNL     1     -13.461  13.315  72.095  1.00  0.00    -0.562 A  
HETATM   28  N   UNL     1     -13.257  11.991  71.982  1.00  0.00    -0.465 NA 
ENDBRANCH  20  23
ENDBRANCH  16  17
ENDBRANCH  15  16
ENDBRANCH  14  15
ENDBRANCH  13  14
ENDBRANCH   9  13
TORSDOF 6
ENDMDL
MODEL       21
REMARK 921   NORMALIZED FREE ENERGY PREDICTED BY IDOCK:   -6.19 KCAL/MOL
REMARK 922        TOTAL FREE ENERGY PREDICTED BY IDOCK:   -9.33 KCAL/MOL
REMARK 923 INTER-LIGAND FREE ENERGY PREDICTED BY IDOCK:   -9.10 KCAL/MOL
REMARK 924 INTRA-LIGAND FREE ENERGY PREDICTED BY IDOCK:   -0.24 KCAL/MOL
REMARK 927      BINDING AFFINITY PREDICTED BY RF-SCORE:    0.00 PKD
ROOT
HETATM    1  O   UNL     1      -9.397   9.528  68.997  1.00  0.00    -0.147 OA 
HETATM    2  C   UNL     1     -10.032   9.599  70.046  1.00  0.00    -0.247 C  
HETATM    3  C   UNL     1      -9.693   8.729  71.228  1.00  0.00    -0.335 C  
HETATM    4  C   UNL     1     -10.928   8.149  71.926  1.00  0.00    -0.338 C  
HETATM    5  C   UNL     1     -11.981   9.240  72.122  1.00  0.00    -0.316 C  
HETATM    6  C   UNL     1     -10.500   7.561  73.294  1.00  0.00    -0.426 C  
HETATM    7  C   UNL     1     -12.210  10.054  70.874  1.00  0.00    -0.346 C  
HETATM    8  C   UNL     1     -10.911   6.097  73.275  1.00  0.00    -0.268 C  
HETATM    9  N   UNL     1     -11.042  10.511  70.295  1.00  0.00    -0.303 N  
HETATM   10  C   UNL     1     -10.895   5.726  71.804  1.00  0.00    -0.311 C  
HETATM   11  O   UNL     1     -13.341  10.318  70.475  1.00  0.00    -0.253 OA 
HETATM   12  C   UNL     1     -11.501   6.951  71.136  1.00  0.00    -0.347 C  
ENDROOT
BRANCH   9  13
HETATM   13  C   UNL     1     -11.130  11.664  69.420  1.00  0.00    -0.206 C  
BRANCH  13  14
HETATM   14  C   UNL     1     -11.822  11.272  68.109  1.00  0.00    -0.276 C  
BRANCH  14  15
HETATM   15  C   UNL     1     -10.967  11.563  66.882  1.00  0.00    -0.350 C  
BRANCH  15  16
HETATM   16  C   UNL     1     -10.307  12.947  66.910  1.00  0.00    -0.243 C  
BRANCH  16  17
HETATM   17  N   UNL     1     -11.141  14.015  66.324  1.00  0.00    -0.304 NA 
HETATM   18  C   UNL     1     -11.652  14.961  67.348  1.00  0.00    -0.332 C  
HETATM   19  C   UNL     1     -10.544  15.726  68.106  1.00  0.00    -0.275 C  
HETATM   20  N   UNL     1      -9.644  16.395  67.162  1.00  0.00    -0.231 NA 
HETATM   21  C   UNL     1     -10.349  14.817  65.356  1.00  0.00    -0.386 C  
HETATM   22  C   UNL     1      -9.202  15.641  65.986  1.00  0.00    -0.339 C  
BRANCH  20  23
HETATM   23  C   UNL     1      -9.689  17.767  67.121  1.00  0.00    -0.288 A  
HETATM   24  N   UNL     1     -10.312  18.412  68.126  1.00  0.00    -0.375 NA 
HETATM   25  C   UNL     1     -10.298  19.755  68.120  1.00  0.00    -0.431 A  
HETATM   26  C   UNL     1      -9.705  20.500  67.135  1.00  0.00    -0.581 A  
HETATM   27  C   UNL     1      -9.105  19.768  66.144  1.00  0.00    -0.343 A  
HETATM   28  N   UNL     1      -9.074  18.424  66.122  1.00  0.00    -0.499 NA 
ENDBRANCH  20  23
ENDBRANCH  16  17
ENDBRANCH  15  16
ENDBRANCH  14  15
ENDBRANCH  13  14
ENDBRANCH   9  13
TORSDOF 6
ENDMDL
MODEL       22
REMARK 921   NORMALIZED FREE ENERGY PREDICTED BY IDOCK:   -6.11 KCAL/MOL
REMARK 922        TOTAL FREE ENERGY PREDICTED BY IDOCK:   -9.23 KCAL/MOL
REMARK 923 INTER-LIGAND FREE ENERGY PREDICTED BY IDOCK:   -8.51 KCAL/MOL
REMARK 924 INTRA-LIGAND FREE ENERGY PREDICTED BY IDOCK:   -0.71 KCAL/MOL
REMARK 927      BINDING AFFINITY PREDICTED BY RF-SCORE:    0.00 PKD
ROOT
HETATM    1  O   UNL     1     -12.243  15.695  68.888  1.00  0.00    -0.251 OA 
HETATM    2  C   UNL     1     -11.246  15.769  68.175  1.00  0.00    -0.344 C  
HETATM    3  C   UNL     1     -10.109  16.698  68.511  1.00  0.00    -0.266 C  
HETATM    4  C   UNL     1      -9.557  17.443  67.290  1.00  0.00    -0.258 C  
HETATM    5  C   UNL     1      -9.365  16.473  66.124  1.00  0.00    -0.339 C  
HETATM    6  C   UNL     1      -8.207  18.099  67.672  1.00  0.00    -0.243 C  
HETATM    7  C   UNL     1     -10.563  15.584  65.909  1.00  0.00    -0.339 C  
HETATM    8  C   UNL     1      -8.367  19.589  67.409  1.00  0.00    -0.330 C  
HETATM    9  N   UNL     1     -11.011  14.976  67.066  1.00  0.00    -0.313 N  
HETATM   10  C   UNL     1      -9.856  19.835  67.567  1.00  0.00    -0.516 C  
HETATM   11  O   UNL     1     -11.030  15.392  64.790  1.00  0.00    -0.420 OA 
HETATM   12  C   UNL     1     -10.477  18.620  66.895  1.00  0.00    -0.449 C  
ENDROOT
BRANCH   9  13
HETATM   13  C   UNL     1     -11.802  13.768  66.930  1.00  0.00    -0.413 C  
BRANCH  13  14
HETATM   14  C   UNL     1     -11.032  12.574  67.508  1.00  0.00    -0.288 C  
BRANCH  14  15
HETATM   15  C   UNL     1     -11.575  12.121  68.857  1.00  0.00    -0.377 C  
BRANCH  15  16
HETATM   16  C   UNL     1     -11.524  10.602  69.059  1.00  0.00    -0.274 C  
BRANCH  16  17
HETATM   17  N   UNL     1     -10.562  10.172  70.093  1.00  0.00    -0.285 NA 
HETATM   18  C   UNL     1     -11.234   9.691  71.327  1.00  0.00    -0.376 C  
HETATM   19  C   UNL     1     -12.130   8.451  71.113  1.00  0.00    -0.249 C  
HETATM   20  N   UNL     1     -11.374   7.377  70.463  1.00  0.00    -0.278 NA 
HETATM   21  C   UNL     1      -9.731   9.047  69.590  1.00  0.00    -0.172 C  
HETATM   22  C   UNL     1     -10.507   7.734  69.336  1.00  0.00    -0.220 C  
BRANCH  20  23
HETATM   23  C   UNL     1     -11.096   6.263  71.218  1.00  0.00    -0.289 A  
HETATM   24  N   UNL     1     -10.117   5.439  70.797  1.00  0.00    -0.206 NA 
HETATM   25  C   UNL     1      -9.801   4.387  71.569  1.00  0.00    -0.189 A  
HETATM   26  C   UNL     1     -10.438   4.097  72.748  1.00  0.00    -0.241 A  
HETATM   27  C   UNL     1     -11.429   4.976  73.097  1.00  0.00    -0.282 A  
HETATM   28  N   UNL     1     -11.762   6.055  72.367  1.00  0.00    -0.305 NA 
ENDBRANCH  20  23
ENDBRANCH  16  17
ENDBRANCH  15  16
ENDBRANCH  14  15
ENDBRANCH  13  14
ENDBRANCH   9  13
TORSDOF 6
ENDMDL
MODEL       23
REMARK 921   NORMALIZED FREE ENERGY PREDICTED BY IDOCK:   -6.10 KCAL/MOL
REMARK 922        TOTAL FREE ENERGY PREDICTED BY IDOCK:   -9.22 KCAL/MOL
REMARK 923 INTER-LIGAND FREE ENERGY PREDICTED BY IDOCK:   -8.59 KCAL/MOL
REMARK 924 INTRA-LIGAND FREE ENERGY PREDICTED BY IDOCK:   -0.63 KCAL/MOL
REMARK 927      BINDING AFFINITY PREDICTED BY RF-SCORE:    0.00 PKD
ROOT
HETATM    1  O   UNL     1      -8.814  11.616  68.568  1.00  0.00    -0.165 OA 
HETATM    2  C   UNL     1      -9.530  10.617  68.564  1.00  0.00    -0.176 C  
HETATM    3  C   UNL     1     -10.445  10.303  69.718  1.00  0.00    -0.300 C  
HETATM    4  C   UNL     1     -10.441   8.821  70.107  1.00  0.00    -0.230 C  
HETATM    5  C   UNL     1     -10.546   7.949  68.855  1.00  0.00    -0.165 C  
HETATM    6  C   UNL     1     -11.635   8.548  71.055  1.00  0.00    -0.317 C  
HETATM    7  C   UNL     1      -9.596   8.382  67.768  1.00  0.00    -0.156 C  
HETATM    8  C   UNL     1     -11.042   7.980  72.335  1.00  0.00    -0.416 C  
HETATM    9  N   UNL     1      -9.645   9.737  67.503  1.00  0.00    -0.147 N  
HETATM   10  C   UNL     1      -9.640   8.557  72.382  1.00  0.00    -0.356 C  
HETATM   11  O   UNL     1      -8.906   7.572  67.155  1.00  0.00    -0.122 OA 
HETATM   12  C   UNL     1      -9.184   8.467  70.933  1.00  0.00    -0.213 C  
ENDROOT
BRANCH   9  13
HETATM   13  C   UNL     1      -9.175  10.188  66.207  1.00  0.00    -0.157 C  
BRANCH  13  14
HETATM   14  C   UNL     1     -10.364  10.646  65.353  1.00  0.00    -0.303 C  
BRANCH  14  15
HETATM   15  C   UNL     1      -9.942  11.512  64.173  1.00  0.00    -0.327 C  
BRANCH  15  16
HETATM   16  C   UNL     1     -10.771  12.794  64.027  1.00  0.00    -0.426 C  
BRANCH  16  17
HETATM   17  N   UNL     1     -11.347  13.277  65.297  1.00  0.00    -0.292 NA 
HETATM   18  C   UNL     1     -10.308  13.745  66.249  1.00  0.00    -0.294 C  
HETATM   19  C   UNL     1      -9.479  14.943  65.735  1.00  0.00    -0.202 C  
HETATM   20  N   UNL     1     -10.361  16.040  65.325  1.00  0.00    -0.533 NA 
HETATM   21  C   UNL     1     -12.253  14.429  65.049  1.00  0.00    -0.414 C  
HETATM   22  C   UNL     1     -11.548  15.705  64.534  1.00  0.00    -0.262 C  
BRANCH  20  23
HETATM   23  C   UNL     1     -10.350  17.174  66.101  1.00  0.00    -0.322 A  
HETATM   24  N   UNL     1     -10.372  18.368  65.480  1.00  0.00    -0.521 NA 
HETATM   25  C   UNL     1     -10.428  19.475  66.239  1.00  0.00    -0.512 A  
HETATM   26  C   UNL     1     -10.440  19.451  67.609  1.00  0.00    -0.573 A  
HETATM   27  C   UNL     1     -10.403  18.198  68.162  1.00  0.00    -0.379 A  
HETATM   28  N   UNL     1     -10.371  17.064  67.441  1.00  0.00    -0.312 NA 
ENDBRANCH  20  23
ENDBRANCH  16  17
ENDBRANCH  15  16
ENDBRANCH  14  15
ENDBRANCH  13  14
ENDBRANCH   9  13
TORSDOF 6
ENDMDL
MODEL       24
REMARK 921   NORMALIZED FREE ENERGY PREDICTED BY IDOCK:   -6.09 KCAL/MOL
REMARK 922        TOTAL FREE ENERGY PREDICTED BY IDOCK:   -9.19 KCAL/MOL
REMARK 923 INTER-LIGAND FREE ENERGY PREDICTED BY IDOCK:   -7.92 KCAL/MOL
REMARK 924 INTRA-LIGAND FREE ENERGY PREDICTED BY IDOCK:   -1.27 KCAL/MOL
REMARK 927      BINDING AFFINITY PREDICTED BY RF-SCORE:    0.00 PKD
ROOT
HETATM    1  O   UNL     1      -6.860   8.581  69.004  1.00  0.00    -0.054 OA 
HETATM    2  C   UNL     1      -8.044   8.881  69.140  1.00  0.00    -0.117 C  
HETATM    3  C   UNL     1      -8.665   9.018  70.505  1.00  0.00    -0.238 C  
HETATM    4  C   UNL     1     -10.060   8.390  70.599  1.00  0.00    -0.220 C  
HETATM    5  C   UNL     1     -10.902   8.793  69.388  1.00  0.00    -0.123 C  
HETATM    6  C   UNL     1     -10.737   8.868  71.909  1.00  0.00    -0.426 C  
HETATM    7  C   UNL     1     -10.157   8.633  68.088  1.00  0.00    -0.197 C  
HETATM    8  C   UNL     1     -11.081   7.611  72.694  1.00  0.00    -0.412 C  
HETATM    9  N   UNL     1      -8.899   9.202  68.101  1.00  0.00    -0.129 N  
HETATM   10  C   UNL     1     -10.058   6.592  72.229  1.00  0.00    -0.191 C  
HETATM   11  O   UNL     1     -10.674   8.097  67.111  1.00  0.00    -0.316 OA 
HETATM   12  C   UNL     1      -9.969   6.853  70.733  1.00  0.00    -0.201 C  
ENDROOT
BRANCH   9  13
HETATM   13  C   UNL     1      -8.300   9.544  66.825  1.00  0.00    -0.116 C  
BRANCH  13  14
HETATM   14  C   UNL     1      -8.443  11.049  66.569  1.00  0.00    -0.161 C  
BRANCH  14  15
HETATM   15  C   UNL     1      -9.607  11.380  65.643  1.00  0.00    -0.258 C  
BRANCH  15  16
HETATM   16  C   UNL     1     -10.264  12.732  65.945  1.00  0.00    -0.287 C  
BRANCH  16  17
HETATM   17  N   UNL     1     -11.679  12.627  66.354  1.00  0.00    -0.389 NA 
HETATM   18  C   UNL     1     -11.859  11.776  67.557  1.00  0.00    -0.154 C  
HETATM   19  C   UNL     1     -11.145  12.310  68.819  1.00  0.00    -0.251 C  
HETATM   20  N   UNL     1     -11.538  13.698  69.082  1.00  0.00    -0.287 NA 
HETATM   21  C   UNL     1     -12.220  13.969  66.693  1.00  0.00    -0.428 C  
HETATM   22  C   UNL     1     -11.593  14.621  67.946  1.00  0.00    -0.348 C  
BRANCH  20  23
HETATM   23  C   UNL     1     -12.314  13.927  70.192  1.00  0.00    -0.334 A  
HETATM   24  N   UNL     1     -12.722  15.188  70.432  1.00  0.00    -0.352 NA 
HETATM   25  C   UNL     1     -13.535  15.401  71.480  1.00  0.00    -0.513 A  
HETATM   26  C   UNL     1     -13.948  14.408  72.329  1.00  0.00    -0.610 A  
HETATM   27  C   UNL     1     -13.478  13.158  72.023  1.00  0.00    -0.507 A  
HETATM   28  N   UNL     1     -12.683  12.896  70.971  1.00  0.00    -0.305 NA 
ENDBRANCH  20  23
ENDBRANCH  16  17
ENDBRANCH  15  16
ENDBRANCH  14  15
ENDBRANCH  13  14
ENDBRANCH   9  13
TORSDOF 6
ENDMDL
MODEL       25
REMARK 921   NORMALIZED FREE ENERGY PREDICTED BY IDOCK:   -6.06 KCAL/MOL
REMARK 922        TOTAL FREE ENERGY PREDICTED BY IDOCK:   -9.16 KCAL/MOL
REMARK 923 INTER-LIGAND FREE ENERGY PREDICTED BY IDOCK:   -7.87 KCAL/MOL
REMARK 924 INTRA-LIGAND FREE ENERGY PREDICTED BY IDOCK:   -1.29 KCAL/MOL
REMARK 927      BINDING AFFINITY PREDICTED BY RF-SCORE:    0.00 PKD
ROOT
HETATM    1  O   UNL     1     -12.914  14.154  65.421  1.00  0.00    -0.706 OA 
HETATM    2  C   UNL     1     -12.054  13.787  66.218  1.00  0.00    -0.446 C  
HETATM    3  C   UNL     1     -12.406  13.414  67.634  1.00  0.00    -0.023 C  
HETATM    4  C   UNL     1     -11.413  13.960  68.666  1.00  0.00    -0.333 C  
HETATM    5  C   UNL     1      -9.979  13.713  68.198  1.00  0.00    -0.246 C  
HETATM    6  C   UNL     1     -11.665  13.257  70.024  1.00  0.00    -0.295 C  
HETATM    7  C   UNL     1      -9.765  14.104  66.758  1.00  0.00    -0.277 C  
HETATM    8  C   UNL     1     -11.962  14.362  71.026  1.00  0.00    -0.389 C  
HETATM    9  N   UNL     1     -10.721  13.593  65.902  1.00  0.00    -0.278 N  
HETATM   10  C   UNL     1     -12.539  15.483  70.183  1.00  0.00    -0.304 C  
HETATM   11  O   UNL     1      -8.789  14.762  66.407  1.00  0.00    -0.233 OA 
HETATM   12  C   UNL     1     -11.664  15.460  68.938  1.00  0.00    -0.377 C  
ENDROOT
BRANCH   9  13
HETATM   13  C   UNL     1     -10.377  13.479  64.498  1.00  0.00    -0.358 C  
BRANCH  13  14
HETATM   14  C   UNL     1     -10.582  12.033  64.028  1.00  0.00    -0.423 C  
BRANCH  14  15
HETATM   15  C   UNL     1      -9.468  11.101  64.486  1.00  0.00    -0.254 C  
BRANCH  15  16
HETATM   16  C   UNL     1      -9.952   9.977  65.411  1.00  0.00    -0.294 C  
BRANCH  16  17
HETATM   17  N   UNL     1      -8.954   9.567  66.419  1.00  0.00    -0.149 NA 
HETATM   18  C   UNL     1      -9.087  10.325  67.689  1.00  0.00    -0.137 C  
HETATM   19  C   UNL     1     -10.443  10.125  68.402  1.00  0.00    -0.208 C  
HETATM   20  N   UNL     1     -10.712   8.698  68.601  1.00  0.00    -0.115 NA 
HETATM   21  C   UNL     1      -9.123   8.130  66.757  1.00  0.00    -0.157 C  
HETATM   22  C   UNL     1     -10.444   7.788  67.484  1.00  0.00    -0.268 C  
BRANCH  20  23
HETATM   23  C   UNL     1     -10.678   8.229  69.892  1.00  0.00    -0.234 A  
HETATM   24  N   UNL     1     -11.066   6.960  70.117  1.00  0.00    -0.281 NA 
HETATM   25  C   UNL     1     -10.971   6.482  71.369  1.00  0.00    -0.258 A  
HETATM   26  C   UNL     1     -10.523   7.226  72.429  1.00  0.00    -0.263 A  
HETATM   27  C   UNL     1     -10.161   8.510  72.118  1.00  0.00    -0.333 A  
HETATM   28  N   UNL     1     -10.218   9.022  70.876  1.00  0.00    -0.234 NA 
ENDBRANCH  20  23
ENDBRANCH  16  17
ENDBRANCH  15  16
ENDBRANCH  14  15
ENDBRANCH  13  14
ENDBRANCH   9  13
TORSDOF 6
ENDMDL
MODEL       26
REMARK 921   NORMALIZED FREE ENERGY PREDICTED BY IDOCK:   -6.02 KCAL/MOL
REMARK 922        TOTAL FREE ENERGY PREDICTED BY IDOCK:   -9.11 KCAL/MOL
REMARK 923 INTER-LIGAND FREE ENERGY PREDICTED BY IDOCK:   -8.21 KCAL/MOL
REMARK 924 INTRA-LIGAND FREE ENERGY PREDICTED BY IDOCK:   -0.90 KCAL/MOL
REMARK 927      BINDING AFFINITY PREDICTED BY RF-SCORE:    0.00 PKD
ROOT
HETATM    1  O   UNL     1      -8.712  14.702  66.622  1.00  0.00    -0.237 OA 
HETATM    2  C   UNL     1      -9.331  15.735  66.868  1.00  0.00    -0.227 C  
HETATM    3  C   UNL     1      -8.822  17.079  66.419  1.00  0.00    -0.313 C  
HETATM    4  C   UNL     1      -8.966  18.168  67.488  1.00  0.00    -0.257 C  
HETATM    5  C   UNL     1     -10.358  18.105  68.118  1.00  0.00    -0.393 C  
HETATM    6  C   UNL     1      -8.735  19.551  66.829  1.00  0.00    -0.358 C  
HETATM    7  C   UNL     1     -10.757  16.703  68.500  1.00  0.00    -0.351 C  
HETATM    8  C   UNL     1      -7.582  20.195  67.585  1.00  0.00    -0.339 C  
HETATM    9  N   UNL     1     -10.567  15.782  67.488  1.00  0.00    -0.303 N  
HETATM   10  C   UNL     1      -6.781  19.019  68.112  1.00  0.00    -0.256 C  
HETATM   11  O   UNL     1     -11.258  16.450  69.592  1.00  0.00    -0.323 OA 
HETATM   12  C   UNL     1      -7.859  18.043  68.559  1.00  0.00    -0.310 C  
ENDROOT
BRANCH   9  13
HETATM   13  C   UNL     1     -11.335  14.554  67.541  1.00  0.00    -0.340 C  
BRANCH  13  14
HETATM   14  C   UNL     1     -11.903  14.234  66.152  1.00  0.00    -0.413 C  
BRANCH  14  15
HETATM   15  C   UNL     1     -11.754  12.765  65.779  1.00  0.00    -0.449 C  
BRANCH  15  16
HETATM   16  C   UNL     1     -10.936  11.955  66.792  1.00  0.00    -0.292 C  
BRANCH  16  17
HETATM   17  N   UNL     1     -11.650  10.781  67.330  1.00  0.00    -0.438 NA 
HETATM   18  C   UNL     1     -10.756   9.611  67.521  1.00  0.00    -0.256 C  
HETATM   19  C   UNL     1      -9.615   9.850  68.534  1.00  0.00    -0.153 C  
HETATM   20  N   UNL     1     -10.154  10.324  69.812  1.00  0.00    -0.229 NA 
HETATM   21  C   UNL     1     -12.234  11.096  68.660  1.00  0.00     0.058 C  
HETATM   22  C   UNL     1     -11.195  11.354  69.777  1.00  0.00    -0.192 C  
BRANCH  20  23
HETATM   23  C   UNL     1     -10.074   9.465  70.881  1.00  0.00    -0.296 A  
HETATM   24  N   UNL     1      -8.861   9.228  71.416  1.00  0.00    -0.303 NA 
HETATM   25  C   UNL     1      -8.791   8.441  72.501  1.00  0.00    -0.225 A  
HETATM   26  C   UNL     1      -9.885   7.849  73.076  1.00  0.00    -0.355 A  
HETATM   27  C   UNL     1     -11.078   8.129  72.464  1.00  0.00    -0.377 A  
HETATM   28  N   UNL     1     -11.197   8.930  71.391  1.00  0.00    -0.286 NA 
ENDBRANCH  20  23
ENDBRANCH  16  17
ENDBRANCH  15  16
ENDBRANCH  14  15
ENDBRANCH  13  14
ENDBRANCH   9  13
TORSDOF 6
ENDMDL
MODEL       27
REMARK 921   NORMALIZED FREE ENERGY PREDICTED BY IDOCK:   -5.97 KCAL/MOL
REMARK 922        TOTAL FREE ENERGY PREDICTED BY IDOCK:   -9.04 KCAL/MOL
REMARK 923 INTER-LIGAND FREE ENERGY PREDICTED BY IDOCK:   -8.37 KCAL/MOL
REMARK 924 INTRA-LIGAND FREE ENERGY PREDICTED BY IDOCK:   -0.67 KCAL/MOL
REMARK 927      BINDING AFFINITY PREDICTED BY RF-SCORE:    0.00 PKD
ROOT
HETATM    1  O   UNL     1      -9.938   9.621  68.981  1.00  0.00    -0.172 OA 
HETATM    2  C   UNL     1     -10.424   9.594  70.109  1.00  0.00    -0.273 C  
HETATM    3  C   UNL     1      -9.742   8.866  71.238  1.00  0.00    -0.359 C  
HETATM    4  C   UNL     1     -10.711   8.060  72.110  1.00  0.00    -0.339 C  
HETATM    5  C   UNL     1     -11.943   8.901  72.443  1.00  0.00    -0.320 C  
HETATM    6  C   UNL     1      -9.981   7.635  73.409  1.00  0.00    -0.373 C  
HETATM    7  C   UNL     1     -12.514   9.596  71.233  1.00  0.00    -0.355 C  
HETATM    8  C   UNL     1     -10.056   6.116  73.461  1.00  0.00    -0.218 C  
HETATM    9  N   UNL     1     -11.567  10.273  70.490  1.00  0.00    -0.314 N  
HETATM   10  C   UNL     1     -10.159   5.699  72.007  1.00  0.00    -0.230 C  
HETATM   11  O   UNL     1     -13.719   9.591  70.997  1.00  0.00    -0.265 OA 
HETATM   12  C   UNL     1     -11.106   6.735  71.420  1.00  0.00    -0.293 C  
ENDROOT
BRANCH   9  13
HETATM   13  C   UNL     1     -12.027  11.343  69.627  1.00  0.00    -0.348 C  
BRANCH  13  14
HETATM   14  C   UNL     1     -12.162  12.641  70.433  1.00  0.00    -0.368 C  
BRANCH  14  15
HETATM   15  C   UNL     1     -12.233  13.879  69.548  1.00  0.00    -0.356 C  
BRANCH  15  16
HETATM   16  C   UNL     1     -10.895  14.239  68.892  1.00  0.00    -0.257 C  
BRANCH  16  17
HETATM   17  N   UNL     1     -10.094  15.206  69.669  1.00  0.00    -0.220 NA 
HETATM   18  C   UNL     1      -8.689  15.290  69.194  1.00  0.00    -0.238 C  
HETATM   19  C   UNL     1      -8.546  15.774  67.734  1.00  0.00    -0.159 C  
HETATM   20  N   UNL     1      -9.251  17.045  67.544  1.00  0.00    -0.230 NA 
HETATM   21  C   UNL     1     -10.669  16.571  69.546  1.00  0.00    -0.321 C  
HETATM   22  C   UNL     1     -10.587  17.182  68.128  1.00  0.00    -0.380 C  
BRANCH  20  23
HETATM   23  C   UNL     1      -8.479  18.161  67.325  1.00  0.00    -0.242 A  
HETATM   24  N   UNL     1      -8.208  18.506  66.052  1.00  0.00    -0.491 NA 
HETATM   25  C   UNL     1      -7.509  19.632  65.838  1.00  0.00    -0.316 A  
HETATM   26  C   UNL     1      -7.040  20.434  66.846  1.00  0.00    -0.328 A  
HETATM   27  C   UNL     1      -7.347  20.005  68.110  1.00  0.00    -0.280 A  
HETATM   28  N   UNL     1      -8.064  18.898  68.370  1.00  0.00    -0.328 NA 
ENDBRANCH  20  23
ENDBRANCH  16  17
ENDBRANCH  15  16
ENDBRANCH  14  15
ENDBRANCH  13  14
ENDBRANCH   9  13
TORSDOF 6
ENDMDL
MODEL       28
REMARK 921   NORMALIZED FREE ENERGY PREDICTED BY IDOCK:   -5.97 KCAL/MOL
REMARK 922        TOTAL FREE ENERGY PREDICTED BY IDOCK:   -9.03 KCAL/MOL
REMARK 923 INTER-LIGAND FREE ENERGY PREDICTED BY IDOCK:   -8.14 KCAL/MOL
REMARK 924 INTRA-LIGAND FREE ENERGY PREDICTED BY IDOCK:   -0.89 KCAL/MOL
REMARK 927      BINDING AFFINITY PREDICTED BY RF-SCORE:    0.00 PKD
ROOT
HETATM    1  O   UNL     1     -11.161  18.983  67.495  1.00  0.00    -0.381 OA 
HETATM    2  C   UNL     1     -10.118  18.562  67.992  1.00  0.00    -0.371 C  
HETATM    3  C   UNL     1      -9.116  19.497  68.617  1.00  0.00    -0.396 C  
HETATM    4  C   UNL     1      -7.666  19.155  68.257  1.00  0.00    -0.350 C  
HETATM    5  C   UNL     1      -7.428  17.652  68.402  1.00  0.00    -0.253 C  
HETATM    6  C   UNL     1      -6.718  19.943  69.195  1.00  0.00    -0.359 C  
HETATM    7  C   UNL     1      -8.513  16.830  67.756  1.00  0.00    -0.193 C  
HETATM    8  C   UNL     1      -5.820  20.776  68.293  1.00  0.00    -0.368 C  
HETATM    9  N   UNL     1      -9.788  17.225  68.113  1.00  0.00    -0.277 N  
HETATM   10  C   UNL     1      -6.652  20.995  67.043  1.00  0.00    -0.413 C  
HETATM   11  O   UNL     1      -8.253  15.870  67.036  1.00  0.00    -0.179 OA 
HETATM   12  C   UNL     1      -7.318  19.644  66.833  1.00  0.00    -0.246 C  
ENDROOT
BRANCH   9  13
HETATM   13  C   UNL     1     -10.858  16.257  67.969  1.00  0.00    -0.339 C  
BRANCH  13  14
HETATM   14  C   UNL     1     -11.455  15.932  69.344  1.00  0.00    -0.351 C  
BRANCH  14  15
HETATM   15  C   UNL     1     -12.227  14.619  69.356  1.00  0.00    -0.270 C  
BRANCH  15  16
HETATM   16  C   UNL     1     -11.370  13.401  68.992  1.00  0.00    -0.287 C  
BRANCH  16  17
HETATM   17  N   UNL     1     -11.986  12.523  67.978  1.00  0.00    -0.363 NA 
HETATM   18  C   UNL     1     -11.813  13.041  66.598  1.00  0.00    -0.393 C  
HETATM   19  C   UNL     1     -10.339  13.153  66.148  1.00  0.00    -0.284 C  
HETATM   20  N   UNL     1      -9.650  11.872  66.329  1.00  0.00    -0.224 NA 
HETATM   21  C   UNL     1     -11.361  11.176  68.012  1.00  0.00    -0.312 C  
HETATM   22  C   UNL     1      -9.877  11.141  67.578  1.00  0.00    -0.177 C  
BRANCH  20  23
HETATM   23  C   UNL     1      -9.287  11.192  65.191  1.00  0.00    -0.213 A  
HETATM   24  N   UNL     1     -10.051  11.341  64.092  1.00  0.00    -0.290 NA 
HETATM   25  C   UNL     1      -9.659  10.729  62.963  1.00  0.00    -0.353 A  
HETATM   26  C   UNL     1      -8.539   9.943  62.879  1.00  0.00    -0.194 A  
HETATM   27  C   UNL     1      -7.827   9.832  64.043  1.00  0.00    -0.141 A  
HETATM   28  N   UNL     1      -8.168  10.446  65.189  1.00  0.00    -0.161 NA 
ENDBRANCH  20  23
ENDBRANCH  16  17
ENDBRANCH  15  16
ENDBRANCH  14  15
ENDBRANCH  13  14
ENDBRANCH   9  13
TORSDOF 6
ENDMDL
MODEL       29
REMARK 921   NORMALIZED FREE ENERGY PREDICTED BY IDOCK:   -5.89 KCAL/MOL
REMARK 922        TOTAL FREE ENERGY PREDICTED BY IDOCK:   -8.93 KCAL/MOL
REMARK 923 INTER-LIGAND FREE ENERGY PREDICTED BY IDOCK:   -7.75 KCAL/MOL
REMARK 924 INTRA-LIGAND FREE ENERGY PREDICTED BY IDOCK:   -1.18 KCAL/MOL
REMARK 927      BINDING AFFINITY PREDICTED BY RF-SCORE:    0.00 PKD
ROOT
HETATM    1  O   UNL     1     -10.768  17.844  68.201  1.00  0.00    -0.367 OA 
HETATM    2  C   UNL     1     -11.008  16.651  68.366  1.00  0.00    -0.345 C  
HETATM    3  C   UNL     1     -12.134  16.194  69.256  1.00  0.00     0.030 C  
HETATM    4  C   UNL     1     -11.757  15.005  70.145  1.00  0.00    -0.340 C  
HETATM    5  C   UNL     1     -11.022  13.946  69.324  1.00  0.00    -0.222 C  
HETATM    6  C   UNL     1     -13.048  14.409  70.760  1.00  0.00    -0.344 C  
HETATM    7  C   UNL     1      -9.937  14.535  68.459  1.00  0.00    -0.238 C  
HETATM    8  C   UNL     1     -12.868  14.467  72.269  1.00  0.00    -0.427 C  
HETATM    9  N   UNL     1     -10.356  15.619  67.714  1.00  0.00    -0.260 N  
HETATM   10  C   UNL     1     -11.917  15.629  72.485  1.00  0.00    -0.567 C  
HETATM   11  O   UNL     1      -8.817  14.035  68.401  1.00  0.00    -0.179 OA 
HETATM   12  C   UNL     1     -10.912  15.463  71.355  1.00  0.00    -0.200 C  
ENDROOT
BRANCH   9  13
HETATM   13  C   UNL     1      -9.596  15.956  66.526  1.00  0.00    -0.268 C  
BRANCH  13  14
HETATM   14  C   UNL     1     -10.544  16.134  65.334  1.00  0.00    -0.399 C  
BRANCH  14  15
HETATM   15  C   UNL     1     -11.514  14.971  65.174  1.00  0.00    -0.339 C  
BRANCH  15  16
HETATM   16  C   UNL     1     -10.953  13.816  64.336  1.00  0.00    -0.343 C  
BRANCH  16  17
HETATM   17  N   UNL     1     -11.756  12.580  64.414  1.00  0.00    -0.346 NA 
HETATM   18  C   UNL     1     -11.220  11.500  63.547  1.00  0.00    -0.322 C  
HETATM   19  C   UNL     1      -9.793  11.042  63.923  1.00  0.00    -0.317 C  
HETATM   20  N   UNL     1      -9.729  10.672  65.339  1.00  0.00    -0.232 NA 
HETATM   21  C   UNL     1     -11.760  12.053  65.804  1.00  0.00    -0.245 C  
HETATM   22  C   UNL     1     -10.387  11.552  66.308  1.00  0.00    -0.239 C  
BRANCH  20  23
HETATM   23  C   UNL     1      -9.553   9.340  65.630  1.00  0.00    -0.254 A  
HETATM   24  N   UNL     1      -8.595   8.667  64.966  1.00  0.00    -0.180 NA 
HETATM   25  C   UNL     1      -8.379   7.383  65.297  1.00  0.00    -0.104 A  
HETATM   26  C   UNL     1      -9.098   6.720  66.256  1.00  0.00    -0.165 A  
HETATM   27  C   UNL     1     -10.062   7.472  66.875  1.00  0.00    -0.266 A  
HETATM   28  N   UNL     1     -10.295   8.765  66.592  1.00  0.00    -0.265 NA 
ENDBRANCH  20  23
ENDBRANCH  16  17
ENDBRANCH  15  16
ENDBRANCH  14  15
ENDBRANCH  13  14
ENDBRANCH   9  13
TORSDOF 6
ENDMDL
MODEL       30
REMARK 921   NORMALIZED FREE ENERGY PREDICTED BY IDOCK:   -5.87 KCAL/MOL
REMARK 922        TOTAL FREE ENERGY PREDICTED BY IDOCK:   -8.90 KCAL/MOL
REMARK 923 INTER-LIGAND FREE ENERGY PREDICTED BY IDOCK:   -8.16 KCAL/MOL
REMARK 924 INTRA-LIGAND FREE ENERGY PREDICTED BY IDOCK:   -0.74 KCAL/MOL
REMARK 927      BINDING AFFINITY PREDICTED BY RF-SCORE:    0.00 PKD
ROOT
HETATM    1  O   UNL     1     -12.039  12.841  65.671  1.00  0.00    -0.429 OA 
HETATM    2  C   UNL     1     -11.388  13.341  66.585  1.00  0.00    -0.321 C  
HETATM    3  C   UNL     1     -11.704  14.717  67.110  1.00  0.00    -0.392 C  
HETATM    4  C   UNL     1     -10.455  15.565  67.372  1.00  0.00    -0.281 C  
HETATM    5  C   UNL     1      -9.405  14.740  68.117  1.00  0.00    -0.197 C  
HETATM    6  C   UNL     1     -10.857  16.806  68.208  1.00  0.00    -0.366 C  
HETATM    7  C   UNL     1      -9.202  13.377  67.507  1.00  0.00    -0.219 C  
HETATM    8  C   UNL     1     -10.438  18.021  67.395  1.00  0.00    -0.399 C  
HETATM    9  N   UNL     1     -10.381  12.695  67.279  1.00  0.00    -0.224 N  
HETATM   10  C   UNL     1     -10.474  17.537  65.958  1.00  0.00    -0.274 C  
HETATM   11  O   UNL     1      -8.079  12.923  67.304  1.00  0.00    -0.176 OA 
HETATM   12  C   UNL     1      -9.887  16.137  66.054  1.00  0.00    -0.375 C  
ENDROOT
BRANCH   9  13
HETATM   13  C   UNL     1     -10.314  11.251  67.167  1.00  0.00    -0.209 C  
BRANCH  13  14
HETATM   14  C   UNL     1     -11.441  10.612  67.988  1.00  0.00    -0.289 C  
BRANCH  14  15
HETATM   15  C   UNL     1     -11.456  11.086  69.436  1.00  0.00    -0.364 C  
BRANCH  15  16
HETATM   16  C   UNL     1     -12.391  10.271  70.337  1.00  0.00    -0.238 C  
BRANCH  16  17
HETATM   17  N   UNL     1     -11.752   9.794  71.579  1.00  0.00    -0.389 NA 
HETATM   18  C   UNL     1     -12.570   8.772  72.281  1.00  0.00    -0.394 C  
HETATM   19  C   UNL     1     -12.803   7.483  71.461  1.00  0.00    -0.360 C  
HETATM   20  N   UNL     1     -11.526   6.926  71.007  1.00  0.00    -0.295 NA 
HETATM   21  C   UNL     1     -10.442   9.162  71.277  1.00  0.00    -0.328 C  
HETATM   22  C   UNL     1     -10.530   7.851  70.460  1.00  0.00    -0.214 C  
BRANCH  20  23
HETATM   23  C   UNL     1     -11.124   5.740  71.574  1.00  0.00    -0.214 A  
HETATM   24  N   UNL     1     -10.241   4.980  70.898  1.00  0.00    -0.228 NA 
HETATM   25  C   UNL     1      -9.799   3.855  71.482  1.00  0.00    -0.177 A  
HETATM   26  C   UNL     1     -10.216   3.430  72.716  1.00  0.00    -0.244 A  
HETATM   27  C   UNL     1     -11.123   4.252  73.330  1.00  0.00    -0.280 A  
HETATM   28  N   UNL     1     -11.575   5.399  72.793  1.00  0.00    -0.285 NA 
ENDBRANCH  20  23
ENDBRANCH  16  17
ENDBRANCH  15  16
ENDBRANCH  14  15
ENDBRANCH  13  14
ENDBRANCH   9  13
TORSDOF 6
ENDMDL
MODEL       31
REMARK 921   NORMALIZED FREE ENERGY PREDICTED BY IDOCK:   -5.85 KCAL/MOL
REMARK 922        TOTAL FREE ENERGY PREDICTED BY IDOCK:   -8.88 KCAL/MOL
REMARK 923 INTER-LIGAND FREE ENERGY PREDICTED BY IDOCK:   -7.42 KCAL/MOL
REMARK 924 INTRA-LIGAND FREE ENERGY PREDICTED BY IDOCK:   -1.46 KCAL/MOL
REMARK 927      BINDING AFFINITY PREDICTED BY RF-SCORE:    0.00 PKD
ROOT
HETATM    1  O   UNL     1      -8.904  11.160  62.604  1.00  0.00    -0.292 OA 
HETATM    2  C   UNL     1      -9.438  11.183  63.710  1.00  0.00    -0.235 C  
HETATM    3  C   UNL     1     -10.842  11.697  63.892  1.00  0.00    -0.471 C  
HETATM    4  C   UNL     1     -11.005  12.586  65.129  1.00  0.00    -0.332 C  
HETATM    5  C   UNL     1     -10.319  11.942  66.334  1.00  0.00    -0.252 C  
HETATM    6  C   UNL     1     -12.515  12.783  65.411  1.00  0.00    -0.478 C  
HETATM    7  C   UNL     1      -8.931  11.448  66.014  1.00  0.00    -0.197 C  
HETATM    8  C   UNL     1     -12.762  14.284  65.384  1.00  0.00    -0.385 C  
HETATM    9  N   UNL     1      -8.872  10.679  64.868  1.00  0.00    -0.193 N  
HETATM   10  C   UNL     1     -11.680  14.821  64.468  1.00  0.00    -0.398 C  
HETATM   11  O   UNL     1      -7.980  11.674  66.756  1.00  0.00    -0.161 OA 
HETATM   12  C   UNL     1     -10.458  14.008  64.867  1.00  0.00    -0.453 C  
ENDROOT
BRANCH   9  13
HETATM   13  C   UNL     1      -7.752   9.771  64.722  1.00  0.00    -0.128 C  
BRANCH  13  14
HETATM   14  C   UNL     1      -8.264   8.337  64.536  1.00  0.00    -0.138 C  
BRANCH  14  15
HETATM   15  C   UNL     1      -7.810   7.400  65.648  1.00  0.00    -0.111 C  
BRANCH  15  16
HETATM   16  C   UNL     1      -7.630   8.097  67.001  1.00  0.00    -0.096 C  
BRANCH  16  17
HETATM   17  N   UNL     1      -8.279   7.391  68.124  1.00  0.00    -0.124 NA 
HETATM   18  C   UNL     1      -8.130   8.115  69.412  1.00  0.00    -0.116 C  
HETATM   19  C   UNL     1      -8.783   9.516  69.424  1.00  0.00    -0.165 C  
HETATM   20  N   UNL     1     -10.189   9.430  69.019  1.00  0.00    -0.198 NA 
HETATM   21  C   UNL     1      -9.737   7.254  67.875  1.00  0.00    -0.140 C  
HETATM   22  C   UNL     1     -10.519   8.588  67.867  1.00  0.00    -0.201 C  
BRANCH  20  23
HETATM   23  C   UNL     1     -11.134   9.673  69.986  1.00  0.00    -0.255 A  
HETATM   24  N   UNL     1     -11.652  10.913  70.070  1.00  0.00    -0.312 NA 
HETATM   25  C   UNL     1     -12.623  11.132  70.972  1.00  0.00    -0.403 A  
HETATM   26  C   UNL     1     -13.095  10.168  71.824  1.00  0.00    -0.568 A  
HETATM   27  C   UNL     1     -12.506   8.939  71.683  1.00  0.00    -0.344 A  
HETATM   28  N   UNL     1     -11.549   8.669  70.778  1.00  0.00    -0.270 NA 
ENDBRANCH  20  23
ENDBRANCH  16  17
ENDBRANCH  15  16
ENDBRANCH  14  15
ENDBRANCH  13  14
ENDBRANCH   9  13
TORSDOF 6
ENDMDL
MODEL       32
REMARK 921   NORMALIZED FREE ENERGY PREDICTED BY IDOCK:   -5.84 KCAL/MOL
REMARK 922        TOTAL FREE ENERGY PREDICTED BY IDOCK:   -8.86 KCAL/MOL
REMARK 923 INTER-LIGAND FREE ENERGY PREDICTED BY IDOCK:   -8.01 KCAL/MOL
REMARK 924 INTRA-LIGAND FREE ENERGY PREDICTED BY IDOCK:   -0.85 KCAL/MOL
REMARK 927      BINDING AFFINITY PREDICTED BY RF-SCORE:    0.00 PKD
ROOT
HETATM    1  O   UNL     1     -10.207   9.861  69.323  1.00  0.00    -0.184 OA 
HETATM    2  C   UNL     1     -10.814   9.722  70.382  1.00  0.00    -0.311 C  
HETATM    3  C   UNL     1     -10.222   8.944  71.528  1.00  0.00    -0.398 C  
HETATM    4  C   UNL     1     -11.234   8.025  72.221  1.00  0.00    -0.402 C  
HETATM    5  C   UNL     1     -12.543   8.776  72.468  1.00  0.00    -0.375 C  
HETATM    6  C   UNL     1     -10.631   7.538  73.563  1.00  0.00    -0.347 C  
HETATM    7  C   UNL     1     -13.014   9.532  71.253  1.00  0.00    -0.328 C  
HETATM    8  C   UNL     1     -10.622   6.018  73.498  1.00  0.00    -0.284 C  
HETATM    9  N   UNL     1     -12.031  10.311  70.675  1.00  0.00    -0.315 N  
HETATM   10  C   UNL     1     -10.536   5.710  72.015  1.00  0.00    -0.283 C  
HETATM   11  O   UNL     1     -14.182   9.485  70.877  1.00  0.00     0.016 OA 
HETATM   12  C   UNL     1     -11.471   6.740  71.398  1.00  0.00    -0.336 C  
ENDROOT
BRANCH   9  13
HETATM   13  C   UNL     1     -12.453  11.421  69.842  1.00  0.00    -0.125 C  
BRANCH  13  14
HETATM   14  C   UNL     1     -12.134  12.748  70.541  1.00  0.00    -0.369 C  
BRANCH  14  15
HETATM   15  C   UNL     1     -11.549  13.787  69.594  1.00  0.00    -0.343 C  
BRANCH  15  16
HETATM   16  C   UNL     1     -12.100  13.694  68.166  1.00  0.00    -0.275 C  
BRANCH  16  17
HETATM   17  N   UNL     1     -11.147  14.142  67.132  1.00  0.00    -0.299 NA 
HETATM   18  C   UNL     1      -9.873  13.381  67.165  1.00  0.00    -0.237 C  
HETATM   19  C   UNL     1     -10.037  11.869  66.892  1.00  0.00    -0.207 C  
HETATM   20  N   UNL     1     -10.757  11.650  65.634  1.00  0.00    -0.273 NA 
HETATM   21  C   UNL     1     -11.727  13.950  65.777  1.00  0.00    -0.359 C  
HETATM   22  C   UNL     1     -11.940  12.473  65.370  1.00  0.00    -0.437 C  
BRANCH  20  23
HETATM   23  C   UNL     1     -10.041  11.121  64.587  1.00  0.00    -0.302 A  
HETATM   24  N   UNL     1      -9.457   9.920  64.761  1.00  0.00    -0.289 NA 
HETATM   25  C   UNL     1      -8.813   9.374  63.717  1.00  0.00    -0.171 A  
HETATM   26  C   UNL     1      -8.700   9.984  62.495  1.00  0.00    -0.226 A  
HETATM   27  C   UNL     1      -9.310  11.207  62.406  1.00  0.00    -0.137 A  
HETATM   28  N   UNL     1      -9.985  11.781  63.418  1.00  0.00    -0.411 NA 
ENDBRANCH  20  23
ENDBRANCH  16  17
ENDBRANCH  15  16
ENDBRANCH  14  15
ENDBRANCH  13  14
ENDBRANCH   9  13
TORSDOF 6
ENDMDL
MODEL       33
REMARK 921   NORMALIZED FREE ENERGY PREDICTED BY IDOCK:   -5.82 KCAL/MOL
REMARK 922        TOTAL FREE ENERGY PREDICTED BY IDOCK:   -8.84 KCAL/MOL
REMARK 923 INTER-LIGAND FREE ENERGY PREDICTED BY IDOCK:   -7.80 KCAL/MOL
REMARK 924 INTRA-LIGAND FREE ENERGY PREDICTED BY IDOCK:   -1.04 KCAL/MOL
REMARK 927      BINDING AFFINITY PREDICTED BY RF-SCORE:    0.00 PKD
ROOT
HETATM    1  O   UNL     1      -8.340  10.881  69.094  1.00  0.00    -0.141 OA 
HETATM    2  C   UNL     1      -9.219  10.023  69.127  1.00  0.00    -0.190 C  
HETATM    3  C   UNL     1     -10.158   9.909  70.298  1.00  0.00    -0.295 C  
HETATM    4  C   UNL     1     -10.407   8.461  70.734  1.00  0.00    -0.228 C  
HETATM    5  C   UNL     1     -10.680   7.583  69.512  1.00  0.00    -0.222 C  
HETATM    6  C   UNL     1     -11.618   8.429  71.700  1.00  0.00    -0.348 C  
HETATM    7  C   UNL     1      -9.685   7.811  68.403  1.00  0.00    -0.159 C  
HETATM    8  C   UNL     1     -11.115   7.804  72.993  1.00  0.00    -0.419 C  
HETATM    9  N   UNL     1      -9.500   9.145  68.096  1.00  0.00    -0.141 N  
HETATM   10  C   UNL     1      -9.633   8.129  73.010  1.00  0.00    -0.336 C  
HETATM   11  O   UNL     1      -9.155   6.875  67.810  1.00  0.00    -0.120 OA 
HETATM   12  C   UNL     1      -9.220   7.918  71.561  1.00  0.00    -0.171 C  
ENDROOT
BRANCH   9  13
HETATM   13  C   UNL     1      -8.977   9.468  66.782  1.00  0.00    -0.138 C  
BRANCH  13  14
HETATM   14  C   UNL     1     -10.128   9.854  65.844  1.00  0.00    -0.316 C  
BRANCH  14  15
HETATM   15  C   UNL     1     -10.012  11.282  65.328  1.00  0.00    -0.301 C  
BRANCH  15  16
HETATM   16  C   UNL     1     -10.865  12.288  66.111  1.00  0.00    -0.279 C  
BRANCH  16  17
HETATM   17  N   UNL     1     -10.117  13.014  67.157  1.00  0.00    -0.241 NA 
HETATM   18  C   UNL     1      -9.102  13.938  66.589  1.00  0.00    -0.190 C  
HETATM   19  C   UNL     1      -9.696  15.059  65.708  1.00  0.00    -0.340 C  
HETATM   20  N   UNL     1     -10.735  15.790  66.439  1.00  0.00    -0.303 NA 
HETATM   21  C   UNL     1     -11.041  13.842  67.974  1.00  0.00    -0.261 C  
HETATM   22  C   UNL     1     -11.706  15.011  67.212  1.00  0.00    -0.223 C  
BRANCH  20  23
HETATM   23  C   UNL     1     -10.452  17.086  66.797  1.00  0.00    -0.257 A  
HETATM   24  N   UNL     1     -10.620  17.440  68.086  1.00  0.00    -0.380 NA 
HETATM   25  C   UNL     1     -10.281  18.687  68.448  1.00  0.00    -0.371 A  
HETATM   26  C   UNL     1      -9.797  19.623  67.572  1.00  0.00    -0.498 A  
HETATM   27  C   UNL     1      -9.669  19.188  66.280  1.00  0.00    -0.365 A  
HETATM   28  N   UNL     1      -9.973  17.942  65.878  1.00  0.00    -0.565 NA 
ENDBRANCH  20  23
ENDBRANCH  16  17
ENDBRANCH  15  16
ENDBRANCH  14  15
ENDBRANCH  13  14
ENDBRANCH   9  13
TORSDOF 6
ENDMDL
MODEL       34
REMARK 921   NORMALIZED FREE ENERGY PREDICTED BY IDOCK:   -5.79 KCAL/MOL
REMARK 922        TOTAL FREE ENERGY PREDICTED BY IDOCK:   -8.80 KCAL/MOL
REMARK 923 INTER-LIGAND FREE ENERGY PREDICTED BY IDOCK:   -8.31 KCAL/MOL
REMARK 924 INTRA-LIGAND FREE ENERGY PREDICTED BY IDOCK:   -0.49 KCAL/MOL
REMARK 927      BINDING AFFINITY PREDICTED BY RF-SCORE:    0.00 PKD
ROOT
HETATM    1  O   UNL     1      -8.673  12.529  66.536  1.00  0.00    -0.150 OA 
HETATM    2  C   UNL     1      -9.693  13.204  66.414  1.00  0.00    -0.269 C  
HETATM    3  C   UNL     1     -10.005  14.329  67.365  1.00  0.00    -0.242 C  
HETATM    4  C   UNL     1     -11.478  14.370  67.789  1.00  0.00    -0.360 C  
HETATM    5  C   UNL     1     -12.382  14.194  66.569  1.00  0.00    -0.405 C  
HETATM    6  C   UNL     1     -11.763  15.727  68.479  1.00  0.00    -0.328 C  
HETATM    7  C   UNL     1     -11.947  13.051  65.687  1.00  0.00    -0.429 C  
HETATM    8  C   UNL     1     -12.283  15.397  69.870  1.00  0.00    -0.363 C  
HETATM    9  N   UNL     1     -10.601  13.077  65.378  1.00  0.00    -0.286 N  
HETATM   10  C   UNL     1     -11.664  14.049  70.187  1.00  0.00    -0.331 C  
HETATM   11  O   UNL     1     -12.750  12.230  65.252  1.00  0.00    -0.543 OA 
HETATM   12  C   UNL     1     -11.774  13.302  68.866  1.00  0.00    -0.369 C  
ENDROOT
BRANCH   9  13
HETATM   13  C   UNL     1     -10.167  12.361  64.194  1.00  0.00    -0.351 C  
BRANCH  13  14
HETATM   14  C   UNL     1     -10.522  10.875  64.324  1.00  0.00    -0.405 C  
BRANCH  14  15
HETATM   15  C   UNL     1      -9.293   9.989  64.486  1.00  0.00    -0.345 C  
BRANCH  15  16
HETATM   16  C   UNL     1      -9.203   9.311  65.858  1.00  0.00    -0.219 C  
BRANCH  16  17
HETATM   17  N   UNL     1     -10.516   9.048  66.479  1.00  0.00    -0.190 NA 
HETATM   18  C   UNL     1     -10.630   7.661  66.997  1.00  0.00    -0.336 C  
HETATM   19  C   UNL     1      -9.616   7.322  68.112  1.00  0.00    -0.140 C  
HETATM   20  N   UNL     1      -9.696   8.306  69.196  1.00  0.00    -0.168 NA 
HETATM   21  C   UNL     1     -10.735   9.957  67.633  1.00  0.00    -0.281 C  
HETATM   22  C   UNL     1      -9.784   9.722  68.830  1.00  0.00    -0.161 C  
BRANCH  20  23
HETATM   23  C   UNL     1     -10.205   7.873  70.397  1.00  0.00    -0.197 A  
HETATM   24  N   UNL     1      -9.853   8.540  71.512  1.00  0.00    -0.214 NA 
HETATM   25  C   UNL     1     -10.403   8.158  72.676  1.00  0.00    -0.328 A  
HETATM   26  C   UNL     1     -11.281   7.113  72.790  1.00  0.00    -0.314 A  
HETATM   27  C   UNL     1     -11.576   6.480  71.612  1.00  0.00    -0.308 A  
HETATM   28  N   UNL     1     -11.068   6.843  70.421  1.00  0.00    -0.279 NA 
ENDBRANCH  20  23
ENDBRANCH  16  17
ENDBRANCH  15  16
ENDBRANCH  14  15
ENDBRANCH  13  14
ENDBRANCH   9  13
TORSDOF 6
ENDMDL
MODEL       35
REMARK 921   NORMALIZED FREE ENERGY PREDICTED BY IDOCK:   -5.79 KCAL/MOL
REMARK 922        TOTAL FREE ENERGY PREDICTED BY IDOCK:   -8.79 KCAL/MOL
REMARK 923 INTER-LIGAND FREE ENERGY PREDICTED BY IDOCK:   -7.75 KCAL/MOL
REMARK 924 INTRA-LIGAND FREE ENERGY PREDICTED BY IDOCK:   -1.05 KCAL/MOL
REMARK 927      BINDING AFFINITY PREDICTED BY RF-SCORE:    0.00 PKD
ROOT
HETATM    1  O   UNL     1      -7.876   8.262  69.422  1.00  0.00    -0.100 OA 
HETATM    2  C   UNL     1      -9.015   7.803  69.424  1.00  0.00    -0.142 C  
HETATM    3  C   UNL     1      -9.819   7.705  70.694  1.00  0.00    -0.182 C  
HETATM    4  C   UNL     1     -10.581   6.383  70.826  1.00  0.00    -0.288 C  
HETATM    5  C   UNL     1     -11.283   6.047  69.510  1.00  0.00    -0.416 C  
HETATM    6  C   UNL     1     -11.617   6.513  71.970  1.00  0.00    -0.354 C  
HETATM    7  C   UNL     1     -10.379   6.208  68.315  1.00  0.00    -0.198 C  
HETATM    8  C   UNL     1     -11.293   5.410  72.967  1.00  0.00    -0.355 C  
HETATM    9  N   UNL     1      -9.709   7.416  68.291  1.00  0.00    -0.150 N  
HETATM   10  C   UNL     1      -9.808   5.164  72.777  1.00  0.00    -0.186 C  
HETATM   11  O   UNL     1     -10.315   5.355  67.434  1.00  0.00    -0.200 OA 
HETATM   12  C   UNL     1      -9.639   5.240  71.266  1.00  0.00    -0.212 C  
ENDROOT
BRANCH   9  13
HETATM   13  C   UNL     1      -9.217   7.890  67.012  1.00  0.00    -0.148 C  
BRANCH  13  14
HETATM   14  C   UNL     1     -10.253   8.817  66.366  1.00  0.00    -0.256 C  
BRANCH  14  15
HETATM   15  C   UNL     1      -9.765  10.255  66.248  1.00  0.00    -0.263 C  
BRANCH  15  16
HETATM   16  C   UNL     1     -10.588  11.251  67.074  1.00  0.00    -0.246 C  
BRANCH  16  17
HETATM   17  N   UNL     1      -9.900  11.725  68.291  1.00  0.00    -0.194 NA 
HETATM   18  C   UNL     1      -9.915  13.205  68.410  1.00  0.00    -0.223 C  
HETATM   19  C   UNL     1     -11.331  13.813  68.521  1.00  0.00    -0.285 C  
HETATM   20  N   UNL     1     -12.076  13.181  69.614  1.00  0.00    -0.287 NA 
HETATM   21  C   UNL     1     -10.569  11.190  69.505  1.00  0.00    -0.090 C  
HETATM   22  C   UNL     1     -12.001  11.723  69.741  1.00  0.00    -0.322 C  
BRANCH  20  23
HETATM   23  C   UNL     1     -12.342  13.954  70.718  1.00  0.00    -0.378 A  
HETATM   24  N   UNL     1     -11.687  15.123  70.847  1.00  0.00    -0.305 NA 
HETATM   25  C   UNL     1     -11.996  15.909  71.891  1.00  0.00    -0.504 A  
HETATM   26  C   UNL     1     -12.924  15.572  72.842  1.00  0.00    -0.583 A  
HETATM   27  C   UNL     1     -13.535  14.362  72.645  1.00  0.00    -0.509 A  
HETATM   28  N   UNL     1     -13.274  13.555  71.601  1.00  0.00    -0.373 NA 
ENDBRANCH  20  23
ENDBRANCH  16  17
ENDBRANCH  15  16
ENDBRANCH  14  15
ENDBRANCH  13  14
ENDBRANCH   9  13
TORSDOF 6
ENDMDL
MODEL       36
REMARK 921   NORMALIZED FREE ENERGY PREDICTED BY IDOCK:   -5.79 KCAL/MOL
REMARK 922        TOTAL FREE ENERGY PREDICTED BY IDOCK:   -8.79 KCAL/MOL
REMARK 923 INTER-LIGAND FREE ENERGY PREDICTED BY IDOCK:   -8.07 KCAL/MOL
REMARK 924 INTRA-LIGAND FREE ENERGY PREDICTED BY IDOCK:   -0.72 KCAL/MOL
REMARK 927      BINDING AFFINITY PREDICTED BY RF-SCORE:    0.00 PKD
ROOT
HETATM    1  O   UNL     1      -9.924  14.982  65.060  1.00  0.00    -0.307 OA 
HETATM    2  C   UNL     1     -10.264  15.567  66.085  1.00  0.00    -0.306 C  
HETATM    3  C   UNL     1     -10.645  17.024  66.065  1.00  0.00    -0.208 C  
HETATM    4  C   UNL     1     -10.069  17.815  67.245  1.00  0.00    -0.337 C  
HETATM    5  C   UNL     1     -10.274  17.041  68.548  1.00  0.00    -0.324 C  
HETATM    6  C   UNL     1     -10.777  19.191  67.320  1.00  0.00    -0.585 C  
HETATM    7  C   UNL     1      -9.879  15.591  68.427  1.00  0.00    -0.210 C  
HETATM    8  C   UNL     1      -9.680  20.240  67.219  1.00  0.00    -0.590 C  
HETATM    9  N   UNL     1     -10.419  14.965  67.321  1.00  0.00    -0.259 N  
HETATM   10  C   UNL     1      -8.577  19.550  66.438  1.00  0.00    -0.384 C  
HETATM   11  O   UNL     1      -9.193  15.037  69.281  1.00  0.00    -0.206 OA 
HETATM   12  C   UNL     1      -8.576  18.143  67.017  1.00  0.00    -0.260 C  
ENDROOT
BRANCH   9  13
HETATM   13  C   UNL     1     -10.525  13.519  67.350  1.00  0.00    -0.247 C  
BRANCH  13  14
HETATM   14  C   UNL     1     -11.906  13.109  67.876  1.00  0.00    -0.390 C  
BRANCH  14  15
HETATM   15  C   UNL     1     -11.836  12.389  69.216  1.00  0.00    -0.361 C  
BRANCH  15  16
HETATM   16  C   UNL     1     -11.542  10.890  69.092  1.00  0.00    -0.319 C  
BRANCH  16  17
HETATM   17  N   UNL     1     -10.499  10.410  70.021  1.00  0.00    -0.234 NA 
HETATM   18  C   UNL     1     -11.071   9.751  71.222  1.00  0.00    -0.304 C  
HETATM   19  C   UNL     1     -11.903   8.487  70.910  1.00  0.00    -0.217 C  
HETATM   20  N   UNL     1     -11.121   7.544  70.104  1.00  0.00    -0.255 NA 
HETATM   21  C   UNL     1      -9.633   9.406  69.351  1.00  0.00    -0.173 C  
HETATM   22  C   UNL     1     -10.342   8.081  68.985  1.00  0.00    -0.218 C  
BRANCH  20  23
HETATM   23  C   UNL     1     -10.736   6.373  70.710  1.00  0.00    -0.250 A  
HETATM   24  N   UNL     1     -10.948   6.244  72.033  1.00  0.00    -0.244 NA 
HETATM   25  C   UNL     1     -10.632   5.074  72.613  1.00  0.00    -0.220 A  
HETATM   26  C   UNL     1     -10.083   4.018  71.933  1.00  0.00    -0.214 A  
HETATM   27  C   UNL     1      -9.887   4.236  70.595  1.00  0.00    -0.195 A  
HETATM   28  N   UNL     1     -10.211   5.382  69.969  1.00  0.00    -0.255 NA 
ENDBRANCH  20  23
ENDBRANCH  16  17
ENDBRANCH  15  16
ENDBRANCH  14  15
ENDBRANCH  13  14
ENDBRANCH   9  13
TORSDOF 6
ENDMDL
MODEL       37
REMARK 921   NORMALIZED FREE ENERGY PREDICTED BY IDOCK:   -5.77 KCAL/MOL
REMARK 922        TOTAL FREE ENERGY PREDICTED BY IDOCK:   -8.76 KCAL/MOL
REMARK 923 INTER-LIGAND FREE ENERGY PREDICTED BY IDOCK:   -7.96 KCAL/MOL
REMARK 924 INTRA-LIGAND FREE ENERGY PREDICTED BY IDOCK:   -0.81 KCAL/MOL
REMARK 927      BINDING AFFINITY PREDICTED BY RF-SCORE:    0.00 PKD
ROOT
HETATM    1  O   UNL     1     -10.752   7.416  68.760  1.00  0.00    -0.194 OA 
HETATM    2  C   UNL     1     -10.381   8.449  68.207  1.00  0.00    -0.199 C  
HETATM    3  C   UNL     1     -10.336   8.560  66.706  1.00  0.00    -0.346 C  
HETATM    4  C   UNL     1      -9.074   9.260  66.189  1.00  0.00    -0.224 C  
HETATM    5  C   UNL     1      -8.800  10.522  67.008  1.00  0.00    -0.142 C  
HETATM    6  C   UNL     1      -9.275   9.620  64.696  1.00  0.00    -0.293 C  
HETATM    7  C   UNL     1      -8.900  10.281  68.492  1.00  0.00    -0.127 C  
HETATM    8  C   UNL     1      -8.145   8.940  63.938  1.00  0.00    -0.163 C  
HETATM    9  N   UNL     1     -10.054   9.620  68.865  1.00  0.00    -0.180 N  
HETATM   10  C   UNL     1      -7.789   7.743  64.798  1.00  0.00    -0.129 C  
HETATM   11  O   UNL     1      -8.049  10.701  69.272  1.00  0.00    -0.153 OA 
HETATM   12  C   UNL     1      -7.861   8.303  66.211  1.00  0.00    -0.098 C  
ENDROOT
BRANCH   9  13
HETATM   13  C   UNL     1     -10.497   9.759  70.239  1.00  0.00    -0.288 C  
BRANCH  13  14
HETATM   14  C   UNL     1     -11.746  10.647  70.296  1.00  0.00    -0.433 C  
BRANCH  14  15
HETATM   15  C   UNL     1     -11.903  11.523  69.060  1.00  0.00    -0.408 C  
BRANCH  15  16
HETATM   16  C   UNL     1     -11.274  12.914  69.212  1.00  0.00    -0.190 C  
BRANCH  16  17
HETATM   17  N   UNL     1     -12.174  14.018  68.822  1.00  0.00    -0.295 NA 
HETATM   18  C   UNL     1     -12.000  15.219  69.677  1.00  0.00    -0.338 C  
HETATM   19  C   UNL     1     -10.589  15.844  69.605  1.00  0.00    -0.301 C  
HETATM   20  N   UNL     1     -10.221  16.121  68.213  1.00  0.00    -0.242 NA 
HETATM   21  C   UNL     1     -11.897  14.442  67.425  1.00  0.00    -0.400 C  
HETATM   22  C   UNL     1     -10.511  15.092  67.210  1.00  0.00    -0.271 C  
BRANCH  20  23
HETATM   23  C   UNL     1     -10.138  17.440  67.839  1.00  0.00    -0.326 A  
HETATM   24  N   UNL     1     -10.298  17.743  66.537  1.00  0.00    -0.355 NA 
HETATM   25  C   UNL     1     -10.282  19.038  66.183  1.00  0.00    -0.446 A  
HETATM   26  C   UNL     1     -10.088  20.062  67.072  1.00  0.00    -0.594 A  
HETATM   27  C   UNL     1      -9.920  19.669  68.373  1.00  0.00    -0.439 A  
HETATM   28  N   UNL     1      -9.952  18.387  68.776  1.00  0.00    -0.381 NA 
ENDBRANCH  20  23
ENDBRANCH  16  17
ENDBRANCH  15  16
ENDBRANCH  14  15
ENDBRANCH  13  14
ENDBRANCH   9  13
TORSDOF 6
ENDMDL
MODEL       38
REMARK 921   NORMALIZED FREE ENERGY PREDICTED BY IDOCK:   -5.76 KCAL/MOL
REMARK 922        TOTAL FREE ENERGY PREDICTED BY IDOCK:   -8.75 KCAL/MOL
REMARK 923 INTER-LIGAND FREE ENERGY PREDICTED BY IDOCK:   -7.72 KCAL/MOL
REMARK 924 INTRA-LIGAND FREE ENERGY PREDICTED BY IDOCK:   -1.03 KCAL/MOL
REMARK 927      BINDING AFFINITY PREDICTED BY RF-SCORE:    0.00 PKD
ROOT
HETATM    1  O   UNL     1     -11.129  17.381  64.703  1.00  0.00    -1.029 OA 
HETATM    2  C   UNL     1     -10.774  16.540  65.526  1.00  0.00    -0.256 C  
HETATM    3  C   UNL     1     -10.365  15.154  65.103  1.00  0.00    -0.416 C  
HETATM    4  C   UNL     1     -10.922  14.055  66.014  1.00  0.00    -0.298 C  
HETATM    5  C   UNL     1     -10.729  14.440  67.481  1.00  0.00    -0.271 C  
HETATM    6  C   UNL     1     -10.186  12.727  65.704  1.00  0.00    -0.292 C  
HETATM    7  C   UNL     1     -11.154  15.857  67.767  1.00  0.00    -0.288 C  
HETATM    8  C   UNL     1     -11.262  11.726  65.311  1.00  0.00    -0.315 C  
HETATM    9  N   UNL     1     -10.629  16.778  66.881  1.00  0.00    -0.266 N  
HETATM   10  C   UNL     1     -12.380  12.584  64.750  1.00  0.00    -0.544 C  
HETATM   11  O   UNL     1     -11.849  16.138  68.740  1.00  0.00    -0.339 OA 
HETATM   12  C   UNL     1     -12.408  13.773  65.698  1.00  0.00    -0.517 C  
ENDROOT
BRANCH   9  13
HETATM   13  C   UNL     1     -10.552  18.160  67.312  1.00  0.00    -0.367 C  
BRANCH  13  14
HETATM   14  C   UNL     1      -9.547  18.291  68.463  1.00  0.00    -0.358 C  
BRANCH  14  15
HETATM   15  C   UNL     1      -8.136  18.602  67.981  1.00  0.00    -0.296 C  
BRANCH  15  16
HETATM   16  C   UNL     1      -7.040  18.099  68.928  1.00  0.00    -0.274 C  
BRANCH  16  17
HETATM   17  N   UNL     1      -5.926  17.417  68.239  1.00  0.00    -0.154 NA 
HETATM   18  C   UNL     1      -5.144  16.546  69.152  1.00  0.00    -0.122 C  
HETATM   19  C   UNL     1      -5.961  15.391  69.774  1.00  0.00    -0.141 C  
HETATM   20  N   UNL     1      -6.623  14.609  68.725  1.00  0.00    -0.086 NA 
HETATM   21  C   UNL     1      -6.446  16.545  67.154  1.00  0.00    -0.194 C  
HETATM   22  C   UNL     1      -7.282  15.339  67.639  1.00  0.00    -0.180 C  
BRANCH  20  23
HETATM   23  C   UNL     1      -6.163  13.332  68.515  1.00  0.00    -0.081 A  
HETATM   24  N   UNL     1      -5.908  12.949  67.249  1.00  0.00    -0.338 NA 
HETATM   25  C   UNL     1      -5.397  11.723  67.051  1.00  0.00    -0.122 A  
HETATM   26  C   UNL     1      -5.145  10.836  68.064  1.00  0.00    -0.036 A  
HETATM   27  C   UNL     1      -5.445  11.298  69.319  1.00  0.00    -0.040 A  
HETATM   28  N   UNL     1      -5.935  12.525  69.566  1.00  0.00    -0.103 NA 
ENDBRANCH  20  23
ENDBRANCH  16  17
ENDBRANCH  15  16
ENDBRANCH  14  15
ENDBRANCH  13  14
ENDBRANCH   9  13
TORSDOF 6
ENDMDL
MODEL       39
REMARK 921   NORMALIZED FREE ENERGY PREDICTED BY IDOCK:   -5.72 KCAL/MOL
REMARK 922        TOTAL FREE ENERGY PREDICTED BY IDOCK:   -8.69 KCAL/MOL
REMARK 923 INTER-LIGAND FREE ENERGY PREDICTED BY IDOCK:   -7.75 KCAL/MOL
REMARK 924 INTRA-LIGAND FREE ENERGY PREDICTED BY IDOCK:   -0.95 KCAL/MOL
REMARK 927      BINDING AFFINITY PREDICTED BY RF-SCORE:    0.00 PKD
ROOT
HETATM    1  O   UNL     1      -9.789  12.338  67.881  1.00  0.00    -0.189 OA 
HETATM    2  C   UNL     1     -10.072  13.139  66.993  1.00  0.00    -0.241 C  
HETATM    3  C   UNL     1      -9.404  14.486  66.912  1.00  0.00    -0.258 C  
HETATM    4  C   UNL     1     -10.377  15.624  66.585  1.00  0.00    -0.290 C  
HETATM    5  C   UNL     1     -11.299  15.214  65.436  1.00  0.00    -0.298 C  
HETATM    6  C   UNL     1      -9.564  16.884  66.199  1.00  0.00    -0.280 C  
HETATM    7  C   UNL     1     -11.882  13.837  65.626  1.00  0.00    -0.365 C  
HETATM    8  C   UNL     1      -9.989  17.979  67.166  1.00  0.00    -0.326 C  
HETATM    9  N   UNL     1     -10.939  12.880  65.946  1.00  0.00    -0.273 N  
HETATM   10  C   UNL     1     -10.431  17.226  68.407  1.00  0.00    -0.381 C  
HETATM   11  O   UNL     1     -13.075  13.611  65.444  1.00  0.00    -0.704 OA 
HETATM   12  C   UNL     1     -11.188  16.037  67.834  1.00  0.00    -0.276 C  
ENDROOT
BRANCH   9  13
HETATM   13  C   UNL     1     -11.267  11.493  65.679  1.00  0.00    -0.148 C  
BRANCH  13  14
HETATM   14  C   UNL     1     -10.290  10.916  64.648  1.00  0.00    -0.407 C  
BRANCH  14  15
HETATM   15  C   UNL     1      -9.437   9.787  65.211  1.00  0.00    -0.343 C  
BRANCH  15  16
HETATM   16  C   UNL     1     -10.097   9.047  66.381  1.00  0.00    -0.281 C  
BRANCH  16  17
HETATM   17  N   UNL     1      -9.132   8.441  67.321  1.00  0.00    -0.135 NA 
HETATM   18  C   UNL     1      -9.043   9.187  68.602  1.00  0.00    -0.136 C  
HETATM   19  C   UNL     1     -10.366   9.227  69.399  1.00  0.00    -0.215 C  
HETATM   20  N   UNL     1     -10.882   7.871  69.605  1.00  0.00    -0.218 NA 
HETATM   21  C   UNL     1      -9.542   7.054  67.660  1.00  0.00    -0.131 C  
HETATM   22  C   UNL     1     -10.856   6.948  68.468  1.00  0.00    -0.180 C  
BRANCH  20  23
HETATM   23  C   UNL     1     -10.856   7.381  70.888  1.00  0.00    -0.240 A  
HETATM   24  N   UNL     1     -11.264   6.114  71.093  1.00  0.00    -0.299 NA 
HETATM   25  C   UNL     1     -11.176   5.615  72.336  1.00  0.00    -0.280 A  
HETATM   26  C   UNL     1     -10.716   6.334  73.408  1.00  0.00    -0.281 A  
HETATM   27  C   UNL     1     -10.334   7.617  73.118  1.00  0.00    -0.352 A  
HETATM   28  N   UNL     1     -10.382   8.150  71.885  1.00  0.00    -0.217 NA 
ENDBRANCH  20  23
ENDBRANCH  16  17
ENDBRANCH  15  16
ENDBRANCH  14  15
ENDBRANCH  13  14
ENDBRANCH   9  13
TORSDOF 6
ENDMDL
MODEL       40
REMARK 921   NORMALIZED FREE ENERGY PREDICTED BY IDOCK:   -5.71 KCAL/MOL
REMARK 922        TOTAL FREE ENERGY PREDICTED BY IDOCK:   -8.69 KCAL/MOL
REMARK 923 INTER-LIGAND FREE ENERGY PREDICTED BY IDOCK:   -7.94 KCAL/MOL
REMARK 924 INTRA-LIGAND FREE ENERGY PREDICTED BY IDOCK:   -0.75 KCAL/MOL
REMARK 927      BINDING AFFINITY PREDICTED BY RF-SCORE:    0.00 PKD
ROOT
HETATM    1  O   UNL     1      -9.081  13.633  67.451  1.00  0.00    -0.202 OA 
HETATM    2  C   UNL     1     -10.095  13.957  66.838  1.00  0.00    -0.260 C  
HETATM    3  C   UNL     1     -11.027  12.923  66.263  1.00  0.00    -0.305 C  
HETATM    4  C   UNL     1     -11.520  13.271  64.854  1.00  0.00    -0.342 C  
HETATM    5  C   UNL     1     -11.955  14.736  64.797  1.00  0.00    -0.408 C  
HETATM    6  C   UNL     1     -12.706  12.342  64.494  1.00  0.00    -0.404 C  
HETATM    7  C   UNL     1     -10.949  15.663  65.427  1.00  0.00    -0.333 C  
HETATM    8  C   UNL     1     -12.305  11.613  63.221  1.00  0.00    -0.274 C  
HETATM    9  N   UNL     1     -10.538  15.258  66.682  1.00  0.00    -0.299 N  
HETATM   10  C   UNL     1     -10.789  11.582  63.273  1.00  0.00    -0.342 C  
HETATM   11  O   UNL     1     -10.597  16.703  64.876  1.00  0.00    -0.694 OA 
HETATM   12  C   UNL     1     -10.436  12.966  63.796  1.00  0.00    -0.230 C  
ENDROOT
BRANCH   9  13
HETATM   13  C   UNL     1      -9.982  16.263  67.567  1.00  0.00    -0.248 C  
BRANCH  13  14
HETATM   14  C   UNL     1     -11.007  16.632  68.646  1.00  0.00    -0.328 C  
BRANCH  14  15
HETATM   15  C   UNL     1     -12.144  15.623  68.747  1.00  0.00    -0.131 C  
BRANCH  15  16
HETATM   16  C   UNL     1     -12.641  15.402  70.181  1.00  0.00    -0.293 C  
BRANCH  16  17
HETATM   17  N   UNL     1     -11.678  14.685  71.040  1.00  0.00    -0.303 NA 
HETATM   18  C   UNL     1     -12.333  14.022  72.195  1.00  0.00    -0.028 C  
HETATM   19  C   UNL     1     -13.359  12.937  71.799  1.00  0.00    -0.359 C  
HETATM   20  N   UNL     1     -12.747  11.957  70.897  1.00  0.00    -0.262 NA 
HETATM   21  C   UNL     1     -10.990  13.619  70.267  1.00  0.00     0.679 C  
HETATM   22  C   UNL     1     -11.905  12.460  69.809  1.00  0.00    -0.317 C  
BRANCH  20  23
HETATM   23  C   UNL     1     -12.545  10.692  71.393  1.00  0.00    -0.421 A  
HETATM   24  N   UNL     1     -13.521  10.140  72.140  1.00  0.00    -0.363 NA 
HETATM   25  C   UNL     1     -13.351   8.879  72.569  1.00  0.00    -0.399 A  
HETATM   26  C   UNL     1     -12.230   8.136  72.307  1.00  0.00    -0.397 A  
HETATM   27  C   UNL     1     -11.281   8.775  71.553  1.00  0.00    -0.307 A  
HETATM   28  N   UNL     1     -11.419  10.027  71.083  1.00  0.00    -0.368 NA 
ENDBRANCH  20  23
ENDBRANCH  16  17
ENDBRANCH  15  16
ENDBRANCH  14  15
ENDBRANCH  13  14
ENDBRANCH   9  13
TORSDOF 6
ENDMDL
MODEL       41
REMARK 921   NORMALIZED FREE ENERGY PREDICTED BY IDOCK:   -5.70 KCAL/MOL
REMARK 922        TOTAL FREE ENERGY PREDICTED BY IDOCK:   -8.68 KCAL/MOL
REMARK 923 INTER-LIGAND FREE ENERGY PREDICTED BY IDOCK:   -7.78 KCAL/MOL
REMARK 924 INTRA-LIGAND FREE ENERGY PREDICTED BY IDOCK:   -0.90 KCAL/MOL
REMARK 927      BINDING AFFINITY PREDICTED BY RF-SCORE:    0.00 PKD
ROOT
HETATM    1  O   UNL     1      -8.674   8.016  70.937  1.00  0.00    -0.131 OA 
HETATM    2  C   UNL     1      -9.536   8.857  70.690  1.00  0.00    -0.214 C  
HETATM    3  C   UNL     1     -10.626   9.174  71.679  1.00  0.00    -0.427 C  
HETATM    4  C   UNL     1     -12.006   9.325  71.029  1.00  0.00    -0.369 C  
HETATM    5  C   UNL     1     -11.904  10.194  69.775  1.00  0.00    -0.158 C  
HETATM    6  C   UNL     1     -12.974   9.969  72.053  1.00  0.00    -0.514 C  
HETATM    7  C   UNL     1     -10.759   9.789  68.883  1.00  0.00    -0.217 C  
HETATM    8  C   UNL     1     -14.131   8.994  72.216  1.00  0.00    -0.485 C  
HETATM    9  N   UNL     1      -9.561   9.648  69.556  1.00  0.00    -0.185 N  
HETATM   10  C   UNL     1     -13.524   7.642  71.894  1.00  0.00    -0.311 C  
HETATM   11  O   UNL     1     -10.900   9.667  67.669  1.00  0.00    -0.282 OA 
HETATM   12  C   UNL     1     -12.622   7.945  70.707  1.00  0.00     0.111 C  
ENDROOT
BRANCH   9  13
HETATM   13  C   UNL     1      -8.338   9.746  68.783  1.00  0.00    -0.113 C  
BRANCH  13  14
HETATM   14  C   UNL     1      -7.936  11.218  68.630  1.00  0.00    -0.145 C  
BRANCH  14  15
HETATM   15  C   UNL     1      -7.965  11.689  67.181  1.00  0.00    -0.163 C  
BRANCH  15  16
HETATM   16  C   UNL     1      -8.962  12.826  66.926  1.00  0.00    -0.213 C  
BRANCH  16  17
HETATM   17  N   UNL     1      -9.116  13.748  68.069  1.00  0.00    -0.184 NA 
HETATM   18  C   UNL     1      -8.111  14.840  68.055  1.00  0.00    -0.139 C  
HETATM   19  C   UNL     1      -8.199  15.761  66.818  1.00  0.00    -0.267 C  
HETATM   20  N   UNL     1      -9.560  16.285  66.664  1.00  0.00    -0.233 NA 
HETATM   21  C   UNL     1     -10.454  14.395  68.034  1.00  0.00    -0.237 C  
HETATM   22  C   UNL     1     -10.677  15.353  66.841  1.00  0.00    -0.314 C  
BRANCH  20  23
HETATM   23  C   UNL     1      -9.742  17.627  66.892  1.00  0.00    -0.292 A  
HETATM   24  N   UNL     1     -10.084  18.408  65.850  1.00  0.00    -0.569 NA 
HETATM   25  C   UNL     1     -10.326  19.708  66.087  1.00  0.00    -0.530 A  
HETATM   26  C   UNL     1     -10.221  20.282  67.326  1.00  0.00    -0.495 A  
HETATM   27  C   UNL     1      -9.856  19.423  68.328  1.00  0.00    -0.410 A  
HETATM   28  N   UNL     1      -9.627  18.111  68.142  1.00  0.00    -0.294 NA 
ENDBRANCH  20  23
ENDBRANCH  16  17
ENDBRANCH  15  16
ENDBRANCH  14  15
ENDBRANCH  13  14
ENDBRANCH   9  13
TORSDOF 6
ENDMDL
MODEL       42
REMARK 921   NORMALIZED FREE ENERGY PREDICTED BY IDOCK:   -5.67 KCAL/MOL
REMARK 922        TOTAL FREE ENERGY PREDICTED BY IDOCK:   -8.63 KCAL/MOL
REMARK 923 INTER-LIGAND FREE ENERGY PREDICTED BY IDOCK:   -7.67 KCAL/MOL
REMARK 924 INTRA-LIGAND FREE ENERGY PREDICTED BY IDOCK:   -0.97 KCAL/MOL
REMARK 927      BINDING AFFINITY PREDICTED BY RF-SCORE:    0.00 PKD
ROOT
HETATM    1  O   UNL     1     -11.141  17.091  64.434  1.00  0.00    -1.144 OA 
HETATM    2  C   UNL     1     -10.668  16.951  65.559  1.00  0.00    -0.163 C  
HETATM    3  C   UNL     1     -10.373  18.138  66.438  1.00  0.00    -0.404 C  
HETATM    4  C   UNL     1      -9.032  18.027  67.173  1.00  0.00    -0.255 C  
HETATM    5  C   UNL     1      -8.879  16.633  67.781  1.00  0.00    -0.206 C  
HETATM    6  C   UNL     1      -8.978  19.107  68.282  1.00  0.00    -0.379 C  
HETATM    7  C   UNL     1      -9.228  15.536  66.807  1.00  0.00    -0.248 C  
HETATM    8  C   UNL     1      -7.748  19.954  67.993  1.00  0.00    -0.323 C  
HETATM    9  N   UNL     1     -10.437  15.731  66.170  1.00  0.00    -0.305 N  
HETATM   10  C   UNL     1      -7.557  19.830  66.493  1.00  0.00    -0.295 C  
HETATM   11  O   UNL     1      -8.512  14.548  66.667  1.00  0.00    -0.149 OA 
HETATM   12  C   UNL     1      -7.854  18.361  66.231  1.00  0.00    -0.273 C  
ENDROOT
BRANCH   9  13
HETATM   13  C   UNL     1     -11.099  14.569  65.610  1.00  0.00    -0.327 C  
BRANCH  13  14
HETATM   14  C   UNL     1     -12.242  14.126  66.532  1.00  0.00    -0.463 C  
BRANCH  14  15
HETATM   15  C   UNL     1     -11.907  12.868  67.322  1.00  0.00    -0.416 C  
BRANCH  15  16
HETATM   16  C   UNL     1     -11.200  11.792  66.490  1.00  0.00    -0.321 C  
BRANCH  16  17
HETATM   17  N   UNL     1      -9.859  11.436  66.995  1.00  0.00    -0.190 NA 
HETATM   18  C   UNL     1      -9.904  10.346  68.003  1.00  0.00    -0.150 C  
HETATM   19  C   UNL     1     -10.465   9.012  67.462  1.00  0.00    -0.272 C  
HETATM   20  N   UNL     1      -9.736   8.599  66.259  1.00  0.00    -0.258 NA 
HETATM   21  C   UNL     1      -8.998  10.957  65.883  1.00  0.00    -0.192 C  
HETATM   22  C   UNL     1      -9.446   9.620  65.249  1.00  0.00    -0.275 C  
BRANCH  20  23
HETATM   23  C   UNL     1      -8.932   7.490  66.367  1.00  0.00    -0.167 A  
HETATM   24  N   UNL     1      -7.614   7.679  66.573  1.00  0.00    -0.094 NA 
HETATM   25  C   UNL     1      -6.840   6.595  66.743  1.00  0.00    -0.065 A  
HETATM   26  C   UNL     1      -7.316   5.311  66.695  1.00  0.00    -0.086 A  
HETATM   27  C   UNL     1      -8.663   5.206  66.468  1.00  0.00    -0.111 A  
HETATM   28  N   UNL     1      -9.479   6.263  66.316  1.00  0.00    -0.137 NA 
ENDBRANCH  20  23
ENDBRANCH  16  17
ENDBRANCH  15  16
ENDBRANCH  14  15
ENDBRANCH  13  14
ENDBRANCH   9  13
TORSDOF 6
ENDMDL
MODEL       43
REMARK 921   NORMALIZED FREE ENERGY PREDICTED BY IDOCK:   -5.59 KCAL/MOL
REMARK 922        TOTAL FREE ENERGY PREDICTED BY IDOCK:   -8.53 KCAL/MOL
REMARK 923 INTER-LIGAND FREE ENERGY PREDICTED BY IDOCK:   -7.99 KCAL/MOL
REMARK 924 INTRA-LIGAND FREE ENERGY PREDICTED BY IDOCK:   -0.53 KCAL/MOL
REMARK 927      BINDING AFFINITY PREDICTED BY RF-SCORE:    0.00 PKD
ROOT
HETATM    1  O   UNL     1      -8.452  16.012  68.042  1.00  0.00    -0.161 OA 
HETATM    2  C   UNL     1      -8.331  17.012  67.338  1.00  0.00    -0.191 C  
HETATM    3  C   UNL     1      -7.039  17.783  67.288  1.00  0.00    -0.201 C  
HETATM    4  C   UNL     1      -7.241  19.302  67.313  1.00  0.00    -0.227 C  
HETATM    5  C   UNL     1      -8.349  19.702  66.339  1.00  0.00    -0.376 C  
HETATM    6  C   UNL     1      -5.909  19.991  66.926  1.00  0.00    -0.185 C  
HETATM    7  C   UNL     1      -9.577  18.838  66.474  1.00  0.00    -0.348 C  
HETATM    8  C   UNL     1      -5.547  20.904  68.089  1.00  0.00    -0.359 C  
HETATM    9  N   UNL     1      -9.300  17.485  66.471  1.00  0.00    -0.262 N  
HETATM   10  C   UNL     1      -6.201  20.249  69.291  1.00  0.00    -0.356 C  
HETATM   11  O   UNL     1     -10.704  19.322  66.516  1.00  0.00    -0.424 OA 
HETATM   12  C   UNL     1      -7.547  19.797  68.745  1.00  0.00    -0.302 C  
ENDROOT
BRANCH   9  13
HETATM   13  C   UNL     1     -10.371  16.578  66.108  1.00  0.00    -0.334 C  
BRANCH  13  14
HETATM   14  C   UNL     1      -9.857  15.539  65.104  1.00  0.00    -0.086 C  
BRANCH  14  15
HETATM   15  C   UNL     1     -10.532  14.183  65.260  1.00  0.00    -0.402 C  
BRANCH  15  16
HETATM   16  C   UNL     1     -10.141  13.449  66.548  1.00  0.00    -0.280 C  
BRANCH  16  17
HETATM   17  N   UNL     1     -11.294  12.922  67.305  1.00  0.00    -0.292 NA 
HETATM   18  C   UNL     1     -10.938  12.557  68.700  1.00  0.00    -0.255 C  
HETATM   19  C   UNL     1     -10.442  13.745  69.554  1.00  0.00     0.285 C  
HETATM   20  N   UNL     1     -11.413  14.842  69.520  1.00  0.00    -0.279 NA 
HETATM   21  C   UNL     1     -12.368  13.946  67.391  1.00  0.00    -0.117 C  
HETATM   22  C   UNL     1     -12.004  15.195  68.227  1.00  0.00    -0.159 C  
BRANCH  20  23
HETATM   23  C   UNL     1     -12.096  15.108  70.683  1.00  0.00    -0.329 A  
HETATM   24  N   UNL     1     -13.169  14.349  70.977  1.00  0.00    -0.356 NA 
HETATM   25  C   UNL     1     -13.796  14.566  72.144  1.00  0.00    -0.477 A  
HETATM   26  C   UNL     1     -13.415  15.532  73.038  1.00  0.00    -0.632 A  
HETATM   27  C   UNL     1     -12.324  16.268  72.658  1.00  0.00    -0.434 A  
HETATM   28  N   UNL     1     -11.652  16.070  71.510  1.00  0.00    -0.453 NA 
ENDBRANCH  20  23
ENDBRANCH  16  17
ENDBRANCH  15  16
ENDBRANCH  14  15
ENDBRANCH  13  14
ENDBRANCH   9  13
TORSDOF 6
ENDMDL
MODEL       44
REMARK 921   NORMALIZED FREE ENERGY PREDICTED BY IDOCK:   -5.59 KCAL/MOL
REMARK 922        TOTAL FREE ENERGY PREDICTED BY IDOCK:   -8.52 KCAL/MOL
REMARK 923 INTER-LIGAND FREE ENERGY PREDICTED BY IDOCK:   -7.53 KCAL/MOL
REMARK 924 INTRA-LIGAND FREE ENERGY PREDICTED BY IDOCK:   -0.99 KCAL/MOL
REMARK 927      BINDING AFFINITY PREDICTED BY RF-SCORE:    0.00 PKD
ROOT
HETATM    1  O   UNL     1     -10.355  11.078  68.726  1.00  0.00    -0.185 OA 
HETATM    2  C   UNL     1     -11.150  11.814  68.147  1.00  0.00    -0.243 C  
HETATM    3  C   UNL     1     -11.654  11.491  66.765  1.00  0.00    -0.133 C  
HETATM    4  C   UNL     1     -11.706  12.712  65.840  1.00  0.00    -0.470 C  
HETATM    5  C   UNL     1     -12.337  13.898  66.570  1.00  0.00    -0.447 C  
HETATM    6  C   UNL     1     -12.535  12.352  64.581  1.00  0.00    -0.500 C  
HETATM    7  C   UNL     1     -11.763  14.099  67.950  1.00  0.00    -0.367 C  
HETATM    8  C   UNL     1     -11.621  12.587  63.388  1.00  0.00    -0.547 C  
HETATM    9  N   UNL     1     -11.727  12.942  68.703  1.00  0.00    -0.306 N  
HETATM   10  C   UNL     1     -10.225  12.388  63.946  1.00  0.00    -0.409 C  
HETATM   11  O   UNL     1     -11.429  15.209  68.353  1.00  0.00    -0.304 OA 
HETATM   12  C   UNL     1     -10.300  13.065  65.307  1.00  0.00    -0.318 C  
ENDROOT
BRANCH   9  13
HETATM   13  C   UNL     1     -11.670  13.078  70.146  1.00  0.00    -0.170 C  
BRANCH  13  14
HETATM   14  C   UNL     1     -12.903  12.424  70.780  1.00  0.00    -0.097 C  
BRANCH  14  15
HETATM   15  C   UNL     1     -12.544  11.292  71.734  1.00  0.00    -0.266 C  
BRANCH  15  16
HETATM   16  C   UNL     1     -12.927   9.903  71.209  1.00  0.00    -0.395 C  
BRANCH  16  17
HETATM   17  N   UNL     1     -12.557   8.801  72.119  1.00  0.00    -0.377 NA 
HETATM   18  C   UNL     1     -13.111   7.495  71.681  1.00  0.00    -0.358 C  
HETATM   19  C   UNL     1     -12.600   7.026  70.300  1.00  0.00     0.335 C  
HETATM   20  N   UNL     1     -11.135   7.023  70.270  1.00  0.00    -0.273 NA 
HETATM   21  C   UNL     1     -11.080   8.646  72.170  1.00  0.00    -0.364 C  
HETATM   22  C   UNL     1     -10.434   8.174  70.847  1.00  0.00    -0.202 C  
BRANCH  20  23
HETATM   23  C   UNL     1     -10.513   5.799  70.213  1.00  0.00    -0.280 A  
HETATM   24  N   UNL     1      -9.882   5.460  69.073  1.00  0.00    -0.154 NA 
HETATM   25  C   UNL     1      -9.219   4.292  69.041  1.00  0.00    -0.145 A  
HETATM   26  C   UNL     1      -9.173   3.420  70.097  1.00  0.00    -0.225 A  
HETATM   27  C   UNL     1      -9.852   3.834  71.213  1.00  0.00    -0.149 A  
HETATM   28  N   UNL     1     -10.508   5.004  71.298  1.00  0.00    -0.183 NA 
ENDBRANCH  20  23
ENDBRANCH  16  17
ENDBRANCH  15  16
ENDBRANCH  14  15
ENDBRANCH  13  14
ENDBRANCH   9  13
TORSDOF 6
ENDMDL
MODEL       45
REMARK 921   NORMALIZED FREE ENERGY PREDICTED BY IDOCK:   -5.57 KCAL/MOL
REMARK 922        TOTAL FREE ENERGY PREDICTED BY IDOCK:   -8.50 KCAL/MOL
REMARK 923 INTER-LIGAND FREE ENERGY PREDICTED BY IDOCK:   -7.53 KCAL/MOL
REMARK 924 INTRA-LIGAND FREE ENERGY PREDICTED BY IDOCK:   -0.97 KCAL/MOL
REMARK 927      BINDING AFFINITY PREDICTED BY RF-SCORE:    0.00 PKD
ROOT
HETATM    1  O   UNL     1      -7.126  10.873  67.320  1.00  0.00    -0.088 OA 
HETATM    2  C   UNL     1      -8.312  10.554  67.340  1.00  0.00    -0.121 C  
HETATM    3  C   UNL     1      -9.197  10.898  68.509  1.00  0.00    -0.181 C  
HETATM    4  C   UNL     1     -10.127   9.751  68.921  1.00  0.00    -0.194 C  
HETATM    5  C   UNL     1     -10.784   9.138  67.684  1.00  0.00    -0.257 C  
HETATM    6  C   UNL     1     -11.205  10.303  69.887  1.00  0.00    -0.360 C  
HETATM    7  C   UNL     1      -9.796   8.865  66.579  1.00  0.00    -0.274 C  
HETATM    8  C   UNL     1     -11.083   9.493  71.169  1.00  0.00    -0.450 C  
HETATM    9  N   UNL     1      -8.980   9.942  66.294  1.00  0.00    -0.142 N  
HETATM   10  C   UNL     1      -9.632   9.050  71.191  1.00  0.00    -0.356 C  
HETATM   11  O   UNL     1      -9.788   7.798  65.971  1.00  0.00    -0.012 OA 
HETATM   12  C   UNL     1      -9.364   8.685  69.738  1.00  0.00    -0.165 C  
ENDROOT
BRANCH   9  13
HETATM   13  C   UNL     1      -8.355   9.987  64.986  1.00  0.00    -0.155 C  
BRANCH  13  14
HETATM   14  C   UNL     1      -9.398  10.352  63.923  1.00  0.00    -0.322 C  
BRANCH  14  15
HETATM   15  C   UNL     1      -9.691  11.846  63.874  1.00  0.00    -0.203 C  
BRANCH  15  16
HETATM   16  C   UNL     1     -11.180  12.184  64.020  1.00  0.00    -0.390 C  
BRANCH  16  17
HETATM   17  N   UNL     1     -11.440  13.608  64.309  1.00  0.00    -0.381 NA 
HETATM   18  C   UNL     1     -12.587  13.798  65.233  1.00  0.00    -0.473 C  
HETATM   19  C   UNL     1     -12.382  13.166  66.628  1.00  0.00    -0.141 C  
HETATM   20  N   UNL     1     -11.129  13.637  67.226  1.00  0.00    -0.287 NA 
HETATM   21  C   UNL     1     -10.257  14.229  64.959  1.00  0.00    -0.372 C  
HETATM   22  C   UNL     1      -9.939  13.688  66.373  1.00  0.00    -0.296 C  
BRANCH  20  23
HETATM   23  C   UNL     1     -11.231  14.471  68.314  1.00  0.00    -0.277 A  
HETATM   24  N   UNL     1     -12.099  14.140  69.288  1.00  0.00    -0.335 NA 
HETATM   25  C   UNL     1     -12.150  14.919  70.381  1.00  0.00    -0.330 A  
HETATM   26  C   UNL     1     -11.383  16.043  70.543  1.00  0.00    -0.420 A  
HETATM   27  C   UNL     1     -10.536  16.316  69.502  1.00  0.00    -0.314 A  
HETATM   28  N   UNL     1     -10.436  15.551  68.401  1.00  0.00    -0.235 NA 
ENDBRANCH  20  23
ENDBRANCH  16  17
ENDBRANCH  15  16
ENDBRANCH  14  15
ENDBRANCH  13  14
ENDBRANCH   9  13
TORSDOF 6
ENDMDL
MODEL       46
REMARK 921   NORMALIZED FREE ENERGY PREDICTED BY IDOCK:   -5.46 KCAL/MOL
REMARK 922        TOTAL FREE ENERGY PREDICTED BY IDOCK:   -8.35 KCAL/MOL
REMARK 923 INTER-LIGAND FREE ENERGY PREDICTED BY IDOCK:   -7.79 KCAL/MOL
REMARK 924 INTRA-LIGAND FREE ENERGY PREDICTED BY IDOCK:   -0.56 KCAL/MOL
REMARK 927      BINDING AFFINITY PREDICTED BY RF-SCORE:    0.00 PKD
ROOT
HETATM    1  O   UNL     1      -7.883  10.268  65.799  1.00  0.00    -0.133 OA 
HETATM    2  C   UNL     1      -8.667  10.259  66.746  1.00  0.00    -0.126 C  
HETATM    3  C   UNL     1      -8.762   9.074  67.671  1.00  0.00    -0.124 C  
HETATM    4  C   UNL     1     -10.205   8.705  68.033  1.00  0.00    -0.261 C  
HETATM    5  C   UNL     1     -10.993   9.962  68.400  1.00  0.00    -0.235 C  
HETATM    6  C   UNL     1     -10.185   7.715  69.225  1.00  0.00    -0.210 C  
HETATM    7  C   UNL     1     -10.792  11.080  67.409  1.00  0.00    -0.274 C  
HETATM    8  C   UNL     1     -10.914   6.466  68.754  1.00  0.00    -0.404 C  
HETATM    9  N   UNL     1      -9.464  11.325  67.119  1.00  0.00    -0.169 N  
HETATM   10  C   UNL     1     -10.715   6.466  67.250  1.00  0.00    -0.426 C  
HETATM   11  O   UNL     1     -11.737  11.730  66.970  1.00  0.00    -0.555 OA 
HETATM   12  C   UNL     1     -10.885   7.932  66.882  1.00  0.00    -0.050 C  
ENDROOT
BRANCH   9  13
HETATM   13  C   UNL     1      -9.119  12.632  66.593  1.00  0.00    -0.193 C  
BRANCH  13  14
HETATM   14  C   UNL     1      -7.892  13.182  67.331  1.00  0.00    -0.169 C  
BRANCH  14  15
HETATM   15  C   UNL     1      -7.826  14.704  67.311  1.00  0.00    -0.213 C  
BRANCH  15  16
HETATM   16  C   UNL     1      -9.066  15.363  66.695  1.00  0.00    -0.279 C  
BRANCH  16  17
HETATM   17  N   UNL     1      -9.565  16.522  67.461  1.00  0.00    -0.230 NA 
HETATM   18  C   UNL     1     -11.048  16.577  67.504  1.00  0.00    -0.078 C  
HETATM   19  C   UNL     1     -11.703  15.361  68.197  1.00  0.00    -0.261 C  
HETATM   20  N   UNL     1     -11.137  15.167  69.535  1.00  0.00    -0.261 NA 
HETATM   21  C   UNL     1      -9.098  16.451  68.870  1.00  0.00    -0.256 C  
HETATM   22  C   UNL     1      -9.683  15.275  69.687  1.00  0.00    -0.200 C  
BRANCH  20  23
HETATM   23  C   UNL     1     -11.960  15.423  70.605  1.00  0.00    -0.356 A  
HETATM   24  N   UNL     1     -13.209  14.920  70.581  1.00  0.00    -0.323 NA 
HETATM   25  C   UNL     1     -13.990  15.115  71.655  1.00  0.00    -0.523 A  
HETATM   26  C   UNL     1     -13.591  15.817  72.762  1.00  0.00    -0.662 A  
HETATM   27  C   UNL     1     -12.313  16.306  72.702  1.00  0.00    -0.434 A  
HETATM   28  N   UNL     1     -11.488  16.115  71.657  1.00  0.00    -0.383 NA 
ENDBRANCH  20  23
ENDBRANCH  16  17
ENDBRANCH  15  16
ENDBRANCH  14  15
ENDBRANCH  13  14
ENDBRANCH   9  13
TORSDOF 6
ENDMDL
MODEL       47
REMARK 921   NORMALIZED FREE ENERGY PREDICTED BY IDOCK:   -5.46 KCAL/MOL
REMARK 922        TOTAL FREE ENERGY PREDICTED BY IDOCK:   -8.35 KCAL/MOL
REMARK 923 INTER-LIGAND FREE ENERGY PREDICTED BY IDOCK:   -7.78 KCAL/MOL
REMARK 924 INTRA-LIGAND FREE ENERGY PREDICTED BY IDOCK:   -0.57 KCAL/MOL
REMARK 927      BINDING AFFINITY PREDICTED BY RF-SCORE:    0.00 PKD
ROOT
HETATM    1  O   UNL     1     -12.100  12.096  65.686  1.00  0.00    -0.545 OA 
HETATM    2  C   UNL     1     -11.064  11.963  66.334  1.00  0.00    -0.309 C  
HETATM    3  C   UNL     1      -9.780  11.529  65.677  1.00  0.00    -0.261 C  
HETATM    4  C   UNL     1      -9.001  10.497  66.499  1.00  0.00    -0.171 C  
HETATM    5  C   UNL     1      -8.943  10.927  67.965  1.00  0.00    -0.145 C  
HETATM    6  C   UNL     1      -7.570  10.370  65.918  1.00  0.00    -0.146 C  
HETATM    7  C   UNL     1     -10.286  11.361  68.493  1.00  0.00    -0.208 C  
HETATM    8  C   UNL     1      -7.390   8.907  65.543  1.00  0.00    -0.085 C  
HETATM    9  N   UNL     1     -10.930  12.269  67.676  1.00  0.00    -0.233 N  
HETATM   10  C   UNL     1      -8.799   8.421  65.258  1.00  0.00    -0.113 C  
HETATM   11  O   UNL     1     -10.707  10.973  69.580  1.00  0.00    -0.237 OA 
HETATM   12  C   UNL     1      -9.619   9.088  66.352  1.00  0.00    -0.309 C  
ENDROOT
BRANCH   9  13
HETATM   13  C   UNL     1     -11.950  13.109  68.274  1.00  0.00    -0.291 C  
BRANCH  13  14
HETATM   14  C   UNL     1     -11.885  14.517  67.670  1.00  0.00    -0.395 C  
BRANCH  14  15
HETATM   15  C   UNL     1     -11.205  15.522  68.591  1.00  0.00    -0.326 C  
BRANCH  15  16
HETATM   16  C   UNL     1     -11.138  16.939  68.009  1.00  0.00    -0.190 C  
BRANCH  16  17
HETATM   17  N   UNL     1     -10.122  17.797  68.651  1.00  0.00    -0.369 NA 
HETATM   18  C   UNL     1      -8.739  17.309  68.420  1.00  0.00    -0.261 C  
HETATM   19  C   UNL     1      -8.321  17.284  66.933  1.00  0.00    -0.227 C  
HETATM   20  N   UNL     1      -8.533  18.598  66.318  1.00  0.00    -0.425 NA 
HETATM   21  C   UNL     1     -10.188  19.176  68.100  1.00  0.00    -0.403 C  
HETATM   22  C   UNL     1      -9.787  19.297  66.611  1.00  0.00    -0.367 C  
BRANCH  20  23
HETATM   23  C   UNL     1      -7.413  19.313  65.969  1.00  0.00    -0.276 A  
HETATM   24  N   UNL     1      -6.637  18.834  64.979  1.00  0.00    -0.517 NA 
HETATM   25  C   UNL     1      -5.579  19.566  64.595  1.00  0.00    -0.219 A  
HETATM   26  C   UNL     1      -5.238  20.761  65.172  1.00  0.00    -0.224 A  
HETATM   27  C   UNL     1      -6.071  21.171  66.179  1.00  0.00    -0.263 A  
HETATM   28  N   UNL     1      -7.153  20.482  66.581  1.00  0.00    -0.267 NA 
ENDBRANCH  20  23
ENDBRANCH  16  17
ENDBRANCH  15  16
ENDBRANCH  14  15
ENDBRANCH  13  14
ENDBRANCH   9  13
TORSDOF 6
ENDMDL
MODEL       48
REMARK 921   NORMALIZED FREE ENERGY PREDICTED BY IDOCK:   -5.45 KCAL/MOL
REMARK 922        TOTAL FREE ENERGY PREDICTED BY IDOCK:   -8.34 KCAL/MOL
REMARK 923 INTER-LIGAND FREE ENERGY PREDICTED BY IDOCK:   -7.42 KCAL/MOL
REMARK 924 INTRA-LIGAND FREE ENERGY PREDICTED BY IDOCK:   -0.91 KCAL/MOL
REMARK 927      BINDING AFFINITY PREDICTED BY RF-SCORE:    0.00 PKD
ROOT
HETATM    1  O   UNL     1     -10.033  16.192  68.522  1.00  0.00    -0.218 OA 
HETATM    2  C   UNL     1     -10.958  15.439  68.817  1.00  0.00    -0.264 C  
HETATM    3  C   UNL     1     -12.125  15.919  69.640  1.00  0.00    -0.216 C  
HETATM    4  C   UNL     1     -12.562  14.915  70.712  1.00  0.00    -0.414 C  
HETATM    5  C   UNL     1     -12.638  13.509  70.117  1.00  0.00    -0.178 C  
HETATM    6  C   UNL     1     -13.945  15.341  71.265  1.00  0.00    -0.548 C  
HETATM    7  C   UNL     1     -11.422  13.162  69.297  1.00  0.00    -0.291 C  
HETATM    8  C   UNL     1     -13.766  15.528  72.764  1.00  0.00    -0.642 C  
HETATM    9  N   UNL     1     -11.083  14.134  68.377  1.00  0.00    -0.243 N  
HETATM   10  C   UNL     1     -12.300  15.886  72.920  1.00  0.00    -0.593 C  
HETATM   11  O   UNL     1     -10.849  12.082  69.419  1.00  0.00    -0.140 OA 
HETATM   12  C   UNL     1     -11.613  14.957  71.931  1.00  0.00    -0.335 C  
ENDROOT
BRANCH   9  13
HETATM   13  C   UNL     1     -10.278  13.734  67.238  1.00  0.00    -0.253 C  
BRANCH  13  14
HETATM   14  C   UNL     1     -11.147  12.974  66.228  1.00  0.00    -0.314 C  
BRANCH  14  15
HETATM   15  C   UNL     1     -10.424  11.786  65.607  1.00  0.00    -0.308 C  
BRANCH  15  16
HETATM   16  C   UNL     1      -9.152  11.380  66.361  1.00  0.00    -0.193 C  
BRANCH  16  17
HETATM   17  N   UNL     1      -8.803   9.953  66.211  1.00  0.00    -0.141 NA 
HETATM   18  C   UNL     1      -7.893   9.476  67.283  1.00  0.00    -0.098 C  
HETATM   19  C   UNL     1      -8.493   9.567  68.704  1.00  0.00    -0.119 C  
HETATM   20  N   UNL     1      -9.788   8.882  68.759  1.00  0.00    -0.169 NA 
HETATM   21  C   UNL     1     -10.026   9.112  66.281  1.00  0.00    -0.282 C  
HETATM   22  C   UNL     1     -10.729   9.107  67.659  1.00  0.00    -0.189 C  
BRANCH  20  23
HETATM   23  C   UNL     1      -9.850   7.720  69.489  1.00  0.00    -0.179 A  
HETATM   24  N   UNL     1     -10.784   6.809  69.155  1.00  0.00    -0.237 NA 
HETATM   25  C   UNL     1     -10.800   5.646  69.826  1.00  0.00    -0.300 A  
HETATM   26  C   UNL     1      -9.934   5.349  70.846  1.00  0.00    -0.265 A  
HETATM   27  C   UNL     1      -9.025   6.333  71.131  1.00  0.00    -0.146 A  
HETATM   28  N   UNL     1      -8.956   7.502  70.470  1.00  0.00    -0.151 NA 
ENDBRANCH  20  23
ENDBRANCH  16  17
ENDBRANCH  15  16
ENDBRANCH  14  15
ENDBRANCH  13  14
ENDBRANCH   9  13
TORSDOF 6
ENDMDL
MODEL       49
REMARK 921   NORMALIZED FREE ENERGY PREDICTED BY IDOCK:   -5.41 KCAL/MOL
REMARK 922        TOTAL FREE ENERGY PREDICTED BY IDOCK:   -8.28 KCAL/MOL
REMARK 923 INTER-LIGAND FREE ENERGY PREDICTED BY IDOCK:   -7.39 KCAL/MOL
REMARK 924 INTRA-LIGAND FREE ENERGY PREDICTED BY IDOCK:   -0.89 KCAL/MOL
REMARK 927      BINDING AFFINITY PREDICTED BY RF-SCORE:    0.00 PKD
ROOT
HETATM    1  O   UNL     1     -11.289   6.103  68.951  1.00  0.00    -0.367 OA 
HETATM    2  C   UNL     1     -10.589   5.909  69.942  1.00  0.00    -0.299 C  
HETATM    3  C   UNL     1      -9.223   5.286  69.825  1.00  0.00    -0.167 C  
HETATM    4  C   UNL     1      -8.940   4.243  70.912  1.00  0.00    -0.161 C  
HETATM    5  C   UNL     1      -9.366   4.778  72.279  1.00  0.00    -0.158 C  
HETATM    6  C   UNL     1      -7.426   3.914  70.910  1.00  0.00    -0.040 C  
HETATM    7  C   UNL     1     -10.740   5.397  72.254  1.00  0.00    -0.231 C  
HETATM    8  C   UNL     1      -7.315   2.415  70.677  1.00  0.00    -0.033 C  
HETATM    9  N   UNL     1     -10.916   6.303  71.227  1.00  0.00    -0.264 N  
HETATM   10  C   UNL     1      -8.572   2.066  69.903  1.00  0.00    -0.098 C  
HETATM   11  O   UNL     1     -11.576   5.145  73.118  1.00  0.00    -0.316 OA 
HETATM   12  C   UNL     1      -9.641   2.903  70.591  1.00  0.00    -0.184 C  
ENDROOT
BRANCH   9  13
HETATM   13  C   UNL     1     -11.964   7.294  71.374  1.00  0.00    -0.320 C  
BRANCH  13  14
HETATM   14  C   UNL     1     -11.360   8.627  71.831  1.00  0.00    -0.417 C  
BRANCH  14  15
HETATM   15  C   UNL     1      -9.990   8.893  71.220  1.00  0.00    -0.358 C  
BRANCH  15  16
HETATM   16  C   UNL     1     -10.024   9.878  70.046  1.00  0.00    -0.254 C  
BRANCH  16  17
HETATM   17  N   UNL     1     -11.241   9.772  69.217  1.00  0.00    -0.146 NA 
HETATM   18  C   UNL     1     -11.911  11.084  69.024  1.00  0.00    -0.329 C  
HETATM   19  C   UNL     1     -11.045  12.129  68.285  1.00  0.00    -0.243 C  
HETATM   20  N   UNL     1     -10.558  11.585  67.014  1.00  0.00    -0.231 NA 
HETATM   21  C   UNL     1     -10.903   9.260  67.864  1.00  0.00    -0.118 C  
HETATM   22  C   UNL     1     -10.038  10.215  67.009  1.00  0.00    -0.223 C  
BRANCH  20  23
HETATM   23  C   UNL     1     -11.076  12.127  65.862  1.00  0.00    -0.318 A  
HETATM   24  N   UNL     1     -12.045  13.055  65.978  1.00  0.00    -0.432 NA 
HETATM   25  C   UNL     1     -12.504  13.632  64.855  1.00  0.00    -0.384 A  
HETATM   26  C   UNL     1     -12.055  13.309  63.602  1.00  0.00    -0.551 A  
HETATM   27  C   UNL     1     -11.079  12.348  63.571  1.00  0.00    -0.458 A  
HETATM   28  N   UNL     1     -10.574  11.762  64.670  1.00  0.00    -0.291 NA 
ENDBRANCH  20  23
ENDBRANCH  16  17
ENDBRANCH  15  16
ENDBRANCH  14  15
ENDBRANCH  13  14
ENDBRANCH   9  13
TORSDOF 6
ENDMDL
MODEL       50
REMARK 921   NORMALIZED FREE ENERGY PREDICTED BY IDOCK:   -5.37 KCAL/MOL
REMARK 922        TOTAL FREE ENERGY PREDICTED BY IDOCK:   -8.23 KCAL/MOL
REMARK 923 INTER-LIGAND FREE ENERGY PREDICTED BY IDOCK:   -6.96 KCAL/MOL
REMARK 924 INTRA-LIGAND FREE ENERGY PREDICTED BY IDOCK:   -1.27 KCAL/MOL
REMARK 927      BINDING AFFINITY PREDICTED BY RF-SCORE:    0.00 PKD
ROOT
HETATM    1  O   UNL     1     -11.539  10.403  68.009  1.00  0.00    -0.392 OA 
HETATM    2  C   UNL     1     -10.904  11.178  67.297  1.00  0.00    -0.274 C  
HETATM    3  C   UNL     1     -11.583  12.307  66.568  1.00  0.00    -0.440 C  
HETATM    4  C   UNL     1     -11.086  12.484  65.130  1.00  0.00    -0.335 C  
HETATM    5  C   UNL     1      -9.559  12.424  65.090  1.00  0.00     0.026 C  
HETATM    6  C   UNL     1     -11.586  13.847  64.590  1.00  0.00    -0.398 C  
HETATM    7  C   UNL     1      -9.005  11.264  65.877  1.00  0.00    -0.197 C  
HETATM    8  C   UNL     1     -12.396  13.539  63.339  1.00  0.00    -0.264 C  
HETATM    9  N   UNL     1      -9.529  11.164  67.151  1.00  0.00    -0.172 N  
HETATM   10  C   UNL     1     -12.909  12.130  63.567  1.00  0.00    -0.453 C  
HETATM   11  O   UNL     1      -8.127  10.537  65.420  1.00  0.00    -0.155 OA 
HETATM   12  C   UNL     1     -11.713  11.427  64.193  1.00  0.00    -0.036 C  
ENDROOT
BRANCH   9  13
HETATM   13  C   UNL     1      -8.759  10.436  68.141  1.00  0.00    -0.125 C  
BRANCH  13  14
HETATM   14  C   UNL     1      -8.032  11.422  69.064  1.00  0.00    -0.026 C  
BRANCH  14  15
HETATM   15  C   UNL     1      -6.792  12.027  68.420  1.00  0.00    -0.072 C  
BRANCH  15  16
HETATM   16  C   UNL     1      -6.975  13.488  67.992  1.00  0.00    -0.133 C  
BRANCH  16  17
HETATM   17  N   UNL     1      -7.886  14.253  68.866  1.00  0.00    -0.126 NA 
HETATM   18  C   UNL     1      -7.312  15.558  69.280  1.00  0.00    -0.202 C  
HETATM   19  C   UNL     1      -7.025  16.520  68.106  1.00  0.00    -0.144 C  
HETATM   20  N   UNL     1      -8.226  16.701  67.286  1.00  0.00    -0.168 NA 
HETATM   21  C   UNL     1      -9.156  14.550  68.154  1.00  0.00    -0.191 C  
HETATM   22  C   UNL     1      -9.014  15.512  66.952  1.00  0.00    -0.246 C  
BRANCH  20  23
HETATM   23  C   UNL     1      -8.829  17.935  67.324  1.00  0.00    -0.243 A  
HETATM   24  N   UNL     1      -9.041  18.575  66.159  1.00  0.00    -0.493 NA 
HETATM   25  C   UNL     1      -9.689  19.751  66.192  1.00  0.00    -0.418 A  
HETATM   26  C   UNL     1     -10.123  20.342  67.349  1.00  0.00    -0.534 A  
HETATM   27  C   UNL     1      -9.857  19.633  68.491  1.00  0.00    -0.424 A  
HETATM   28  N   UNL     1      -9.233  18.442  68.502  1.00  0.00    -0.325 NA 
ENDBRANCH  20  23
ENDBRANCH  16  17
ENDBRANCH  15  16
ENDBRANCH  14  15
ENDBRANCH  13  14
ENDBRANCH   9  13
TORSDOF 6
ENDMDL
MODEL       51
REMARK 921   NORMALIZED FREE ENERGY PREDICTED BY IDOCK:   -5.36 KCAL/MOL
REMARK 922        TOTAL FREE ENERGY PREDICTED BY IDOCK:   -8.22 KCAL/MOL
REMARK 923 INTER-LIGAND FREE ENERGY PREDICTED BY IDOCK:   -7.06 KCAL/MOL
REMARK 924 INTRA-LIGAND FREE ENERGY PREDICTED BY IDOCK:   -1.16 KCAL/MOL
REMARK 927      BINDING AFFINITY PREDICTED BY RF-SCORE:    0.00 PKD
ROOT
HETATM    1  O   UNL     1      -7.410  12.964  67.308  1.00  0.00    -0.140 OA 
HETATM    2  C   UNL     1      -8.327  12.266  66.883  1.00  0.00    -0.137 C  
HETATM    3  C   UNL     1      -8.243  10.762  66.907  1.00  0.00    -0.130 C  
HETATM    4  C   UNL     1      -8.758  10.108  65.620  1.00  0.00    -0.173 C  
HETATM    5  C   UNL     1     -10.084  10.742  65.202  1.00  0.00    -0.363 C  
HETATM    6  C   UNL     1      -8.941   8.590  65.869  1.00  0.00    -0.235 C  
HETATM    7  C   UNL     1     -10.044  12.248  65.244  1.00  0.00    -0.271 C  
HETATM    8  C   UNL     1      -8.074   7.881  64.839  1.00  0.00    -0.144 C  
HETATM    9  N   UNL     1      -9.540  12.751  66.428  1.00  0.00    -0.256 N  
HETATM   10  C   UNL     1      -6.969   8.876  64.537  1.00  0.00    -0.085 C  
HETATM   11  O   UNL     1     -10.484  12.930  64.323  1.00  0.00    -0.380 OA 
HETATM   12  C   UNL     1      -7.708  10.205  64.490  1.00  0.00    -0.138 C  
ENDROOT
BRANCH   9  13
HETATM   13  C   UNL     1      -9.891  14.112  66.786  1.00  0.00    -0.272 C  
BRANCH  13  14
HETATM   14  C   UNL     1     -10.563  14.131  68.164  1.00  0.00    -0.249 C  
BRANCH  14  15
HETATM   15  C   UNL     1     -11.761  13.193  68.248  1.00  0.00    -0.384 C  
BRANCH  15  16
HETATM   16  C   UNL     1     -11.714  12.246  69.453  1.00  0.00    -0.330 C  
BRANCH  16  17
HETATM   17  N   UNL     1     -12.083  10.854  69.129  1.00  0.00    -0.415 NA 
HETATM   18  C   UNL     1     -10.910   9.943  69.124  1.00  0.00    -0.221 C  
HETATM   19  C   UNL     1     -10.194   9.832  70.489  1.00  0.00    -0.255 C  
HETATM   20  N   UNL     1     -11.148   9.469  71.541  1.00  0.00    -0.370 NA 
HETATM   21  C   UNL     1     -13.034  10.322  70.140  1.00  0.00     0.096 C  
HETATM   22  C   UNL     1     -12.442  10.155  71.559  1.00  0.00    -0.427 C  
BRANCH  20  23
HETATM   23  C   UNL     1     -11.029   8.213  72.086  1.00  0.00    -0.306 A  
HETATM   24  N   UNL     1     -10.127   8.032  73.070  1.00  0.00    -0.302 NA 
HETATM   25  C   UNL     1     -10.057   6.821  73.647  1.00  0.00    -0.296 A  
HETATM   26  C   UNL     1     -10.837   5.759  73.272  1.00  0.00    -0.306 A  
HETATM   27  C   UNL     1     -11.718   6.023  72.257  1.00  0.00    -0.284 A  
HETATM   28  N   UNL     1     -11.838   7.225  71.666  1.00  0.00    -0.283 NA 
ENDBRANCH  20  23
ENDBRANCH  16  17
ENDBRANCH  15  16
ENDBRANCH  14  15
ENDBRANCH  13  14
ENDBRANCH   9  13
TORSDOF 6
ENDMDL
MODEL       52
REMARK 921   NORMALIZED FREE ENERGY PREDICTED BY IDOCK:   -5.36 KCAL/MOL
REMARK 922        TOTAL FREE ENERGY PREDICTED BY IDOCK:   -8.21 KCAL/MOL
REMARK 923 INTER-LIGAND FREE ENERGY PREDICTED BY IDOCK:   -7.52 KCAL/MOL
REMARK 924 INTRA-LIGAND FREE ENERGY PREDICTED BY IDOCK:   -0.69 KCAL/MOL
REMARK 927      BINDING AFFINITY PREDICTED BY RF-SCORE:    0.00 PKD
ROOT
HETATM    1  O   UNL     1     -10.986  12.906  63.934  1.00  0.00    -0.388 OA 
HETATM    2  C   UNL     1     -10.749  13.011  65.135  1.00  0.00    -0.306 C  
HETATM    3  C   UNL     1     -11.355  14.116  65.960  1.00  0.00    -0.330 C  
HETATM    4  C   UNL     1     -10.362  14.754  66.937  1.00  0.00    -0.267 C  
HETATM    5  C   UNL     1      -9.572  13.668  67.669  1.00  0.00    -0.221 C  
HETATM    6  C   UNL     1     -11.146  15.625  67.951  1.00  0.00    -0.324 C  
HETATM    7  C   UNL     1      -9.042  12.611  66.735  1.00  0.00    -0.214 C  
HETATM    8  C   UNL     1     -10.579  17.032  67.831  1.00  0.00    -0.365 C  
HETATM    9  N   UNL     1      -9.997  12.112  65.870  1.00  0.00    -0.241 N  
HETATM   10  C   UNL     1     -10.061  17.103  66.407  1.00  0.00    -0.326 C  
HETATM   11  O   UNL     1      -7.883  12.210  66.806  1.00  0.00    -0.109 OA 
HETATM   12  C   UNL     1      -9.419  15.737  66.208  1.00  0.00    -0.349 C  
ENDROOT
BRANCH   9  13
HETATM   13  C   UNL     1      -9.762  10.805  65.288  1.00  0.00    -0.255 C  
BRANCH  13  14
HETATM   14  C   UNL     1      -9.718   9.743  66.394  1.00  0.00    -0.275 C  
BRANCH  14  15
HETATM   15  C   UNL     1     -10.987   9.715  67.236  1.00  0.00    -0.107 C  
BRANCH  15  16
HETATM   16  C   UNL     1     -10.729   9.880  68.738  1.00  0.00    -0.220 C  
BRANCH  16  17
HETATM   17  N   UNL     1      -9.675   8.988  69.261  1.00  0.00    -0.165 NA 
HETATM   18  C   UNL     1      -9.369   9.250  70.690  1.00  0.00    -0.270 C  
HETATM   19  C   UNL     1     -10.563   9.017  71.643  1.00  0.00    -0.364 C  
HETATM   20  N   UNL     1     -11.115   7.672  71.452  1.00  0.00    -0.236 NA 
HETATM   21  C   UNL     1     -10.106   7.569  69.168  1.00  0.00    -0.192 C  
HETATM   22  C   UNL     1     -11.297   7.194  70.079  1.00  0.00    -0.206 C  
BRANCH  20  23
HETATM   23  C   UNL     1     -10.935   6.772  72.475  1.00  0.00    -0.247 A  
HETATM   24  N   UNL     1     -11.473   5.545  72.343  1.00  0.00    -0.244 NA 
HETATM   25  C   UNL     1     -11.241   4.645  73.312  1.00  0.00    -0.325 A  
HETATM   26  C   UNL     1     -10.507   4.919  74.437  1.00  0.00    -0.325 A  
HETATM   27  C   UNL     1     -10.007   6.192  74.500  1.00  0.00    -0.330 A  
HETATM   28  N   UNL     1     -10.194   7.117  73.542  1.00  0.00    -0.316 NA 
ENDBRANCH  20  23
ENDBRANCH  16  17
ENDBRANCH  15  16
ENDBRANCH  14  15
ENDBRANCH  13  14
ENDBRANCH   9  13
TORSDOF 6
ENDMDL
MODEL       53
REMARK 921   NORMALIZED FREE ENERGY PREDICTED BY IDOCK:   -5.35 KCAL/MOL
REMARK 922        TOTAL FREE ENERGY PREDICTED BY IDOCK:   -8.20 KCAL/MOL
REMARK 923 INTER-LIGAND FREE ENERGY PREDICTED BY IDOCK:   -7.48 KCAL/MOL
REMARK 924 INTRA-LIGAND FREE ENERGY PREDICTED BY IDOCK:   -0.72 KCAL/MOL
REMARK 927      BINDING AFFINITY PREDICTED BY RF-SCORE:    0.00 PKD
ROOT
HETATM    1  O   UNL     1      -9.169  15.327  70.022  1.00  0.00    -0.087 OA 
HETATM    2  C   UNL     1      -9.102  15.807  68.893  1.00  0.00    -0.225 C  
HETATM    3  C   UNL     1      -7.780  15.992  68.196  1.00  0.00    -0.136 C  
HETATM    4  C   UNL     1      -7.663  17.334  67.466  1.00  0.00    -0.191 C  
HETATM    5  C   UNL     1      -8.936  17.610  66.666  1.00  0.00    -0.283 C  
HETATM    6  C   UNL     1      -6.434  17.288  66.525  1.00  0.00    -0.272 C  
HETATM    7  C   UNL     1     -10.188  17.364  67.468  1.00  0.00    -0.332 C  
HETATM    8  C   UNL     1      -5.531  18.438  66.945  1.00  0.00    -0.156 C  
HETATM    9  N   UNL     1     -10.196  16.144  68.115  1.00  0.00    -0.241 N  
HETATM   10  C   UNL     1      -5.853  18.644  68.413  1.00  0.00    -0.199 C  
HETATM   11  O   UNL     1     -11.118  18.166  67.472  1.00  0.00    -0.221 OA 
HETATM   12  C   UNL     1      -7.365  18.481  68.458  1.00  0.00    -0.314 C  
ENDROOT
BRANCH   9  13
HETATM   13  C   UNL     1     -11.481  15.591  68.496  1.00  0.00    -0.361 C  
BRANCH  13  14
HETATM   14  C   UNL     1     -11.809  14.380  67.613  1.00  0.00    -0.412 C  
BRANCH  14  15
HETATM   15  C   UNL     1     -11.027  13.134  68.009  1.00  0.00    -0.270 C  
BRANCH  15  16
HETATM   16  C   UNL     1     -11.592  12.424  69.245  1.00  0.00    -0.319 C  
BRANCH  16  17
HETATM   17  N   UNL     1     -12.075  11.055  68.975  1.00  0.00    -0.474 NA 
HETATM   18  C   UNL     1     -10.976  10.057  68.968  1.00  0.00    -0.212 C  
HETATM   19  C   UNL     1     -10.233   9.932  70.317  1.00  0.00    -0.264 C  
HETATM   20  N   UNL     1     -11.182   9.674  71.404  1.00  0.00    -0.374 NA 
HETATM   21  C   UNL     1     -13.035  10.629  70.026  1.00  0.00     0.110 C  
HETATM   22  C   UNL     1     -12.419  10.459  71.434  1.00  0.00    -0.415 C  
BRANCH  20  23
HETATM   23  C   UNL     1     -11.143   8.430  71.986  1.00  0.00    -0.327 A  
HETATM   24  N   UNL     1     -11.917   7.460  71.463  1.00  0.00    -0.292 NA 
HETATM   25  C   UNL     1     -11.830   6.228  71.990  1.00  0.00    -0.318 A  
HETATM   26  C   UNL     1     -11.013   5.915  73.045  1.00  0.00    -0.303 A  
HETATM   27  C   UNL     1     -10.269   6.959  73.526  1.00  0.00    -0.315 A  
HETATM   28  N   UNL     1     -10.308   8.202  73.014  1.00  0.00    -0.280 NA 
ENDBRANCH  20  23
ENDBRANCH  16  17
ENDBRANCH  15  16
ENDBRANCH  14  15
ENDBRANCH  13  14
ENDBRANCH   9  13
TORSDOF 6
ENDMDL
MODEL       54
REMARK 921   NORMALIZED FREE ENERGY PREDICTED BY IDOCK:   -5.34 KCAL/MOL
REMARK 922        TOTAL FREE ENERGY PREDICTED BY IDOCK:   -8.18 KCAL/MOL
REMARK 923 INTER-LIGAND FREE ENERGY PREDICTED BY IDOCK:   -7.81 KCAL/MOL
REMARK 924 INTRA-LIGAND FREE ENERGY PREDICTED BY IDOCK:   -0.37 KCAL/MOL
REMARK 927      BINDING AFFINITY PREDICTED BY RF-SCORE:    0.00 PKD
ROOT
HETATM    1  O   UNL     1      -8.440   8.416  69.989  1.00  0.00    -0.120 OA 
HETATM    2  C   UNL     1      -8.690   8.347  68.788  1.00  0.00    -0.136 C  
HETATM    3  C   UNL     1      -8.318   9.460  67.845  1.00  0.00    -0.115 C  
HETATM    4  C   UNL     1      -9.416   9.781  66.826  1.00  0.00    -0.209 C  
HETATM    5  C   UNL     1      -9.969   8.490  66.223  1.00  0.00    -0.251 C  
HETATM    6  C   UNL     1      -8.822  10.683  65.715  1.00  0.00    -0.198 C  
HETATM    7  C   UNL     1     -10.278   7.450  67.269  1.00  0.00    -0.260 C  
HETATM    8  C   UNL     1      -9.660  11.952  65.702  1.00  0.00    -0.221 C  
HETATM    9  N   UNL     1      -9.245   7.245  68.162  1.00  0.00    -0.133 N  
HETATM   10  C   UNL     1     -10.185  12.064  67.120  1.00  0.00    -0.221 C  
HETATM   11  O   UNL     1     -11.332   6.820  67.260  1.00  0.00    -0.300 OA 
HETATM   12  C   UNL     1     -10.539  10.626  67.469  1.00  0.00    -0.297 C  
ENDROOT
BRANCH   9  13
HETATM   13  C   UNL     1      -9.212   5.984  68.878  1.00  0.00    -0.124 C  
BRANCH  13  14
HETATM   14  C   UNL     1     -10.594   5.688  69.474  1.00  0.00    -0.384 C  
BRANCH  14  15
HETATM   15  C   UNL     1     -10.777   6.285  70.863  1.00  0.00    -0.314 C  
BRANCH  15  16
HETATM   16  C   UNL     1     -12.152   6.931  71.076  1.00  0.00    -0.380 C  
BRANCH  16  17
HETATM   17  N   UNL     1     -12.201   7.858  72.224  1.00  0.00    -0.308 NA 
HETATM   18  C   UNL     1     -11.152   8.907  72.151  1.00  0.00    -0.285 C  
HETATM   19  C   UNL     1     -11.272   9.831  70.918  1.00  0.00    -0.359 C  
HETATM   20  N   UNL     1     -12.615  10.412  70.842  1.00  0.00    -0.355 NA 
HETATM   21  C   UNL     1     -13.509   8.562  72.264  1.00  0.00    -0.324 C  
HETATM   22  C   UNL     1     -13.759   9.529  71.084  1.00  0.00    -0.101 C  
BRANCH  20  23
HETATM   23  C   UNL     1     -12.727  11.761  71.078  1.00  0.00    -0.275 A  
HETATM   24  N   UNL     1     -13.428  12.162  72.155  1.00  0.00    -0.429 NA 
HETATM   25  C   UNL     1     -13.481  13.477  72.422  1.00  0.00    -0.584 A  
HETATM   26  C   UNL     1     -12.880  14.430  71.643  1.00  0.00    -0.416 A  
HETATM   27  C   UNL     1     -12.198  13.941  70.560  1.00  0.00    -0.373 A  
HETATM   28  N   UNL     1     -12.099  12.632  70.269  1.00  0.00    -0.341 NA 
ENDBRANCH  20  23
ENDBRANCH  16  17
ENDBRANCH  15  16
ENDBRANCH  14  15
ENDBRANCH  13  14
ENDBRANCH   9  13
TORSDOF 6
ENDMDL
MODEL       55
REMARK 921   NORMALIZED FREE ENERGY PREDICTED BY IDOCK:   -5.30 KCAL/MOL
REMARK 922        TOTAL FREE ENERGY PREDICTED BY IDOCK:   -8.13 KCAL/MOL
REMARK 923 INTER-LIGAND FREE ENERGY PREDICTED BY IDOCK:   -7.57 KCAL/MOL
REMARK 924 INTRA-LIGAND FREE ENERGY PREDICTED BY IDOCK:   -0.56 KCAL/MOL
REMARK 927      BINDING AFFINITY PREDICTED BY RF-SCORE:    0.00 PKD
ROOT
HETATM    1  O   UNL     1     -11.282  16.112  69.954  1.00  0.00    -0.328 OA 
HETATM    2  C   UNL     1     -10.537  15.444  69.241  1.00  0.00    -0.252 C  
HETATM    3  C   UNL     1      -9.089  15.816  69.056  1.00  0.00    -0.245 C  
HETATM    4  C   UNL     1      -8.613  15.685  67.606  1.00  0.00    -0.177 C  
HETATM    5  C   UNL     1      -9.091  14.360  67.012  1.00  0.00    -0.250 C  
HETATM    6  C   UNL     1      -7.065  15.761  67.577  1.00  0.00    -0.215 C  
HETATM    7  C   UNL     1     -10.549  14.095  67.289  1.00  0.00    -0.277 C  
HETATM    8  C   UNL     1      -6.712  16.924  66.663  1.00  0.00    -0.264 C  
HETATM    9  N   UNL     1     -10.896  14.264  68.615  1.00  0.00    -0.246 N  
HETATM   10  C   UNL     1      -7.911  17.848  66.759  1.00  0.00    -0.259 C  
HETATM   11  O   UNL     1     -11.311  13.707  66.408  1.00  0.00    -0.304 OA 
HETATM   12  C   UNL     1      -9.088  16.884  66.755  1.00  0.00    -0.266 C  
ENDROOT
BRANCH   9  13
HETATM   13  C   UNL     1     -12.091  13.594  69.090  1.00  0.00    -0.319 C  
BRANCH  13  14
HETATM   14  C   UNL     1     -11.775  12.125  69.400  1.00  0.00    -0.391 C  
BRANCH  14  15
HETATM   15  C   UNL     1     -12.407  11.649  70.701  1.00  0.00    -0.437 C  
BRANCH  15  16
HETATM   16  C   UNL     1     -12.459  10.122  70.834  1.00  0.00    -0.360 C  
BRANCH  16  17
HETATM   17  N   UNL     1     -11.311   9.550  71.565  1.00  0.00    -0.390 NA 
HETATM   18  C   UNL     1     -11.651   8.274  72.245  1.00  0.00    -0.383 C  
HETATM   19  C   UNL     1     -12.082   7.144  71.282  1.00  0.00    -0.348 C  
HETATM   20  N   UNL     1     -11.070   6.942  70.242  1.00  0.00    -0.279 NA 
HETATM   21  C   UNL     1     -10.197   9.253  70.627  1.00  0.00    -0.272 C  
HETATM   22  C   UNL     1     -10.494   8.130  69.606  1.00  0.00    -0.224 C  
BRANCH  20  23
HETATM   23  C   UNL     1     -10.352   5.771  70.288  1.00  0.00    -0.252 A  
HETATM   24  N   UNL     1     -10.062   5.159  69.124  1.00  0.00    -0.207 NA 
HETATM   25  C   UNL     1      -9.305   4.051  69.165  1.00  0.00    -0.167 A  
HETATM   26  C   UNL     1      -8.833   3.500  70.328  1.00  0.00    -0.151 A  
HETATM   27  C   UNL     1      -9.184   4.176  71.467  1.00  0.00    -0.134 A  
HETATM   28  N   UNL     1      -9.920   5.302  71.471  1.00  0.00    -0.176 NA 
ENDBRANCH  20  23
ENDBRANCH  16  17
ENDBRANCH  15  16
ENDBRANCH  14  15
ENDBRANCH  13  14
ENDBRANCH   9  13
TORSDOF 6
ENDMDL
MODEL       56
REMARK 921   NORMALIZED FREE ENERGY PREDICTED BY IDOCK:   -5.27 KCAL/MOL
REMARK 922        TOTAL FREE ENERGY PREDICTED BY IDOCK:   -8.09 KCAL/MOL
REMARK 923 INTER-LIGAND FREE ENERGY PREDICTED BY IDOCK:   -6.93 KCAL/MOL
REMARK 924 INTRA-LIGAND FREE ENERGY PREDICTED BY IDOCK:   -1.16 KCAL/MOL
REMARK 927      BINDING AFFINITY PREDICTED BY RF-SCORE:    0.00 PKD
ROOT
HETATM    1  O   UNL     1      -8.778  13.683  68.457  1.00  0.00    -0.168 OA 
HETATM    2  C   UNL     1      -9.573  12.803  68.137  1.00  0.00    -0.223 C  
HETATM    3  C   UNL     1      -9.116  11.392  67.871  1.00  0.00    -0.164 C  
HETATM    4  C   UNL     1      -9.781  10.763  66.642  1.00  0.00    -0.227 C  
HETATM    5  C   UNL     1     -11.286  11.034  66.662  1.00  0.00    -0.124 C  
HETATM    6  C   UNL     1      -9.508   9.238  66.650  1.00  0.00    -0.246 C  
HETATM    7  C   UNL     1     -11.610  12.475  66.963  1.00  0.00    -0.368 C  
HETATM    8  C   UNL     1      -8.805   8.924  65.338  1.00  0.00    -0.234 C  
HETATM    9  N   UNL     1     -10.945  12.968  68.069  1.00  0.00    -0.241 N  
HETATM   10  C   UNL     1      -8.106  10.220  64.973  1.00  0.00    -0.146 C  
HETATM   11  O   UNL     1     -12.437  13.100  66.306  1.00  0.00    -0.386 OA 
HETATM   12  C   UNL     1      -9.135  11.279  65.337  1.00  0.00    -0.162 C  
ENDROOT
BRANCH   9  13
HETATM   13  C   UNL     1     -11.511  14.125  68.736  1.00  0.00    -0.299 C  
BRANCH  13  14
HETATM   14  C   UNL     1     -11.569  13.877  70.248  1.00  0.00    -0.217 C  
BRANCH  14  15
HETATM   15  C   UNL     1     -12.827  13.131  70.675  1.00  0.00    -0.100 C  
BRANCH  15  16
HETATM   16  C   UNL     1     -12.540  11.799  71.378  1.00  0.00    -0.262 C  
BRANCH  16  17
HETATM   17  N   UNL     1     -12.736  10.617  70.515  1.00  0.00    -0.339 NA 
HETATM   18  C   UNL     1     -11.452   9.990  70.113  1.00  0.00    -0.277 C  
HETATM   19  C   UNL     1     -10.616   9.454  71.296  1.00  0.00    -0.330 C  
HETATM   20  N   UNL     1     -11.418   8.546  72.121  1.00  0.00    -0.356 NA 
HETATM   21  C   UNL     1     -13.515   9.576  71.234  1.00  0.00    -0.283 C  
HETATM   22  C   UNL     1     -12.789   8.947  72.446  1.00  0.00    -0.380 C  
BRANCH  20  23
HETATM   23  C   UNL     1     -11.078   7.215  72.097  1.00  0.00    -0.248 A  
HETATM   24  N   UNL     1     -10.997   6.602  70.901  1.00  0.00    -0.254 NA 
HETATM   25  C   UNL     1     -10.601   5.319  70.874  1.00  0.00    -0.177 A  
HETATM   26  C   UNL     1     -10.299   4.598  71.999  1.00  0.00    -0.234 A  
HETATM   27  C   UNL     1     -10.420   5.290  73.175  1.00  0.00    -0.212 A  
HETATM   28  N   UNL     1     -10.789   6.581  73.247  1.00  0.00    -0.265 NA 
ENDBRANCH  20  23
ENDBRANCH  16  17
ENDBRANCH  15  16
ENDBRANCH  14  15
ENDBRANCH  13  14
ENDBRANCH   9  13
TORSDOF 6
ENDMDL
MODEL       57
REMARK 921   NORMALIZED FREE ENERGY PREDICTED BY IDOCK:   -5.16 KCAL/MOL
REMARK 922        TOTAL FREE ENERGY PREDICTED BY IDOCK:   -7.95 KCAL/MOL
REMARK 923 INTER-LIGAND FREE ENERGY PREDICTED BY IDOCK:   -7.05 KCAL/MOL
REMARK 924 INTRA-LIGAND FREE ENERGY PREDICTED BY IDOCK:   -0.89 KCAL/MOL
REMARK 927      BINDING AFFINITY PREDICTED BY RF-SCORE:    0.00 PKD
ROOT
HETATM    1  O   UNL     1     -10.908  17.129  68.184  1.00  0.00    -0.373 OA 
HETATM    2  C   UNL     1     -11.369  16.029  68.478  1.00  0.00    -0.382 C  
HETATM    3  C   UNL     1     -12.454  15.886  69.513  1.00  0.00     0.156 C  
HETATM    4  C   UNL     1     -12.231  14.704  70.462  1.00  0.00    -0.389 C  
HETATM    5  C   UNL     1     -11.832  13.459  69.669  1.00  0.00    -0.394 C  
HETATM    6  C   UNL     1     -13.537  14.442  71.253  1.00  0.00    -0.389 C  
HETATM    7  C   UNL     1     -10.756  13.743  68.652  1.00  0.00    -0.256 C  
HETATM    8  C   UNL     1     -13.174  14.559  72.726  1.00  0.00    -0.600 C  
HETATM    9  N   UNL     1     -11.026  14.841  67.858  1.00  0.00    -0.269 N  
HETATM   10  C   UNL     1     -11.985  15.500  72.741  1.00  0.00    -0.573 C  
HETATM   11  O   UNL     1      -9.779  13.010  68.526  1.00  0.00    -0.208 OA 
HETATM   12  C   UNL     1     -11.174  15.047  71.536  1.00  0.00    -0.246 C  
ENDROOT
BRANCH   9  13
HETATM   13  C   UNL     1     -10.356  14.926  66.575  1.00  0.00    -0.293 C  
BRANCH  13  14
HETATM   14  C   UNL     1     -11.393  15.077  65.455  1.00  0.00    -0.312 C  
BRANCH  14  15
HETATM   15  C   UNL     1     -11.790  13.743  64.837  1.00  0.00    -0.394 C  
BRANCH  15  16
HETATM   16  C   UNL     1     -10.596  12.916  64.345  1.00  0.00    -0.396 C  
BRANCH  16  17
HETATM   17  N   UNL     1     -10.852  11.462  64.317  1.00  0.00    -0.355 NA 
HETATM   18  C   UNL     1     -10.280  10.809  63.112  1.00  0.00    -0.117 C  
HETATM   19  C   UNL     1      -8.742  10.920  63.007  1.00  0.00    -0.175 C  
HETATM   20  N   UNL     1      -8.108  10.429  64.234  1.00  0.00    -0.140 NA 
HETATM   21  C   UNL     1     -10.232  10.805  65.496  1.00  0.00    -0.266 C  
HETATM   22  C   UNL     1      -8.686  10.838  65.516  1.00  0.00    -0.187 C  
BRANCH  20  23
HETATM   23  C   UNL     1      -7.399   9.255  64.144  1.00  0.00    -0.106 A  
HETATM   24  N   UNL     1      -7.864   8.179  64.806  1.00  0.00    -0.129 NA 
HETATM   25  C   UNL     1      -7.207   7.017  64.664  1.00  0.00    -0.073 A  
HETATM   26  C   UNL     1      -6.078   6.875  63.901  1.00  0.00    -0.036 A  
HETATM   27  C   UNL     1      -5.663   8.019  63.271  1.00  0.00    -0.059 A  
HETATM   28  N   UNL     1      -6.303   9.198  63.366  1.00  0.00    -0.090 NA 
ENDBRANCH  20  23
ENDBRANCH  16  17
ENDBRANCH  15  16
ENDBRANCH  14  15
ENDBRANCH  13  14
ENDBRANCH   9  13
TORSDOF 6
ENDMDL
MODEL       58
REMARK 921   NORMALIZED FREE ENERGY PREDICTED BY IDOCK:   -5.13 KCAL/MOL
REMARK 922        TOTAL FREE ENERGY PREDICTED BY IDOCK:   -7.90 KCAL/MOL
REMARK 923 INTER-LIGAND FREE ENERGY PREDICTED BY IDOCK:   -7.30 KCAL/MOL
REMARK 924 INTRA-LIGAND FREE ENERGY PREDICTED BY IDOCK:   -0.59 KCAL/MOL
REMARK 927      BINDING AFFINITY PREDICTED BY RF-SCORE:    0.00 PKD
ROOT
HETATM    1  O   UNL     1      -9.940   9.179  71.894  1.00  0.00    -0.308 OA 
HETATM    2  C   UNL     1     -10.026   8.558  70.837  1.00  0.00    -0.191 C  
HETATM    3  C   UNL     1     -10.395   7.098  70.815  1.00  0.00    -0.219 C  
HETATM    4  C   UNL     1      -9.554   6.278  69.830  1.00  0.00    -0.174 C  
HETATM    5  C   UNL     1      -9.450   7.009  68.492  1.00  0.00    -0.134 C  
HETATM    6  C   UNL     1     -10.218   4.892  69.637  1.00  0.00    -0.265 C  
HETATM    7  C   UNL     1      -9.101   8.466  68.654  1.00  0.00    -0.140 C  
HETATM    8  C   UNL     1      -9.172   3.859  70.028  1.00  0.00    -0.220 C  
HETATM    9  N   UNL     1      -9.888   9.120  69.581  1.00  0.00    -0.174 N  
HETATM   10  C   UNL     1      -8.287   4.586  71.023  1.00  0.00    -0.098 C  
HETATM   11  O   UNL     1      -8.235   9.001  67.967  1.00  0.00    -0.109 OA 
HETATM   12  C   UNL     1      -8.156   5.975  70.414  1.00  0.00    -0.111 C  
ENDROOT
BRANCH   9  13
HETATM   13  C   UNL     1      -9.991  10.563  69.480  1.00  0.00    -0.158 C  
BRANCH  13  14
HETATM   14  C   UNL     1     -10.823  10.941  68.248  1.00  0.00    -0.272 C  
BRANCH  14  15
HETATM   15  C   UNL     1     -11.892  11.981  68.556  1.00  0.00    -0.369 C  
BRANCH  15  16
HETATM   16  C   UNL     1     -11.649  13.331  67.871  1.00  0.00    -0.334 C  
BRANCH  16  17
HETATM   17  N   UNL     1     -10.379  13.975  68.260  1.00  0.00    -0.240 NA 
HETATM   18  C   UNL     1      -9.694  14.619  67.111  1.00  0.00    -0.235 C  
HETATM   19  C   UNL     1     -10.505  15.759  66.455  1.00  0.00    -0.303 C  
HETATM   20  N   UNL     1     -10.906  16.747  67.460  1.00  0.00    -0.270 NA 
HETATM   21  C   UNL     1     -10.626  15.041  69.265  1.00  0.00    -0.247 C  
HETATM   22  C   UNL     1     -11.428  16.253  68.737  1.00  0.00    -0.289 C  
BRANCH  20  23
HETATM   23  C   UNL     1     -10.310  17.984  67.394  1.00  0.00    -0.382 A  
HETATM   24  N   UNL     1      -9.975  18.463  66.181  1.00  0.00    -0.509 NA 
HETATM   25  C   UNL     1      -9.454  19.699  66.112  1.00  0.00    -0.369 A  
HETATM   26  C   UNL     1      -9.224  20.484  67.211  1.00  0.00    -0.500 A  
HETATM   27  C   UNL     1      -9.579  19.918  68.407  1.00  0.00    -0.304 A  
HETATM   28  N   UNL     1     -10.126  18.695  68.520  1.00  0.00    -0.381 NA 
ENDBRANCH  20  23
ENDBRANCH  16  17
ENDBRANCH  15  16
ENDBRANCH  14  15
ENDBRANCH  13  14
ENDBRANCH   9  13
TORSDOF 6
ENDMDL
MODEL       59
REMARK 921   NORMALIZED FREE ENERGY PREDICTED BY IDOCK:   -5.13 KCAL/MOL
REMARK 922        TOTAL FREE ENERGY PREDICTED BY IDOCK:   -7.90 KCAL/MOL
REMARK 923 INTER-LIGAND FREE ENERGY PREDICTED BY IDOCK:   -7.00 KCAL/MOL
REMARK 924 INTRA-LIGAND FREE ENERGY PREDICTED BY IDOCK:   -0.90 KCAL/MOL
REMARK 927      BINDING AFFINITY PREDICTED BY RF-SCORE:    0.00 PKD
ROOT
HETATM    1  O   UNL     1      -9.049  16.027  68.484  1.00  0.00    -0.189 OA 
HETATM    2  C   UNL     1      -8.784  16.945  67.710  1.00  0.00    -0.212 C  
HETATM    3  C   UNL     1      -7.398  17.529  67.633  1.00  0.00    -0.192 C  
HETATM    4  C   UNL     1      -7.392  19.059  67.540  1.00  0.00    -0.245 C  
HETATM    5  C   UNL     1      -8.422  19.527  66.513  1.00  0.00    -0.365 C  
HETATM    6  C   UNL     1      -5.973  19.530  67.133  1.00  0.00    -0.183 C  
HETATM    7  C   UNL     1      -9.758  18.850  66.683  1.00  0.00    -0.347 C  
HETATM    8  C   UNL     1      -5.506  20.472  68.233  1.00  0.00    -0.285 C  
HETATM    9  N   UNL     1      -9.667  17.475  66.787  1.00  0.00    -0.282 N  
HETATM   10  C   UNL     1      -6.258  20.007  69.465  1.00  0.00    -0.376 C  
HETATM   11  O   UNL     1     -10.809  19.484  66.663  1.00  0.00    -0.442 OA 
HETATM   12  C   UNL     1      -7.646  19.699  68.923  1.00  0.00    -0.344 C  
ENDROOT
BRANCH   9  13
HETATM   13  C   UNL     1     -10.848  16.696  66.468  1.00  0.00    -0.017 C  
BRANCH  13  14
HETATM   14  C   UNL     1     -10.623  15.921  65.164  1.00  0.00    -0.421 C  
BRANCH  14  15
HETATM   15  C   UNL     1     -11.518  14.694  65.046  1.00  0.00    -0.386 C  
BRANCH  15  16
HETATM   16  C   UNL     1     -11.445  13.763  66.262  1.00  0.00    -0.335 C  
BRANCH  16  17
HETATM   17  N   UNL     1     -10.081  13.287  66.565  1.00  0.00    -0.268 NA 
HETATM   18  C   UNL     1     -10.020  12.504  67.825  1.00  0.00    -0.210 C  
HETATM   19  C   UNL     1     -10.870  11.214  67.804  1.00  0.00    -0.239 C  
HETATM   20  N   UNL     1     -10.522  10.388  66.644  1.00  0.00    -0.234 NA 
HETATM   21  C   UNL     1      -9.592  12.396  65.481  1.00  0.00    -0.063 C  
HETATM   22  C   UNL     1     -10.356  11.057  65.352  1.00  0.00    -0.268 C  
BRANCH  20  23
HETATM   23  C   UNL     1      -9.871   9.204  66.893  1.00  0.00    -0.217 A  
HETATM   24  N   UNL     1     -10.610   8.083  67.001  1.00  0.00    -0.335 NA 
HETATM   25  C   UNL     1      -9.968   6.917  67.178  1.00  0.00    -0.183 A  
HETATM   26  C   UNL     1      -8.605   6.813  67.278  1.00  0.00    -0.120 A  
HETATM   27  C   UNL     1      -7.929   7.999  67.171  1.00  0.00    -0.113 A  
HETATM   28  N   UNL     1      -8.529   9.186  66.969  1.00  0.00    -0.123 NA 
ENDBRANCH  20  23
ENDBRANCH  16  17
ENDBRANCH  15  16
ENDBRANCH  14  15
ENDBRANCH  13  14
ENDBRANCH   9  13
TORSDOF 6
ENDMDL
MODEL       60
REMARK 921   NORMALIZED FREE ENERGY PREDICTED BY IDOCK:   -5.09 KCAL/MOL
REMARK 922        TOTAL FREE ENERGY PREDICTED BY IDOCK:   -7.84 KCAL/MOL
REMARK 923 INTER-LIGAND FREE ENERGY PREDICTED BY IDOCK:   -7.12 KCAL/MOL
REMARK 924 INTRA-LIGAND FREE ENERGY PREDICTED BY IDOCK:   -0.72 KCAL/MOL
REMARK 927      BINDING AFFINITY PREDICTED BY RF-SCORE:    0.00 PKD
ROOT
HETATM    1  O   UNL     1     -10.431  10.460  68.113  1.00  0.00    -0.166 OA 
HETATM    2  C   UNL     1     -11.219  11.401  68.060  1.00  0.00    -0.281 C  
HETATM    3  C   UNL     1     -11.750  11.904  66.743  1.00  0.00    -0.281 C  
HETATM    4  C   UNL     1     -11.790  13.433  66.652  1.00  0.00    -0.443 C  
HETATM    5  C   UNL     1     -12.383  14.021  67.932  1.00  0.00    -0.018 C  
HETATM    6  C   UNL     1     -12.646  13.840  65.426  1.00  0.00    -0.534 C  
HETATM    7  C   UNL     1     -11.784  13.417  69.177  1.00  0.00    -0.326 C  
HETATM    8  C   UNL     1     -11.746  14.688  64.541  1.00  0.00    -0.410 C  
HETATM    9  N   UNL     1     -11.762  12.036  69.162  1.00  0.00    -0.311 N  
HETATM   10  C   UNL     1     -10.346  14.200  64.859  1.00  0.00    -0.435 C  
HETATM   11  O   UNL     1     -11.419  14.114  70.120  1.00  0.00    -0.242 OA 
HETATM   12  C   UNL     1     -10.385  14.009  66.368  1.00  0.00    -0.289 C  
ENDROOT
BRANCH   9  13
HETATM   13  C   UNL     1     -11.679  11.349  70.436  1.00  0.00    -0.268 C  
BRANCH  13  14
HETATM   14  C   UNL     1     -12.910  10.455  70.626  1.00  0.00    -0.393 C  
BRANCH  14  15
HETATM   15  C   UNL     1     -12.997   9.863  72.027  1.00  0.00    -0.518 C  
BRANCH  15  16
HETATM   16  C   UNL     1     -11.978   8.747  72.285  1.00  0.00    -0.345 C  
BRANCH  16  17
HETATM   17  N   UNL     1     -11.531   8.056  71.060  1.00  0.00    -0.278 NA 
HETATM   18  C   UNL     1     -10.063   8.151  70.859  1.00  0.00    -0.188 C  
HETATM   19  C   UNL     1      -9.230   7.494  71.983  1.00  0.00    -0.132 C  
HETATM   20  N   UNL     1      -9.653   6.106  72.189  1.00  0.00    -0.152 NA 
HETATM   21  C   UNL     1     -11.861   6.609  71.132  1.00  0.00    -0.360 C  
HETATM   22  C   UNL     1     -11.090   5.824  72.218  1.00  0.00    -0.276 C  
BRANCH  20  23
HETATM   23  C   UNL     1      -8.767   5.122  71.821  1.00  0.00    -0.130 A  
HETATM   24  N   UNL     1      -9.207   3.850  71.790  1.00  0.00    -0.118 NA 
HETATM   25  C   UNL     1      -8.360   2.898  71.366  1.00  0.00    -0.063 A  
HETATM   26  C   UNL     1      -7.068   3.151  70.988  1.00  0.00    -0.033 A  
HETATM   27  C   UNL     1      -6.695   4.467  71.061  1.00  0.00    -0.035 A  
HETATM   28  N   UNL     1      -7.516   5.455  71.456  1.00  0.00    -0.098 NA 
ENDBRANCH  20  23
ENDBRANCH  16  17
ENDBRANCH  15  16
ENDBRANCH  14  15
ENDBRANCH  13  14
ENDBRANCH   9  13
TORSDOF 6
ENDMDL
MODEL       61
REMARK 921   NORMALIZED FREE ENERGY PREDICTED BY IDOCK:   -5.08 KCAL/MOL
REMARK 922        TOTAL FREE ENERGY PREDICTED BY IDOCK:   -7.83 KCAL/MOL
REMARK 923 INTER-LIGAND FREE ENERGY PREDICTED BY IDOCK:   -7.64 KCAL/MOL
REMARK 924 INTRA-LIGAND FREE ENERGY PREDICTED BY IDOCK:   -0.19 KCAL/MOL
REMARK 927      BINDING AFFINITY PREDICTED BY RF-SCORE:    0.00 PKD
ROOT
HETATM    1  O   UNL     1      -9.044  11.466  66.035  1.00  0.00    -0.205 OA 
HETATM    2  C   UNL     1      -9.310  10.930  67.109  1.00  0.00    -0.159 C  
HETATM    3  C   UNL     1      -8.709   9.603  67.492  1.00  0.00    -0.126 C  
HETATM    4  C   UNL     1      -9.717   8.649  68.142  1.00  0.00    -0.178 C  
HETATM    5  C   UNL     1     -10.540   9.391  69.195  1.00  0.00    -0.234 C  
HETATM    6  C   UNL     1      -8.947   7.473  68.791  1.00  0.00    -0.129 C  
HETATM    7  C   UNL     1     -11.062  10.714  68.694  1.00  0.00    -0.263 C  
HETATM    8  C   UNL     1      -9.489   6.203  68.152  1.00  0.00    -0.113 C  
HETATM    9  N   UNL     1     -10.094  11.497  68.098  1.00  0.00    -0.187 N  
HETATM   10  C   UNL     1      -9.971   6.653  66.786  1.00  0.00    -0.238 C  
HETATM   11  O   UNL     1     -12.228  11.056  68.873  1.00  0.00    -0.519 OA 
HETATM   12  C   UNL     1     -10.627   7.994  67.078  1.00  0.00    -0.364 C  
ENDROOT
BRANCH   9  13
HETATM   13  C   UNL     1     -10.332  12.925  68.024  1.00  0.00    -0.227 C  
BRANCH  13  14
HETATM   14  C   UNL     1     -11.443  13.216  67.008  1.00  0.00    -0.379 C  
BRANCH  14  15
HETATM   15  C   UNL     1     -11.954  14.649  67.087  1.00  0.00    -0.310 C  
BRANCH  15  16
HETATM   16  C   UNL     1     -10.936  15.630  67.681  1.00  0.00    -0.315 C  
BRANCH  16  17
HETATM   17  N   UNL     1     -10.384  16.582  66.697  1.00  0.00    -0.299 NA 
HETATM   18  C   UNL     1     -10.625  17.996  67.080  1.00  0.00    -0.325 C  
HETATM   19  C   UNL     1      -9.961  18.409  68.413  1.00  0.00    -0.379 C  
HETATM   20  N   UNL     1      -8.529  18.098  68.390  1.00  0.00    -0.294 NA 
HETATM   21  C   UNL     1      -8.912  16.413  66.584  1.00  0.00    -0.258 C  
HETATM   22  C   UNL     1      -8.118  16.798  67.854  1.00  0.00    -0.185 C  
BRANCH  20  23
HETATM   23  C   UNL     1      -7.659  19.161  68.355  1.00  0.00    -0.312 A  
HETATM   24  N   UNL     1      -6.853  19.358  69.415  1.00  0.00    -0.325 NA 
HETATM   25  C   UNL     1      -5.958  20.357  69.352  1.00  0.00    -0.344 A  
HETATM   26  C   UNL     1      -5.840  21.199  68.277  1.00  0.00    -0.358 A  
HETATM   27  C   UNL     1      -6.705  20.940  67.247  1.00  0.00    -0.352 A  
HETATM   28  N   UNL     1      -7.600  19.936  67.257  1.00  0.00    -0.260 NA 
ENDBRANCH  20  23
ENDBRANCH  16  17
ENDBRANCH  15  16
ENDBRANCH  14  15
ENDBRANCH  13  14
ENDBRANCH   9  13
TORSDOF 6
ENDMDL
MODEL       62
REMARK 921   NORMALIZED FREE ENERGY PREDICTED BY IDOCK:   -5.04 KCAL/MOL
REMARK 922        TOTAL FREE ENERGY PREDICTED BY IDOCK:   -7.78 KCAL/MOL
REMARK 923 INTER-LIGAND FREE ENERGY PREDICTED BY IDOCK:   -7.06 KCAL/MOL
REMARK 924 INTRA-LIGAND FREE ENERGY PREDICTED BY IDOCK:   -0.72 KCAL/MOL
REMARK 927      BINDING AFFINITY PREDICTED BY RF-SCORE:    0.00 PKD
ROOT
HETATM    1  O   UNL     1     -11.916  13.004  66.118  1.00  0.00    -0.395 OA 
HETATM    2  C   UNL     1     -11.209  13.606  66.923  1.00  0.00    -0.312 C  
HETATM    3  C   UNL     1     -11.544  15.007  67.364  1.00  0.00    -0.304 C  
HETATM    4  C   UNL     1     -10.319  15.926  67.437  1.00  0.00    -0.288 C  
HETATM    5  C   UNL     1      -9.166  15.211  68.142  1.00  0.00    -0.184 C  
HETATM    6  C   UNL     1     -10.704  17.215  68.204  1.00  0.00    -0.366 C  
HETATM    7  C   UNL     1      -8.952  13.811  67.627  1.00  0.00    -0.194 C  
HETATM    8  C   UNL     1     -10.421  18.374  67.261  1.00  0.00    -0.434 C  
HETATM    9  N   UNL     1     -10.112  13.064  67.567  1.00  0.00    -0.216 N  
HETATM   10  C   UNL     1     -10.564  17.769  65.877  1.00  0.00    -0.205 C  
HETATM   11  O   UNL     1      -7.831  13.389  67.355  1.00  0.00    -0.161 OA 
HETATM   12  C   UNL     1      -9.902  16.407  66.028  1.00  0.00    -0.362 C  
ENDROOT
BRANCH   9  13
HETATM   13  C   UNL     1      -9.984  11.619  67.566  1.00  0.00    -0.187 C  
BRANCH  13  14
HETATM   14  C   UNL     1     -10.142  11.081  68.993  1.00  0.00    -0.197 C  
BRANCH  14  15
HETATM   15  C   UNL     1     -11.257  10.051  69.114  1.00  0.00    -0.197 C  
BRANCH  15  16
HETATM   16  C   UNL     1     -11.367   9.428  70.511  1.00  0.00    -0.274 C  
BRANCH  16  17
HETATM   17  N   UNL     1     -10.109   8.823  70.992  1.00  0.00    -0.217 NA 
HETATM   18  C   UNL     1     -10.171   8.453  72.429  1.00  0.00    -0.329 C  
HETATM   19  C   UNL     1     -11.246   7.394  72.760  1.00  0.00    -0.332 C  
HETATM   20  N   UNL     1     -11.079   6.211  71.911  1.00  0.00    -0.261 NA 
HETATM   21  C   UNL     1      -9.815   7.575  70.241  1.00  0.00    -0.183 C  
HETATM   22  C   UNL     1     -10.816   6.422  70.485  1.00  0.00    -0.279 C  
BRANCH  20  23
HETATM   23  C   UNL     1     -10.654   5.057  72.524  1.00  0.00    -0.219 A  
HETATM   24  N   UNL     1     -10.911   4.903  73.837  1.00  0.00    -0.300 NA 
HETATM   25  C   UNL     1     -10.554   3.748  74.419  1.00  0.00    -0.182 A  
HETATM   26  C   UNL     1      -9.923   2.729  73.754  1.00  0.00    -0.161 A  
HETATM   27  C   UNL     1      -9.687   2.970  72.427  1.00  0.00    -0.148 A  
HETATM   28  N   UNL     1     -10.048   4.102  71.797  1.00  0.00    -0.171 NA 
ENDBRANCH  20  23
ENDBRANCH  16  17
ENDBRANCH  15  16
ENDBRANCH  14  15
ENDBRANCH  13  14
ENDBRANCH   9  13
TORSDOF 6
ENDMDL
MODEL       63
REMARK 921   NORMALIZED FREE ENERGY PREDICTED BY IDOCK:   -5.03 KCAL/MOL
REMARK 922        TOTAL FREE ENERGY PREDICTED BY IDOCK:   -7.77 KCAL/MOL
REMARK 923 INTER-LIGAND FREE ENERGY PREDICTED BY IDOCK:   -7.15 KCAL/MOL
REMARK 924 INTRA-LIGAND FREE ENERGY PREDICTED BY IDOCK:   -0.63 KCAL/MOL
REMARK 927      BINDING AFFINITY PREDICTED BY RF-SCORE:    0.00 PKD
ROOT
HETATM    1  O   UNL     1      -7.210  11.225  69.684  1.00  0.00    -0.087 OA 
HETATM    2  C   UNL     1      -7.771  11.067  68.602  1.00  0.00    -0.132 C  
HETATM    3  C   UNL     1      -9.080  10.329  68.500  1.00  0.00    -0.138 C  
HETATM    4  C   UNL     1      -9.139   9.370  67.305  1.00  0.00    -0.150 C  
HETATM    5  C   UNL     1      -8.609  10.060  66.049  1.00  0.00    -0.148 C  
HETATM    6  C   UNL     1     -10.608   8.923  67.095  1.00  0.00    -0.301 C  
HETATM    7  C   UNL     1      -7.308  10.783  66.292  1.00  0.00    -0.138 C  
HETATM    8  C   UNL     1     -10.609   7.404  67.190  1.00  0.00    -0.413 C  
HETATM    9  N   UNL     1      -7.334  11.602  67.404  1.00  0.00    -0.119 N  
HETATM   10  C   UNL     1      -9.423   7.088  68.081  1.00  0.00    -0.123 C  
HETATM   11  O   UNL     1      -6.359  10.678  65.521  1.00  0.00    -0.126 OA 
HETATM   12  C   UNL     1      -8.362   8.067  67.601  1.00  0.00    -0.128 C  
ENDROOT
BRANCH   9  13
HETATM   13  C   UNL     1      -6.370  12.683  67.467  1.00  0.00    -0.159 C  
BRANCH  13  14
HETATM   14  C   UNL     1      -7.077  13.989  67.852  1.00  0.00    -0.166 C  
BRANCH  14  15
HETATM   15  C   UNL     1      -8.335  14.242  67.031  1.00  0.00    -0.156 C  
BRANCH  15  16
HETATM   16  C   UNL     1      -8.841  15.687  67.116  1.00  0.00    -0.208 C  
BRANCH  16  17
HETATM   17  N   UNL     1     -10.313  15.802  67.110  1.00  0.00    -0.285 NA 
HETATM   18  C   UNL     1     -10.977  14.606  67.687  1.00  0.00    -0.293 C  
HETATM   19  C   UNL     1     -10.629  14.347  69.170  1.00  0.00    -0.218 C  
HETATM   20  N   UNL     1     -10.891  15.544  69.975  1.00  0.00    -0.294 NA 
HETATM   21  C   UNL     1     -10.744  16.967  67.925  1.00  0.00    -0.348 C  
HETATM   22  C   UNL     1     -10.458  16.838  69.439  1.00  0.00    -0.312 C  
BRANCH  20  23
HETATM   23  C   UNL     1     -11.937  15.483  70.863  1.00  0.00    -0.375 A  
HETATM   24  N   UNL     1     -11.757  16.003  72.093  1.00  0.00    -0.486 NA 
HETATM   25  C   UNL     1     -12.800  16.002  72.938  1.00  0.00    -0.458 A  
HETATM   26  C   UNL     1     -14.027  15.481  72.623  1.00  0.00    -0.617 A  
HETATM   27  C   UNL     1     -14.123  14.961  71.359  1.00  0.00    -0.467 A  
HETATM   28  N   UNL     1     -13.113  14.961  70.472  1.00  0.00    -0.304 NA 
ENDBRANCH  20  23
ENDBRANCH  16  17
ENDBRANCH  15  16
ENDBRANCH  14  15
ENDBRANCH  13  14
ENDBRANCH   9  13
TORSDOF 6
ENDMDL
MODEL       64
REMARK 921   NORMALIZED FREE ENERGY PREDICTED BY IDOCK:   -5.03 KCAL/MOL
REMARK 922        TOTAL FREE ENERGY PREDICTED BY IDOCK:   -7.76 KCAL/MOL
REMARK 923 INTER-LIGAND FREE ENERGY PREDICTED BY IDOCK:   -7.01 KCAL/MOL
REMARK 924 INTRA-LIGAND FREE ENERGY PREDICTED BY IDOCK:   -0.76 KCAL/MOL
REMARK 927      BINDING AFFINITY PREDICTED BY RF-SCORE:    0.00 PKD
ROOT
HETATM    1  O   UNL     1     -10.670  10.539  69.454  1.00  0.00    -0.211 OA 
HETATM    2  C   UNL     1     -11.384  11.515  69.234  1.00  0.00    -0.288 C  
HETATM    3  C   UNL     1     -11.595  12.031  67.835  1.00  0.00    -0.405 C  
HETATM    4  C   UNL     1     -11.546  13.560  67.742  1.00  0.00    -0.374 C  
HETATM    5  C   UNL     1     -12.375  14.183  68.865  1.00  0.00    -0.115 C  
HETATM    6  C   UNL     1     -12.096  13.996  66.361  1.00  0.00    -0.483 C  
HETATM    7  C   UNL     1     -12.088  13.561  70.208  1.00  0.00    -0.355 C  
HETATM    8  C   UNL     1     -10.988  14.798  65.694  1.00  0.00    -0.345 C  
HETATM    9  N   UNL     1     -12.125  12.181  70.194  1.00  0.00    -0.319 N  
HETATM   10  C   UNL     1      -9.714  14.250  66.308  1.00  0.00    -0.321 C  
HETATM   11  O   UNL     1     -11.905  14.247  71.210  1.00  0.00    -0.307 OA 
HETATM   12  C   UNL     1     -10.088  14.071  67.772  1.00  0.00    -0.240 C  
ENDROOT
BRANCH   9  13
HETATM   13  C   UNL     1     -12.351  11.499  71.454  1.00  0.00    -0.131 C  
BRANCH  13  14
HETATM   14  C   UNL     1     -13.533  10.532  71.318  1.00  0.00    -0.150 C  
BRANCH  14  15
HETATM   15  C   UNL     1     -13.177   9.106  71.718  1.00  0.00    -0.459 C  
BRANCH  15  16
HETATM   16  C   UNL     1     -11.690   8.912  72.035  1.00  0.00    -0.367 C  
BRANCH  16  17
HETATM   17  N   UNL     1     -11.326   7.516  72.348  1.00  0.00    -0.292 NA 
HETATM   18  C   UNL     1     -11.977   6.543  71.435  1.00  0.00    -0.316 C  
HETATM   19  C   UNL     1     -11.578   6.709  69.952  1.00  0.00    -0.332 C  
HETATM   20  N   UNL     1     -10.120   6.686  69.807  1.00  0.00    -0.179 NA 
HETATM   21  C   UNL     1      -9.860   7.321  72.210  1.00  0.00    -0.154 C  
HETATM   22  C   UNL     1      -9.323   7.455  70.766  1.00  0.00    -0.159 C  
BRANCH  20  23
HETATM   23  C   UNL     1      -9.572   5.594  69.178  1.00  0.00    -0.135 A  
HETATM   24  N   UNL     1      -8.570   4.941  69.797  1.00  0.00    -0.086 NA 
HETATM   25  C   UNL     1      -8.080   3.835  69.213  1.00  0.00    -0.054 A  
HETATM   26  C   UNL     1      -8.529   3.353  68.012  1.00  0.00    -0.106 A  
HETATM   27  C   UNL     1      -9.540   4.082  67.442  1.00  0.00    -0.177 A  
HETATM   28  N   UNL     1     -10.076   5.180  68.002  1.00  0.00    -0.148 NA 
ENDBRANCH  20  23
ENDBRANCH  16  17
ENDBRANCH  15  16
ENDBRANCH  14  15
ENDBRANCH  13  14
ENDBRANCH   9  13
TORSDOF 6
ENDMDL
MODEL       65
REMARK 921   NORMALIZED FREE ENERGY PREDICTED BY IDOCK:   -5.02 KCAL/MOL
REMARK 922        TOTAL FREE ENERGY PREDICTED BY IDOCK:   -7.76 KCAL/MOL
REMARK 923 INTER-LIGAND FREE ENERGY PREDICTED BY IDOCK:   -6.99 KCAL/MOL
REMARK 924 INTRA-LIGAND FREE ENERGY PREDICTED BY IDOCK:   -0.77 KCAL/MOL
REMARK 927      BINDING AFFINITY PREDICTED BY RF-SCORE:    0.00 PKD
ROOT
HETATM    1  O   UNL     1     -10.983  10.040  69.031  1.00  0.00    -0.223 OA 
HETATM    2  C   UNL     1     -10.362  10.220  67.987  1.00  0.00    -0.181 C  
HETATM    3  C   UNL     1     -10.121   9.095  67.015  1.00  0.00    -0.316 C  
HETATM    4  C   UNL     1      -8.698   9.084  66.445  1.00  0.00    -0.149 C  
HETATM    5  C   UNL     1      -8.290  10.494  66.020  1.00  0.00    -0.158 C  
HETATM    6  C   UNL     1      -8.651   8.121  65.232  1.00  0.00    -0.132 C  
HETATM    7  C   UNL     1      -8.607  11.529  67.069  1.00  0.00    -0.161 C  
HETATM    8  C   UNL     1      -7.588   7.082  65.554  1.00  0.00    -0.091 C  
HETATM    9  N   UNL     1      -9.900  11.448  67.547  1.00  0.00    -0.177 N  
HETATM   10  C   UNL     1      -7.566   7.030  67.070  1.00  0.00    -0.102 C  
HETATM   11  O   UNL     1      -7.790  12.385  67.398  1.00  0.00    -0.155 OA 
HETATM   12  C   UNL     1      -7.697   8.493  67.464  1.00  0.00    -0.098 C  
ENDROOT
BRANCH   9  13
HETATM   13  C   UNL     1     -10.467  12.633  68.162  1.00  0.00    -0.231 C  
BRANCH  13  14
HETATM   14  C   UNL     1     -11.896  12.852  67.650  1.00  0.00    -0.400 C  
BRANCH  14  15
HETATM   15  C   UNL     1     -12.037  14.122  66.821  1.00  0.00    -0.474 C  
BRANCH  15  16
HETATM   16  C   UNL     1     -11.018  15.208  67.186  1.00  0.00    -0.326 C  
BRANCH  16  17
HETATM   17  N   UNL     1     -10.073  15.526  66.097  1.00  0.00    -0.287 NA 
HETATM   18  C   UNL     1     -10.355  16.841  65.468  1.00  0.00    -0.215 C  
HETATM   19  C   UNL     1     -10.229  18.040  66.434  1.00  0.00    -0.393 C  
HETATM   20  N   UNL     1      -8.920  18.032  67.093  1.00  0.00    -0.251 NA 
HETATM   21  C   UNL     1      -8.684  15.590  66.620  1.00  0.00    -0.291 C  
HETATM   22  C   UNL     1      -8.416  16.754  67.601  1.00  0.00    -0.190 C  
BRANCH  20  23
HETATM   23  C   UNL     1      -8.039  19.029  66.746  1.00  0.00    -0.269 A  
HETATM   24  N   UNL     1      -7.813  20.015  67.634  1.00  0.00    -0.299 NA 
HETATM   25  C   UNL     1      -6.904  20.951  67.321  1.00  0.00    -0.365 A  
HETATM   26  C   UNL     1      -6.214  20.968  66.137  1.00  0.00    -0.302 A  
HETATM   27  C   UNL     1      -6.512  19.939  65.284  1.00  0.00    -0.273 A  
HETATM   28  N   UNL     1      -7.397  18.967  65.566  1.00  0.00    -0.477 NA 
ENDBRANCH  20  23
ENDBRANCH  16  17
ENDBRANCH  15  16
ENDBRANCH  14  15
ENDBRANCH  13  14
ENDBRANCH   9  13
TORSDOF 6
ENDMDL
MODEL       66
REMARK 921   NORMALIZED FREE ENERGY PREDICTED BY IDOCK:   -5.00 KCAL/MOL
REMARK 922        TOTAL FREE ENERGY PREDICTED BY IDOCK:   -7.72 KCAL/MOL
REMARK 923 INTER-LIGAND FREE ENERGY PREDICTED BY IDOCK:   -6.60 KCAL/MOL
REMARK 924 INTRA-LIGAND FREE ENERGY PREDICTED BY IDOCK:   -1.12 KCAL/MOL
REMARK 927      BINDING AFFINITY PREDICTED BY RF-SCORE:    0.00 PKD
ROOT
HETATM    1  O   UNL     1      -7.414   8.280  69.450  1.00  0.00    -0.085 OA 
HETATM    2  C   UNL     1      -8.619   8.087  69.310  1.00  0.00    -0.137 C  
HETATM    3  C   UNL     1      -9.627   8.743  70.217  1.00  0.00    -0.198 C  
HETATM    4  C   UNL     1     -10.752   7.797  70.653  1.00  0.00    -0.233 C  
HETATM    5  C   UNL     1     -11.277   7.014  69.449  1.00  0.00    -0.143 C  
HETATM    6  C   UNL     1     -11.890   8.633  71.290  1.00  0.00    -0.344 C  
HETATM    7  C   UNL     1     -10.169   6.432  68.610  1.00  0.00    -0.174 C  
HETATM    8  C   UNL     1     -12.081   8.089  72.698  1.00  0.00    -0.283 C  
HETATM    9  N   UNL     1      -9.184   7.345  68.288  1.00  0.00    -0.138 N  
HETATM   10  C   UNL     1     -10.722   7.521  73.064  1.00  0.00    -0.438 C  
HETATM   11  O   UNL     1     -10.202   5.269  68.217  1.00  0.00    -0.168 OA 
HETATM   12  C   UNL     1     -10.275   6.848  71.775  1.00  0.00    -0.206 C  
ENDROOT
BRANCH   9  13
HETATM   13  C   UNL     1      -8.358   7.066  67.130  1.00  0.00    -0.121 C  
BRANCH  13  14
HETATM   14  C   UNL     1      -9.097   7.480  65.851  1.00  0.00    -0.086 C  
BRANCH  14  15
HETATM   15  C   UNL     1      -8.656   8.842  65.331  1.00  0.00    -0.203 C  
BRANCH  15  16
HETATM   16  C   UNL     1      -9.804   9.852  65.211  1.00  0.00    -0.303 C  
BRANCH  16  17
HETATM   17  N   UNL     1      -9.358  11.260  65.211  1.00  0.00    -0.219 NA 
HETATM   18  C   UNL     1     -10.477  12.209  64.986  1.00  0.00    -0.290 C  
HETATM   19  C   UNL     1     -11.570  12.163  66.078  1.00  0.00    -0.358 C  
HETATM   20  N   UNL     1     -10.975  12.343  67.406  1.00  0.00    -0.244 NA 
HETATM   21  C   UNL     1      -8.755  11.611  66.523  1.00  0.00    -0.182 C  
HETATM   22  C   UNL     1      -9.745  11.609  67.711  1.00  0.00    -0.173 C  
BRANCH  20  23
HETATM   23  C   UNL     1     -11.256  13.517  68.062  1.00  0.00    -0.271 A  
HETATM   24  N   UNL     1     -11.992  13.455  69.188  1.00  0.00    -0.327 NA 
HETATM   25  C   UNL     1     -12.210  14.594  69.865  1.00  0.00    -0.316 A  
HETATM   26  C   UNL     1     -11.743  15.816  69.456  1.00  0.00    -0.369 A  
HETATM   27  C   UNL     1     -11.016  15.794  68.296  1.00  0.00    -0.325 A  
HETATM   28  N   UNL     1     -10.753  14.675  67.599  1.00  0.00    -0.267 NA 
ENDBRANCH  20  23
ENDBRANCH  16  17
ENDBRANCH  15  16
ENDBRANCH  14  15
ENDBRANCH  13  14
ENDBRANCH   9  13
TORSDOF 6
ENDMDL
MODEL       67
REMARK 921   NORMALIZED FREE ENERGY PREDICTED BY IDOCK:   -4.98 KCAL/MOL
REMARK 922        TOTAL FREE ENERGY PREDICTED BY IDOCK:   -7.70 KCAL/MOL
REMARK 923 INTER-LIGAND FREE ENERGY PREDICTED BY IDOCK:   -7.05 KCAL/MOL
REMARK 924 INTRA-LIGAND FREE ENERGY PREDICTED BY IDOCK:   -0.64 KCAL/MOL
REMARK 927      BINDING AFFINITY PREDICTED BY RF-SCORE:    0.00 PKD
ROOT
HETATM    1  O   UNL     1     -12.147  16.088  69.131  1.00  0.00    -0.293 OA 
HETATM    2  C   UNL     1     -11.246  15.966  68.304  1.00  0.00    -0.354 C  
HETATM    3  C   UNL     1     -10.103  16.945  68.242  1.00  0.00    -0.302 C  
HETATM    4  C   UNL     1      -9.724  17.340  66.811  1.00  0.00    -0.285 C  
HETATM    5  C   UNL     1      -9.649  16.097  65.924  1.00  0.00    -0.359 C  
HETATM    6  C   UNL     1      -8.356  18.066  66.837  1.00  0.00    -0.263 C  
HETATM    7  C   UNL     1     -10.839  15.189  66.099  1.00  0.00    -0.330 C  
HETATM    8  C   UNL     1      -8.588  19.435  66.215  1.00  0.00    -0.360 C  
HETATM    9  N   UNL     1     -11.127  14.908  67.421  1.00  0.00    -0.315 N  
HETATM   10  C   UNL     1     -10.053  19.722  66.488  1.00  0.00    -0.589 C  
HETATM   11  O   UNL     1     -11.434  14.712  65.136  1.00  0.00    -0.349 OA 
HETATM   12  C   UNL     1     -10.718  18.377  66.240  1.00  0.00    -0.214 C  
ENDROOT
BRANCH   9  13
HETATM   13  C   UNL     1     -11.894  13.711  67.705  1.00  0.00    -0.369 C  
BRANCH  13  14
HETATM   14  C   UNL     1     -10.973  12.486  67.690  1.00  0.00    -0.279 C  
BRANCH  14  15
HETATM   15  C   UNL     1     -10.942  11.755  69.026  1.00  0.00    -0.276 C  
BRANCH  15  16
HETATM   16  C   UNL     1     -11.086  10.234  68.896  1.00  0.00    -0.231 C  
BRANCH  16  17
HETATM   17  N   UNL     1      -9.818   9.500  69.075  1.00  0.00    -0.170 NA 
HETATM   18  C   UNL     1     -10.033   8.088  69.482  1.00  0.00    -0.186 C  
HETATM   19  C   UNL     1     -10.809   7.246  68.444  1.00  0.00    -0.058 C  
HETATM   20  N   UNL     1     -10.165   7.332  67.130  1.00  0.00    -0.239 NA 
HETATM   21  C   UNL     1      -9.055   9.468  67.801  1.00  0.00    -0.125 C  
HETATM   22  C   UNL     1      -9.719   8.649  66.670  1.00  0.00    -0.247 C  
BRANCH  20  23
HETATM   23  C   UNL     1      -9.552   6.196  66.659  1.00  0.00    -0.152 A  
HETATM   24  N   UNL     1      -8.476   6.338  65.863  1.00  0.00    -0.141 NA 
HETATM   25  C   UNL     1      -7.838   5.228  65.457  1.00  0.00    -0.093 A  
HETATM   26  C   UNL     1      -8.240   3.962  65.792  1.00  0.00    -0.105 A  
HETATM   27  C   UNL     1      -9.350   3.903  66.593  1.00  0.00    -0.186 A  
HETATM   28  N   UNL     1     -10.005   4.988  67.041  1.00  0.00    -0.183 NA 
ENDBRANCH  20  23
ENDBRANCH  16  17
ENDBRANCH  15  16
ENDBRANCH  14  15
ENDBRANCH  13  14
ENDBRANCH   9  13
TORSDOF 6
ENDMDL
MODEL       68
REMARK 921   NORMALIZED FREE ENERGY PREDICTED BY IDOCK:   -4.98 KCAL/MOL
REMARK 922        TOTAL FREE ENERGY PREDICTED BY IDOCK:   -7.69 KCAL/MOL
REMARK 923 INTER-LIGAND FREE ENERGY PREDICTED BY IDOCK:   -7.27 KCAL/MOL
REMARK 924 INTRA-LIGAND FREE ENERGY PREDICTED BY IDOCK:   -0.42 KCAL/MOL
REMARK 927      BINDING AFFINITY PREDICTED BY RF-SCORE:    0.00 PKD
ROOT
HETATM    1  O   UNL     1      -7.443  15.208  68.662  1.00  0.00    -0.113 OA 
HETATM    2  C   UNL     1      -8.451  15.504  68.025  1.00  0.00    -0.143 C  
HETATM    3  C   UNL     1      -8.533  16.788  67.241  1.00  0.00    -0.202 C  
HETATM    4  C   UNL     1      -9.882  17.501  67.390  1.00  0.00    -0.297 C  
HETATM    5  C   UNL     1     -11.026  16.499  67.240  1.00  0.00    -0.084 C  
HETATM    6  C   UNL     1      -9.987  18.604  66.307  1.00  0.00    -0.398 C  
HETATM    7  C   UNL     1     -10.810  15.249  68.055  1.00  0.00    -0.288 C  
HETATM    8  C   UNL     1     -10.209  19.912  67.052  1.00  0.00    -0.588 C  
HETATM    9  N   UNL     1      -9.560  14.689  67.882  1.00  0.00    -0.209 N  
HETATM   10  C   UNL     1      -9.565  19.682  68.406  1.00  0.00    -0.468 C  
HETATM   11  O   UNL     1     -11.704  14.768  68.746  1.00  0.00    -0.302 OA 
HETATM   12  C   UNL     1      -9.967  18.252  68.737  1.00  0.00    -0.391 C  
ENDROOT
BRANCH   9  13
HETATM   13  C   UNL     1      -9.400  13.284  68.201  1.00  0.00    -0.220 C  
BRANCH  13  14
HETATM   14  C   UNL     1     -10.228  12.433  67.230  1.00  0.00    -0.224 C  
BRANCH  14  15
HETATM   15  C   UNL     1     -11.301  11.612  67.934  1.00  0.00    -0.369 C  
BRANCH  15  16
HETATM   16  C   UNL     1     -10.769  10.321  68.566  1.00  0.00    -0.227 C  
BRANCH  16  17
HETATM   17  N   UNL     1     -10.429  10.455  69.997  1.00  0.00    -0.234 NA 
HETATM   18  C   UNL     1     -11.509   9.955  70.885  1.00  0.00    -0.376 C  
HETATM   19  C   UNL     1     -11.818   8.451  70.714  1.00  0.00    -0.163 C  
HETATM   20  N   UNL     1     -10.595   7.656  70.860  1.00  0.00    -0.212 NA 
HETATM   21  C   UNL     1      -9.212   9.665  70.316  1.00  0.00    -0.236 C  
HETATM   22  C   UNL     1      -9.383   8.134  70.190  1.00  0.00    -0.159 C  
BRANCH  20  23
HETATM   23  C   UNL     1     -10.495   6.864  71.978  1.00  0.00    -0.205 A  
HETATM   24  N   UNL     1     -10.518   7.462  73.185  1.00  0.00    -0.319 NA 
HETATM   25  C   UNL     1     -10.486   6.683  74.277  1.00  0.00    -0.135 A  
HETATM   26  C   UNL     1     -10.408   5.315  74.228  1.00  0.00    -0.308 A  
HETATM   27  C   UNL     1     -10.376   4.787  72.964  1.00  0.00    -0.184 A  
HETATM   28  N   UNL     1     -10.430   5.528  71.844  1.00  0.00    -0.219 NA 
ENDBRANCH  20  23
ENDBRANCH  16  17
ENDBRANCH  15  16
ENDBRANCH  14  15
ENDBRANCH  13  14
ENDBRANCH   9  13
TORSDOF 6
ENDMDL
MODEL       69
REMARK 921   NORMALIZED FREE ENERGY PREDICTED BY IDOCK:   -4.98 KCAL/MOL
REMARK 922        TOTAL FREE ENERGY PREDICTED BY IDOCK:   -7.69 KCAL/MOL
REMARK 923 INTER-LIGAND FREE ENERGY PREDICTED BY IDOCK:   -6.32 KCAL/MOL
REMARK 924 INTRA-LIGAND FREE ENERGY PREDICTED BY IDOCK:   -1.37 KCAL/MOL
REMARK 927      BINDING AFFINITY PREDICTED BY RF-SCORE:    0.00 PKD
ROOT
HETATM    1  O   UNL     1     -10.163   5.398  67.231  1.00  0.00    -0.180 OA 
HETATM    2  C   UNL     1      -9.609   6.400  67.677  1.00  0.00    -0.122 C  
HETATM    3  C   UNL     1      -9.434   7.637  66.837  1.00  0.00    -0.222 C  
HETATM    4  C   UNL     1      -8.051   8.279  66.988  1.00  0.00    -0.104 C  
HETATM    5  C   UNL     1      -7.666   8.359  68.466  1.00  0.00    -0.104 C  
HETATM    6  C   UNL     1      -8.085   9.697  66.364  1.00  0.00    -0.112 C  
HETATM    7  C   UNL     1      -7.912   7.065  69.198  1.00  0.00    -0.119 C  
HETATM    8  C   UNL     1      -7.007   9.716  65.291  1.00  0.00    -0.101 C  
HETATM    9  N   UNL     1      -9.173   6.542  68.982  1.00  0.00    -0.131 N  
HETATM   10  C   UNL     1      -6.888   8.267  64.858  1.00  0.00    -0.071 C  
HETATM   11  O   UNL     1      -7.073   6.582  69.954  1.00  0.00    -0.064 OA 
HETATM   12  C   UNL     1      -6.989   7.508  66.173  1.00  0.00    -0.065 C  
ENDROOT
BRANCH   9  13
HETATM   13  C   UNL     1      -9.695   5.614  69.966  1.00  0.00    -0.173 C  
BRANCH  13  14
HETATM   14  C   UNL     1     -11.128   6.009  70.345  1.00  0.00    -0.399 C  
BRANCH  14  15
HETATM   15  C   UNL     1     -11.183   6.933  71.555  1.00  0.00    -0.290 C  
BRANCH  15  16
HETATM   16  C   UNL     1     -12.120   8.132  71.367  1.00  0.00    -0.297 C  
BRANCH  16  17
HETATM   17  N   UNL     1     -11.479   9.434  71.637  1.00  0.00    -0.389 NA 
HETATM   18  C   UNL     1     -10.444   9.777  70.628  1.00  0.00    -0.289 C  
HETATM   19  C   UNL     1     -10.992   9.920  69.190  1.00  0.00    -0.200 C  
HETATM   20  N   UNL     1     -12.105  10.872  69.158  1.00  0.00    -0.415 NA 
HETATM   21  C   UNL     1     -12.488  10.524  71.603  1.00  0.00    -0.340 C  
HETATM   22  C   UNL     1     -13.117  10.780  70.213  1.00  0.00     0.053 C  
BRANCH  20  23
HETATM   23  C   UNL     1     -11.886  12.069  68.519  1.00  0.00    -0.311 A  
HETATM   24  N   UNL     1     -11.599  13.148  69.273  1.00  0.00    -0.298 NA 
HETATM   25  C   UNL     1     -11.320  14.301  68.645  1.00  0.00    -0.275 A  
HETATM   26  C   UNL     1     -11.335  14.442  67.282  1.00  0.00    -0.357 A  
HETATM   27  C   UNL     1     -11.649  13.302  66.590  1.00  0.00    -0.365 A  
HETATM   28  N   UNL     1     -11.912  12.121  67.176  1.00  0.00    -0.584 NA 
ENDBRANCH  20  23
ENDBRANCH  16  17
ENDBRANCH  15  16
ENDBRANCH  14  15
ENDBRANCH  13  14
ENDBRANCH   9  13
TORSDOF 6
ENDMDL
MODEL       70
REMARK 921   NORMALIZED FREE ENERGY PREDICTED BY IDOCK:   -4.91 KCAL/MOL
REMARK 922        TOTAL FREE ENERGY PREDICTED BY IDOCK:   -7.60 KCAL/MOL
REMARK 923 INTER-LIGAND FREE ENERGY PREDICTED BY IDOCK:   -7.46 KCAL/MOL
REMARK 924 INTRA-LIGAND FREE ENERGY PREDICTED BY IDOCK:   -0.14 KCAL/MOL
REMARK 927      BINDING AFFINITY PREDICTED BY RF-SCORE:    0.00 PKD
ROOT
HETATM    1  O   UNL     1      -9.536  11.094  67.291  1.00  0.00    -0.163 OA 
HETATM    2  C   UNL     1     -10.356  12.007  67.233  1.00  0.00    -0.212 C  
HETATM    3  C   UNL     1     -10.280  13.060  66.159  1.00  0.00    -0.288 C  
HETATM    4  C   UNL     1     -10.541  14.476  66.684  1.00  0.00    -0.283 C  
HETATM    5  C   UNL     1     -11.763  14.480  67.602  1.00  0.00    -0.410 C  
HETATM    6  C   UNL     1     -10.771  15.423  65.479  1.00  0.00    -0.397 C  
HETATM    7  C   UNL     1     -11.730  13.363  68.613  1.00  0.00    -0.349 C  
HETATM    8  C   UNL     1      -9.724  16.521  65.594  1.00  0.00    -0.124 C  
HETATM    9  N   UNL     1     -11.459  12.127  68.058  1.00  0.00    -0.296 N  
HETATM   10  C   UNL     1      -8.581  15.866  66.346  1.00  0.00    -0.364 C  
HETATM   11  O   UNL     1     -11.985  13.558  69.799  1.00  0.00    -0.310 OA 
HETATM   12  C   UNL     1      -9.296  15.040  67.405  1.00  0.00    -0.204 C  
ENDROOT
BRANCH   9  13
HETATM   13  C   UNL     1     -11.870  10.951  68.800  1.00  0.00    -0.235 C  
BRANCH  13  14
HETATM   14  C   UNL     1     -10.894  10.695  69.954  1.00  0.00    -0.301 C  
BRANCH  14  15
HETATM   15  C   UNL     1     -11.562  10.042  71.157  1.00  0.00    -0.460 C  
BRANCH  15  16
HETATM   16  C   UNL     1     -10.664   9.032  71.883  1.00  0.00    -0.331 C  
BRANCH  16  17
HETATM   17  N   UNL     1     -11.412   8.019  72.652  1.00  0.00    -0.405 NA 
HETATM   18  C   UNL     1     -12.037   6.992  71.781  1.00  0.00    -0.336 C  
HETATM   19  C   UNL     1     -11.023   6.164  70.959  1.00  0.00    -0.293 C  
HETATM   20  N   UNL     1     -10.010   5.574  71.839  1.00  0.00    -0.175 NA 
HETATM   21  C   UNL     1     -10.502   7.298  73.580  1.00  0.00    -0.374 C  
HETATM   22  C   UNL     1      -9.434   6.422  72.886  1.00  0.00    -0.145 C  
BRANCH  20  23
HETATM   23  C   UNL     1     -10.039   4.209  71.998  1.00  0.00    -0.164 A  
HETATM   24  N   UNL     1     -10.682   3.708  73.070  1.00  0.00    -0.166 NA 
HETATM   25  C   UNL     1     -10.767   2.374  73.189  1.00  0.00    -0.163 A  
HETATM   26  C   UNL     1     -10.213   1.498  72.292  1.00  0.00    -0.222 A  
HETATM   27  C   UNL     1      -9.566   2.088  71.238  1.00  0.00    -0.144 A  
HETATM   28  N   UNL     1      -9.478   3.419  71.066  1.00  0.00    -0.147 NA 
ENDBRANCH  20  23
ENDBRANCH  16  17
ENDBRANCH  15  16
ENDBRANCH  14  15
ENDBRANCH  13  14
ENDBRANCH   9  13
TORSDOF 6
ENDMDL
MODEL       71
REMARK 921   NORMALIZED FREE ENERGY PREDICTED BY IDOCK:   -4.90 KCAL/MOL
REMARK 922        TOTAL FREE ENERGY PREDICTED BY IDOCK:   -7.59 KCAL/MOL
REMARK 923 INTER-LIGAND FREE ENERGY PREDICTED BY IDOCK:   -6.80 KCAL/MOL
REMARK 924 INTRA-LIGAND FREE ENERGY PREDICTED BY IDOCK:   -0.80 KCAL/MOL
REMARK 927      BINDING AFFINITY PREDICTED BY RF-SCORE:    0.00 PKD
ROOT
HETATM    1  O   UNL     1     -10.622  10.779  65.223  1.00  0.00    -0.249 OA 
HETATM    2  C   UNL     1      -9.571  10.319  65.663  1.00  0.00    -0.232 C  
HETATM    3  C   UNL     1      -8.259  10.556  64.964  1.00  0.00    -0.120 C  
HETATM    4  C   UNL     1      -7.374   9.306  64.901  1.00  0.00    -0.103 C  
HETATM    5  C   UNL     1      -7.342   8.614  66.264  1.00  0.00    -0.086 C  
HETATM    6  C   UNL     1      -5.944   9.724  64.476  1.00  0.00    -0.094 C  
HETATM    7  C   UNL     1      -8.715   8.461  66.866  1.00  0.00    -0.130 C  
HETATM    8  C   UNL     1      -5.628   8.938  63.212  1.00  0.00    -0.072 C  
HETATM    9  N   UNL     1      -9.454   9.628  66.856  1.00  0.00    -0.148 N  
HETATM   10  C   UNL     1      -6.986   8.674  62.590  1.00  0.00    -0.094 C  
HETATM   11  O   UNL     1      -9.085   7.402  67.366  1.00  0.00    -0.121 OA 
HETATM   12  C   UNL     1      -7.855   8.341  63.793  1.00  0.00    -0.152 C  
ENDROOT
BRANCH   9  13
HETATM   13  C   UNL     1     -10.543   9.746  67.806  1.00  0.00    -0.266 C  
BRANCH  13  14
HETATM   14  C   UNL     1     -10.350  10.999  68.667  1.00  0.00    -0.209 C  
BRANCH  14  15
HETATM   15  C   UNL     1     -11.613  11.845  68.768  1.00  0.00    -0.366 C  
BRANCH  15  16
HETATM   16  C   UNL     1     -11.393  13.194  69.462  1.00  0.00    -0.160 C  
BRANCH  16  17
HETATM   17  N   UNL     1     -12.249  14.278  68.940  1.00  0.00    -0.267 NA 
HETATM   18  C   UNL     1     -12.087  15.544  69.698  1.00  0.00    -0.328 C  
HETATM   19  C   UNL     1     -10.660  16.134  69.639  1.00  0.00    -0.311 C  
HETATM   20  N   UNL     1     -10.225  16.285  68.248  1.00  0.00    -0.245 NA 
HETATM   21  C   UNL     1     -11.901  14.576  67.527  1.00  0.00    -0.374 C  
HETATM   22  C   UNL     1     -10.492  15.181  67.323  1.00  0.00    -0.271 C  
BRANCH  20  23
HETATM   23  C   UNL     1     -10.096  17.567  67.769  1.00  0.00    -0.330 A  
HETATM   24  N   UNL     1      -9.517  18.486  68.565  1.00  0.00    -0.334 NA 
HETATM   25  C   UNL     1      -9.331  19.721  68.072  1.00  0.00    -0.352 A  
HETATM   26  C   UNL     1      -9.720  20.099  66.813  1.00  0.00    -0.577 A  
HETATM   27  C   UNL     1     -10.312  19.109  66.074  1.00  0.00    -0.463 A  
HETATM   28  N   UNL     1     -10.497  17.853  66.518  1.00  0.00    -0.343 NA 
ENDBRANCH  20  23
ENDBRANCH  16  17
ENDBRANCH  15  16
ENDBRANCH  14  15
ENDBRANCH  13  14
ENDBRANCH   9  13
TORSDOF 6
ENDMDL
MODEL       72
REMARK 921   NORMALIZED FREE ENERGY PREDICTED BY IDOCK:   -4.90 KCAL/MOL
REMARK 922        TOTAL FREE ENERGY PREDICTED BY IDOCK:   -7.59 KCAL/MOL
REMARK 923 INTER-LIGAND FREE ENERGY PREDICTED BY IDOCK:   -6.44 KCAL/MOL
REMARK 924 INTRA-LIGAND FREE ENERGY PREDICTED BY IDOCK:   -1.15 KCAL/MOL
REMARK 927      BINDING AFFINITY PREDICTED BY RF-SCORE:    0.00 PKD
ROOT
HETATM    1  O   UNL     1      -8.650   9.724  70.162  1.00  0.00    -0.203 OA 
HETATM    2  C   UNL     1      -9.744   9.985  69.666  1.00  0.00    -0.229 C  
HETATM    3  C   UNL     1      -9.876  10.364  68.214  1.00  0.00    -0.169 C  
HETATM    4  C   UNL     1     -10.841  11.531  67.980  1.00  0.00    -0.259 C  
HETATM    5  C   UNL     1     -12.125  11.321  68.783  1.00  0.00    -0.258 C  
HETATM    6  C   UNL     1     -11.160  11.621  66.467  1.00  0.00    -0.357 C  
HETATM    7  C   UNL     1     -11.855  10.922  70.211  1.00  0.00    -0.361 C  
HETATM    8  C   UNL     1     -10.753  13.019  66.027  1.00  0.00    -0.290 C  
HETATM    9  N   UNL     1     -10.953   9.883  70.330  1.00  0.00    -0.295 N  
HETATM   10  C   UNL     1      -9.656  13.408  67.000  1.00  0.00    -0.244 C  
HETATM   11  O   UNL     1     -12.446  11.450  71.150  1.00  0.00    -0.382 OA 
HETATM   12  C   UNL     1     -10.174  12.880  68.330  1.00  0.00    -0.245 C  
ENDROOT
BRANCH   9  13
HETATM   13  C   UNL     1     -10.979   9.105  71.554  1.00  0.00    -0.364 C  
BRANCH  13  14
HETATM   14  C   UNL     1     -11.919   7.905  71.387  1.00  0.00    -0.331 C  
BRANCH  14  15
HETATM   15  C   UNL     1     -11.178   6.620  71.040  1.00  0.00    -0.349 C  
BRANCH  15  16
HETATM   16  C   UNL     1     -11.197   6.287  69.543  1.00  0.00    -0.430 C  
BRANCH  16  17
HETATM   17  N   UNL     1      -9.901   6.503  68.870  1.00  0.00    -0.133 NA 
HETATM   18  C   UNL     1      -9.013   5.317  68.956  1.00  0.00    -0.106 C  
HETATM   19  C   UNL     1      -9.582   4.053  68.273  1.00  0.00    -0.125 C  
HETATM   20  N   UNL     1      -9.953   4.344  66.885  1.00  0.00    -0.206 NA 
HETATM   21  C   UNL     1     -10.109   6.779  67.424  1.00  0.00    -0.175 C  
HETATM   22  C   UNL     1     -10.675   5.590  66.614  1.00  0.00    -0.261 C  
BRANCH  20  23
HETATM   23  C   UNL     1      -9.190   3.765  65.900  1.00  0.00    -0.159 A  
HETATM   24  N   UNL     1      -8.841   2.472  66.044  1.00  0.00    -0.129 NA 
HETATM   25  C   UNL     1      -8.152   1.889  65.050  1.00  0.00    -0.078 A  
HETATM   26  C   UNL     1      -7.765   2.546  63.912  1.00  0.00    -0.068 A  
HETATM   27  C   UNL     1      -8.147   3.860  63.849  1.00  0.00    -0.090 A  
HETATM   28  N   UNL     1      -8.858   4.478  64.809  1.00  0.00    -0.145 NA 
ENDBRANCH  20  23
ENDBRANCH  16  17
ENDBRANCH  15  16
ENDBRANCH  14  15
ENDBRANCH  13  14
ENDBRANCH   9  13
TORSDOF 6
ENDMDL
MODEL       73
REMARK 921   NORMALIZED FREE ENERGY PREDICTED BY IDOCK:   -4.89 KCAL/MOL
REMARK 922        TOTAL FREE ENERGY PREDICTED BY IDOCK:   -7.58 KCAL/MOL
REMARK 923 INTER-LIGAND FREE ENERGY PREDICTED BY IDOCK:   -7.00 KCAL/MOL
REMARK 924 INTRA-LIGAND FREE ENERGY PREDICTED BY IDOCK:   -0.58 KCAL/MOL
REMARK 927      BINDING AFFINITY PREDICTED BY RF-SCORE:    0.00 PKD
ROOT
HETATM    1  O   UNL     1      -9.107   9.283  64.974  1.00  0.00    -0.217 OA 
HETATM    2  C   UNL     1      -8.927   8.461  65.869  1.00  0.00    -0.178 C  
HETATM    3  C   UNL     1      -7.627   7.711  65.994  1.00  0.00    -0.088 C  
HETATM    4  C   UNL     1      -7.817   6.224  66.316  1.00  0.00    -0.104 C  
HETATM    5  C   UNL     1      -8.850   6.054  67.430  1.00  0.00    -0.106 C  
HETATM    6  C   UNL     1      -6.454   5.628  66.749  1.00  0.00    -0.050 C  
HETATM    7  C   UNL     1     -10.092   6.876  67.197  1.00  0.00    -0.209 C  
HETATM    8  C   UNL     1      -6.167   4.481  65.791  1.00  0.00    -0.028 C  
HETATM    9  N   UNL     1      -9.828   8.195  66.885  1.00  0.00    -0.222 N  
HETATM   10  C   UNL     1      -6.910   4.861  64.525  1.00  0.00    -0.049 C  
HETATM   11  O   UNL     1     -11.215   6.401  67.341  1.00  0.00    -0.352 OA 
HETATM   12  C   UNL     1      -8.218   5.430  65.053  1.00  0.00    -0.137 C  
ENDROOT
BRANCH   9  13
HETATM   13  C   UNL     1     -10.879   9.166  67.116  1.00  0.00    -0.024 C  
BRANCH  13  14
HETATM   14  C   UNL     1     -10.312  10.382  67.859  1.00  0.00    -0.227 C  
BRANCH  14  15
HETATM   15  C   UNL     1     -10.931  11.695  67.399  1.00  0.00    -0.313 C  
BRANCH  15  16
HETATM   16  C   UNL     1     -10.931  12.784  68.479  1.00  0.00    -0.258 C  
BRANCH  16  17
HETATM   17  N   UNL     1     -11.893  13.874  68.224  1.00  0.00    -0.362 NA 
HETATM   18  C   UNL     1     -11.729  15.007  69.170  1.00  0.00    -0.319 C  
HETATM   19  C   UNL     1     -10.350  15.699  69.090  1.00  0.00    -0.241 C  
HETATM   20  N   UNL     1     -10.059  16.107  67.713  1.00  0.00    -0.245 NA 
HETATM   21  C   UNL     1     -11.698  14.425  66.857  1.00  0.00    -0.402 C  
HETATM   22  C   UNL     1     -10.352  15.153  66.639  1.00  0.00    -0.274 C  
BRANCH  20  23
HETATM   23  C   UNL     1     -10.048  17.455  67.449  1.00  0.00    -0.321 A  
HETATM   24  N   UNL     1     -10.342  17.861  66.199  1.00  0.00    -0.450 NA 
HETATM   25  C   UNL     1     -10.395  19.181  65.960  1.00  0.00    -0.463 A  
HETATM   26  C   UNL     1     -10.143  20.133  66.913  1.00  0.00    -0.592 A  
HETATM   27  C   UNL     1      -9.839  19.637  68.153  1.00  0.00    -0.418 A  
HETATM   28  N   UNL     1      -9.798  18.325  68.444  1.00  0.00    -0.349 NA 
ENDBRANCH  20  23
ENDBRANCH  16  17
ENDBRANCH  15  16
ENDBRANCH  14  15
ENDBRANCH  13  14
ENDBRANCH   9  13
TORSDOF 6
ENDMDL
MODEL       74
REMARK 921   NORMALIZED FREE ENERGY PREDICTED BY IDOCK:   -4.89 KCAL/MOL
REMARK 922        TOTAL FREE ENERGY PREDICTED BY IDOCK:   -7.58 KCAL/MOL
REMARK 923 INTER-LIGAND FREE ENERGY PREDICTED BY IDOCK:   -7.48 KCAL/MOL
REMARK 924 INTRA-LIGAND FREE ENERGY PREDICTED BY IDOCK:   -0.09 KCAL/MOL
REMARK 927      BINDING AFFINITY PREDICTED BY RF-SCORE:    0.00 PKD
ROOT
HETATM    1  O   UNL     1     -11.728  12.563  68.534  1.00  0.00    -0.290 OA 
HETATM    2  C   UNL     1     -11.809  13.729  68.914  1.00  0.00    -0.360 C  
HETATM    3  C   UNL     1     -11.417  14.874  68.018  1.00  0.00    -0.355 C  
HETATM    4  C   UNL     1     -10.614  15.960  68.743  1.00  0.00    -0.245 C  
HETATM    5  C   UNL     1     -11.271  16.294  70.082  1.00  0.00    -0.340 C  
HETATM    6  C   UNL     1     -10.552  17.220  67.844  1.00  0.00    -0.384 C  
HETATM    7  C   UNL     1     -11.637  15.062  70.870  1.00  0.00    -0.319 C  
HETATM    8  C   UNL     1      -9.075  17.513  67.622  1.00  0.00    -0.243 C  
HETATM    9  N   UNL     1     -12.333  14.125  70.132  1.00  0.00    -0.342 N  
HETATM   10  C   UNL     1      -8.404  16.159  67.760  1.00  0.00    -0.162 C  
HETATM   11  O   UNL     1     -11.381  14.963  72.067  1.00  0.00    -0.286 OA 
HETATM   12  C   UNL     1      -9.142  15.529  68.932  1.00  0.00    -0.219 C  
ENDROOT
BRANCH   9  13
HETATM   13  C   UNL     1     -13.142  13.163  70.855  1.00  0.00     0.031 C  
BRANCH  13  14
HETATM   14  C   UNL     1     -12.303  11.925  71.192  1.00  0.00    -0.303 C  
BRANCH  14  15
HETATM   15  C   UNL     1     -13.154  10.688  71.447  1.00  0.00    -0.499 C  
BRANCH  15  16
HETATM   16  C   UNL     1     -12.411   9.578  72.202  1.00  0.00    -0.301 C  
BRANCH  16  17
HETATM   17  N   UNL     1     -11.144   9.172  71.564  1.00  0.00    -0.341 NA 
HETATM   18  C   UNL     1     -10.251   8.436  72.495  1.00  0.00    -0.299 C  
HETATM   19  C   UNL     1     -10.846   7.111  73.022  1.00  0.00    -0.328 C  
HETATM   20  N   UNL     1     -11.271   6.261  71.907  1.00  0.00    -0.270 NA 
HETATM   21  C   UNL     1     -11.410   8.264  70.418  1.00  0.00    -0.175 C  
HETATM   22  C   UNL     1     -12.005   6.891  70.806  1.00  0.00    -0.373 C  
BRANCH  20  23
HETATM   23  C   UNL     1     -10.547   5.115  71.683  1.00  0.00    -0.156 A  
HETATM   24  N   UNL     1     -10.298   4.306  72.730  1.00  0.00    -0.173 NA 
HETATM   25  C   UNL     1      -9.648   3.154  72.498  1.00  0.00    -0.128 A  
HETATM   26  C   UNL     1      -9.205   2.773  71.259  1.00  0.00    -0.194 A  
HETATM   27  C   UNL     1      -9.487   3.657  70.251  1.00  0.00    -0.187 A  
HETATM   28  N   UNL     1     -10.156   4.809  70.433  1.00  0.00    -0.244 NA 
ENDBRANCH  20  23
ENDBRANCH  16  17
ENDBRANCH  15  16
ENDBRANCH  14  15
ENDBRANCH  13  14
ENDBRANCH   9  13
TORSDOF 6
ENDMDL
MODEL       75
REMARK 921   NORMALIZED FREE ENERGY PREDICTED BY IDOCK:   -4.87 KCAL/MOL
REMARK 922        TOTAL FREE ENERGY PREDICTED BY IDOCK:   -7.55 KCAL/MOL
REMARK 923 INTER-LIGAND FREE ENERGY PREDICTED BY IDOCK:   -7.10 KCAL/MOL
REMARK 924 INTRA-LIGAND FREE ENERGY PREDICTED BY IDOCK:   -0.46 KCAL/MOL
REMARK 927      BINDING AFFINITY PREDICTED BY RF-SCORE:    0.00 PKD
ROOT
HETATM    1  O   UNL     1     -12.516  10.991  68.528  1.00  0.00    -0.440 OA 
HETATM    2  C   UNL     1     -11.497  11.504  68.072  1.00  0.00    -0.311 C  
HETATM    3  C   UNL     1     -11.456  12.961  67.693  1.00  0.00    -0.383 C  
HETATM    4  C   UNL     1     -10.730  13.221  66.369  1.00  0.00    -0.291 C  
HETATM    5  C   UNL     1      -9.420  12.434  66.324  1.00  0.00    -0.220 C  
HETATM    6  C   UNL     1     -10.452  14.739  66.239  1.00  0.00    -0.300 C  
HETATM    7  C   UNL     1      -9.593  10.998  66.749  1.00  0.00    -0.190 C  
HETATM    8  C   UNL     1     -11.120  15.186  64.947  1.00  0.00    -0.425 C  
HETATM    9  N   UNL     1     -10.282  10.856  67.937  1.00  0.00    -0.174 N  
HETATM   10  C   UNL     1     -12.258  14.202  64.759  1.00  0.00    -0.457 C  
HETATM   11  O   UNL     1      -9.101  10.073  66.109  1.00  0.00    -0.149 OA 
HETATM   12  C   UNL     1     -11.634  12.875  65.164  1.00  0.00    -0.367 C  
ENDROOT
BRANCH   9  13
HETATM   13  C   UNL     1     -10.096   9.626  68.682  1.00  0.00    -0.179 C  
BRANCH  13  14
HETATM   14  C   UNL     1      -9.017   9.825  69.754  1.00  0.00    -0.239 C  
BRANCH  14  15
HETATM   15  C   UNL     1      -9.432   9.282  71.115  1.00  0.00    -0.287 C  
BRANCH  15  16
HETATM   16  C   UNL     1     -10.868   8.745  71.149  1.00  0.00    -0.268 C  
BRANCH  16  17
HETATM   17  N   UNL     1     -11.011   7.476  71.890  1.00  0.00    -0.230 NA 
HETATM   18  C   UNL     1     -11.815   6.474  71.147  1.00  0.00    -0.325 C  
HETATM   19  C   UNL     1     -11.199   6.050  69.795  1.00  0.00    -0.369 C  
HETATM   20  N   UNL     1      -9.818   5.595  69.981  1.00  0.00    -0.174 NA 
HETATM   21  C   UNL     1      -9.678   6.865  72.129  1.00  0.00    -0.148 C  
HETATM   22  C   UNL     1      -8.947   6.387  70.853  1.00  0.00    -0.144 C  
BRANCH  20  23
HETATM   23  C   UNL     1      -9.571   4.256  69.797  1.00  0.00    -0.209 A  
HETATM   24  N   UNL     1      -9.561   3.457  70.880  1.00  0.00    -0.167 NA 
HETATM   25  C   UNL     1      -9.385   2.139  70.692  1.00  0.00    -0.129 A  
HETATM   26  C   UNL     1      -9.193   1.571  69.460  1.00  0.00    -0.164 A  
HETATM   27  C   UNL     1      -9.203   2.453  68.413  1.00  0.00    -0.198 A  
HETATM   28  N   UNL     1      -9.400   3.776  68.552  1.00  0.00    -0.160 NA 
ENDBRANCH  20  23
ENDBRANCH  16  17
ENDBRANCH  15  16
ENDBRANCH  14  15
ENDBRANCH  13  14
ENDBRANCH   9  13
TORSDOF 6
ENDMDL
MODEL       76
REMARK 921   NORMALIZED FREE ENERGY PREDICTED BY IDOCK:   -4.86 KCAL/MOL
REMARK 922        TOTAL FREE ENERGY PREDICTED BY IDOCK:   -7.54 KCAL/MOL
REMARK 923 INTER-LIGAND FREE ENERGY PREDICTED BY IDOCK:   -6.97 KCAL/MOL
REMARK 924 INTRA-LIGAND FREE ENERGY PREDICTED BY IDOCK:   -0.56 KCAL/MOL
REMARK 927      BINDING AFFINITY PREDICTED BY RF-SCORE:    0.00 PKD
ROOT
HETATM    1  O   UNL     1     -10.030  14.419  65.684  1.00  0.00    -0.332 OA 
HETATM    2  C   UNL     1      -9.361  14.845  66.623  1.00  0.00    -0.268 C  
HETATM    3  C   UNL     1      -9.569  16.234  67.166  1.00  0.00    -0.238 C  
HETATM    4  C   UNL     1      -8.257  16.965  67.473  1.00  0.00    -0.191 C  
HETATM    5  C   UNL     1      -7.303  16.039  68.227  1.00  0.00    -0.129 C  
HETATM    6  C   UNL     1      -8.571  18.222  68.323  1.00  0.00    -0.299 C  
HETATM    7  C   UNL     1      -7.203  14.673  67.596  1.00  0.00    -0.186 C  
HETATM    8  C   UNL     1      -8.027  19.410  67.543  1.00  0.00    -0.302 C  
HETATM    9  N   UNL     1      -8.431  14.101  67.327  1.00  0.00    -0.208 N  
HETATM   10  C   UNL     1      -8.069  18.954  66.097  1.00  0.00    -0.241 C  
HETATM   11  O   UNL     1      -6.119  14.127  67.411  1.00  0.00    -0.343 OA 
HETATM   12  C   UNL     1      -7.608  17.507  66.180  1.00  0.00    -0.320 C  
ENDROOT
BRANCH   9  13
HETATM   13  C   UNL     1      -8.487  12.659  67.190  1.00  0.00    -0.186 C  
BRANCH  13  14
HETATM   14  C   UNL     1      -9.356  12.063  68.305  1.00  0.00    -0.197 C  
BRANCH  14  15
HETATM   15  C   UNL     1     -10.212  10.898  67.826  1.00  0.00    -0.209 C  
BRANCH  15  16
HETATM   16  C   UNL     1     -11.111  10.309  68.919  1.00  0.00    -0.231 C  
BRANCH  16  17
HETATM   17  N   UNL     1     -10.498  10.317  70.262  1.00  0.00    -0.224 NA 
HETATM   18  C   UNL     1     -11.462   9.943  71.328  1.00  0.00    -0.361 C  
HETATM   19  C   UNL     1     -12.032   8.514  71.187  1.00  0.00    -0.272 C  
HETATM   20  N   UNL     1     -10.945   7.536  71.082  1.00  0.00    -0.243 NA 
HETATM   21  C   UNL     1      -9.383   9.336  70.328  1.00  0.00    -0.239 C  
HETATM   22  C   UNL     1      -9.817   7.857  70.204  1.00  0.00    -0.184 C  
BRANCH  20  23
HETATM   23  C   UNL     1     -10.768   6.682  72.144  1.00  0.00    -0.218 A  
HETATM   24  N   UNL     1     -10.732   5.359  71.896  1.00  0.00    -0.227 NA 
HETATM   25  C   UNL     1     -10.494   4.530  72.924  1.00  0.00    -0.190 A  
HETATM   26  C   UNL     1     -10.308   4.958  74.213  1.00  0.00    -0.317 A  
HETATM   27  C   UNL     1     -10.372   6.315  74.382  1.00  0.00    -0.258 A  
HETATM   28  N   UNL     1     -10.585   7.184  73.378  1.00  0.00    -0.360 NA 
ENDBRANCH  20  23
ENDBRANCH  16  17
ENDBRANCH  15  16
ENDBRANCH  14  15
ENDBRANCH  13  14
ENDBRANCH   9  13
TORSDOF 6
ENDMDL
MODEL       77
REMARK 921   NORMALIZED FREE ENERGY PREDICTED BY IDOCK:   -4.86 KCAL/MOL
REMARK 922        TOTAL FREE ENERGY PREDICTED BY IDOCK:   -7.54 KCAL/MOL
REMARK 923 INTER-LIGAND FREE ENERGY PREDICTED BY IDOCK:   -6.46 KCAL/MOL
REMARK 924 INTRA-LIGAND FREE ENERGY PREDICTED BY IDOCK:   -1.08 KCAL/MOL
REMARK 927      BINDING AFFINITY PREDICTED BY RF-SCORE:    0.00 PKD
ROOT
HETATM    1  O   UNL     1     -10.995  12.398  65.105  1.00  0.00    -0.286 OA 
HETATM    2  C   UNL     1     -10.677  11.977  66.214  1.00  0.00    -0.267 C  
HETATM    3  C   UNL     1     -11.631  12.036  67.378  1.00  0.00    -0.388 C  
HETATM    4  C   UNL     1     -10.964  12.478  68.685  1.00  0.00    -0.291 C  
HETATM    5  C   UNL     1      -9.645  11.731  68.881  1.00  0.00     0.030 C  
HETATM    6  C   UNL     1     -11.928  12.187  69.863  1.00  0.00    -0.380 C  
HETATM    7  C   UNL     1      -8.794  11.724  67.637  1.00  0.00    -0.162 C  
HETATM    8  C   UNL     1     -12.163  13.519  70.559  1.00  0.00    -0.433 C  
HETATM    9  N   UNL     1      -9.482  11.342  66.502  1.00  0.00    -0.188 N  
HETATM   10  C   UNL     1     -11.953  14.551  69.467  1.00  0.00    -0.363 C  
HETATM   11  O   UNL     1      -7.593  11.979  67.676  1.00  0.00    -0.117 OA 
HETATM   12  C   UNL     1     -10.751  14.008  68.709  1.00  0.00    -0.272 C  
ENDROOT
BRANCH   9  13
HETATM   13  C   UNL     1      -8.710  10.834  65.384  1.00  0.00    -0.181 C  
BRANCH  13  14
HETATM   14  C   UNL     1      -8.227   9.411  65.690  1.00  0.00    -0.121 C  
BRANCH  14  15
HETATM   15  C   UNL     1      -9.341   8.376  65.592  1.00  0.00    -0.065 C  
BRANCH  15  16
HETATM   16  C   UNL     1      -9.954   8.006  66.947  1.00  0.00    -0.268 C  
BRANCH  16  17
HETATM   17  N   UNL     1      -9.117   7.090  67.747  1.00  0.00    -0.127 NA 
HETATM   18  C   UNL     1      -8.573   7.738  68.967  1.00  0.00    -0.135 C  
HETATM   19  C   UNL     1      -9.656   8.218  69.960  1.00  0.00    -0.168 C  
HETATM   20  N   UNL     1     -10.564   7.118  70.299  1.00  0.00    -0.221 NA 
HETATM   21  C   UNL     1      -9.916   5.922  68.202  1.00  0.00    -0.145 C  
HETATM   22  C   UNL     1     -11.039   6.261  69.209  1.00  0.00    -0.393 C  
BRANCH  20  23
HETATM   23  C   UNL     1     -10.501   6.628  71.581  1.00  0.00    -0.207 A  
HETATM   24  N   UNL     1     -10.601   5.297  71.757  1.00  0.00    -0.220 NA 
HETATM   25  C   UNL     1     -10.473   4.813  73.003  1.00  0.00    -0.202 A  
HETATM   26  C   UNL     1     -10.271   5.604  74.104  1.00  0.00    -0.283 A  
HETATM   27  C   UNL     1     -10.195   6.946  73.840  1.00  0.00    -0.367 A  
HETATM   28  N   UNL     1     -10.293   7.472  72.606  1.00  0.00    -0.235 NA 
ENDBRANCH  20  23
ENDBRANCH  16  17
ENDBRANCH  15  16
ENDBRANCH  14  15
ENDBRANCH  13  14
ENDBRANCH   9  13
TORSDOF 6
ENDMDL
MODEL       78
REMARK 921   NORMALIZED FREE ENERGY PREDICTED BY IDOCK:   -4.85 KCAL/MOL
REMARK 922        TOTAL FREE ENERGY PREDICTED BY IDOCK:   -7.52 KCAL/MOL
REMARK 923 INTER-LIGAND FREE ENERGY PREDICTED BY IDOCK:   -6.73 KCAL/MOL
REMARK 924 INTRA-LIGAND FREE ENERGY PREDICTED BY IDOCK:   -0.79 KCAL/MOL
REMARK 927      BINDING AFFINITY PREDICTED BY RF-SCORE:    0.00 PKD
ROOT
HETATM    1  O   UNL     1      -6.914   8.644  69.015  1.00  0.00    -0.062 OA 
HETATM    2  C   UNL     1      -7.744   8.645  68.109  1.00  0.00    -0.102 C  
HETATM    3  C   UNL     1      -8.942   7.733  68.144  1.00  0.00    -0.127 C  
HETATM    4  C   UNL     1      -9.244   7.082  66.790  1.00  0.00    -0.181 C  
HETATM    5  C   UNL     1      -9.173   8.126  65.676  1.00  0.00    -0.040 C  
HETATM    6  C   UNL     1     -10.656   6.446  66.843  1.00  0.00    -0.379 C  
HETATM    7  C   UNL     1      -7.941   8.988  65.769  1.00  0.00    -0.103 C  
HETATM    8  C   UNL     1     -10.472   4.971  66.521  1.00  0.00    -0.325 C  
HETATM    9  N   UNL     1      -7.730   9.510  67.030  1.00  0.00    -0.091 N  
HETATM   10  C   UNL     1      -9.053   4.669  66.965  1.00  0.00    -0.126 C  
HETATM   11  O   UNL     1      -7.249   9.232  64.784  1.00  0.00    -0.098 OA 
HETATM   12  C   UNL     1      -8.284   5.902  66.516  1.00  0.00    -0.110 C  
ENDROOT
BRANCH   9  13
HETATM   13  C   UNL     1      -6.906  10.699  67.139  1.00  0.00    -0.083 C  
BRANCH  13  14
HETATM   14  C   UNL     1      -7.758  11.881  67.616  1.00  0.00    -0.141 C  
BRANCH  14  15
HETATM   15  C   UNL     1      -9.102  11.965  66.904  1.00  0.00    -0.196 C  
BRANCH  15  16
HETATM   16  C   UNL     1     -10.113  12.877  67.608  1.00  0.00    -0.221 C  
BRANCH  16  17
HETATM   17  N   UNL     1     -10.840  13.777  66.691  1.00  0.00    -0.287 NA 
HETATM   18  C   UNL     1     -11.652  14.788  67.414  1.00  0.00    -0.360 C  
HETATM   19  C   UNL     1     -10.821  15.747  68.296  1.00  0.00    -0.305 C  
HETATM   20  N   UNL     1      -9.759  16.378  67.508  1.00  0.00    -0.229 NA 
HETATM   21  C   UNL     1      -9.884  14.526  65.835  1.00  0.00    -0.321 C  
HETATM   22  C   UNL     1      -8.988  15.532  66.595  1.00  0.00    -0.287 C  
BRANCH  20  23
HETATM   23  C   UNL     1      -9.881  17.724  67.260  1.00  0.00    -0.312 A  
HETATM   24  N   UNL     1      -9.491  18.585  68.219  1.00  0.00    -0.321 NA 
HETATM   25  C   UNL     1      -9.549  19.899  67.950  1.00  0.00    -0.375 A  
HETATM   26  C   UNL     1     -10.005  20.408  66.763  1.00  0.00    -0.525 A  
HETATM   27  C   UNL     1     -10.395  19.467  65.847  1.00  0.00    -0.470 A  
HETATM   28  N   UNL     1     -10.331  18.142  66.064  1.00  0.00    -0.553 NA 
ENDBRANCH  20  23
ENDBRANCH  16  17
ENDBRANCH  15  16
ENDBRANCH  14  15
ENDBRANCH  13  14
ENDBRANCH   9  13
TORSDOF 6
ENDMDL
MODEL       79
REMARK 921   NORMALIZED FREE ENERGY PREDICTED BY IDOCK:   -4.85 KCAL/MOL
REMARK 922        TOTAL FREE ENERGY PREDICTED BY IDOCK:   -7.52 KCAL/MOL
REMARK 923 INTER-LIGAND FREE ENERGY PREDICTED BY IDOCK:   -6.69 KCAL/MOL
REMARK 924 INTRA-LIGAND FREE ENERGY PREDICTED BY IDOCK:   -0.83 KCAL/MOL
REMARK 927      BINDING AFFINITY PREDICTED BY RF-SCORE:    0.00 PKD
ROOT
HETATM    1  O   UNL     1     -11.338   6.449  68.710  1.00  0.00    -0.327 OA 
HETATM    2  C   UNL     1     -10.624   6.219  69.684  1.00  0.00    -0.264 C  
HETATM    3  C   UNL     1      -9.230   5.673  69.521  1.00  0.00    -0.154 C  
HETATM    4  C   UNL     1      -8.892   4.570  70.529  1.00  0.00    -0.140 C  
HETATM    5  C   UNL     1      -9.337   4.985  71.932  1.00  0.00    -0.176 C  
HETATM    6  C   UNL     1      -7.364   4.317  70.502  1.00  0.00    -0.048 C  
HETATM    7  C   UNL     1     -10.739   5.536  71.953  1.00  0.00    -0.231 C  
HETATM    8  C   UNL     1      -7.181   2.846  70.162  1.00  0.00    -0.040 C  
HETATM    9  N   UNL     1     -10.964   6.504  70.994  1.00  0.00    -0.252 N  
HETATM   10  C   UNL     1      -8.423   2.492  69.366  1.00  0.00    -0.100 C  
HETATM   11  O   UNL     1     -11.558   5.182  72.797  1.00  0.00    -0.257 OA 
HETATM   12  C   UNL     1      -9.528   3.225  70.113  1.00  0.00    -0.233 C  
ENDROOT
BRANCH   9  13
HETATM   13  C   UNL     1     -12.059   7.430  71.213  1.00  0.00    -0.328 C  
BRANCH  13  14
HETATM   14  C   UNL     1     -11.557   8.654  71.988  1.00  0.00    -0.440 C  
BRANCH  14  15
HETATM   15  C   UNL     1     -11.932   9.970  71.318  1.00  0.00    -0.483 C  
BRANCH  15  16
HETATM   16  C   UNL     1     -11.272  10.168  69.948  1.00  0.00    -0.287 C  
BRANCH  16  17
HETATM   17  N   UNL     1     -12.129  10.873  68.973  1.00  0.00    -0.451 NA 
HETATM   18  C   UNL     1     -12.390  12.282  69.362  1.00  0.00     0.090 C  
HETATM   19  C   UNL     1     -11.120  13.157  69.444  1.00  0.00    -0.079 C  
HETATM   20  N   UNL     1     -10.362  13.080  68.192  1.00  0.00    -0.234 NA 
HETATM   21  C   UNL     1     -11.472  10.910  67.640  1.00  0.00    -0.200 C  
HETATM   22  C   UNL     1     -10.183  11.762  67.579  1.00  0.00    -0.195 C  
BRANCH  20  23
HETATM   23  C   UNL     1     -10.328  14.211  67.412  1.00  0.00    -0.256 A  
HETATM   24  N   UNL     1     -10.157  14.062  66.084  1.00  0.00    -0.300 NA 
HETATM   25  C   UNL     1     -10.190  15.162  65.315  1.00  0.00    -0.368 A  
HETATM   26  C   UNL     1     -10.363  16.427  65.813  1.00  0.00    -0.388 A  
HETATM   27  C   UNL     1     -10.516  16.493  67.173  1.00  0.00    -0.300 A  
HETATM   28  N   UNL     1     -10.514  15.416  67.978  1.00  0.00    -0.252 NA 
ENDBRANCH  20  23
ENDBRANCH  16  17
ENDBRANCH  15  16
ENDBRANCH  14  15
ENDBRANCH  13  14
ENDBRANCH   9  13
TORSDOF 6
ENDMDL
MODEL       80
REMARK 921   NORMALIZED FREE ENERGY PREDICTED BY IDOCK:   -4.84 KCAL/MOL
REMARK 922        TOTAL FREE ENERGY PREDICTED BY IDOCK:   -7.51 KCAL/MOL
REMARK 923 INTER-LIGAND FREE ENERGY PREDICTED BY IDOCK:   -6.45 KCAL/MOL
REMARK 924 INTRA-LIGAND FREE ENERGY PREDICTED BY IDOCK:   -1.07 KCAL/MOL
REMARK 927      BINDING AFFINITY PREDICTED BY RF-SCORE:    0.00 PKD
ROOT
HETATM    1  O   UNL     1     -11.231   6.221  67.870  1.00  0.00    -0.323 OA 
HETATM    2  C   UNL     1     -10.259   5.801  68.494  1.00  0.00    -0.192 C  
HETATM    3  C   UNL     1      -9.069   5.210  67.785  1.00  0.00    -0.119 C  
HETATM    4  C   UNL     1      -8.531   3.945  68.461  1.00  0.00    -0.107 C  
HETATM    5  C   UNL     1      -8.429   4.158  69.972  1.00  0.00    -0.091 C  
HETATM    6  C   UNL     1      -7.138   3.613  67.869  1.00  0.00    -0.051 C  
HETATM    7  C   UNL     1      -9.673   4.778  70.553  1.00  0.00    -0.211 C  
HETATM    8  C   UNL     1      -7.240   2.206  67.301  1.00  0.00    -0.055 C  
HETATM    9  N   UNL     1     -10.104   5.895  69.865  1.00  0.00    -0.183 N  
HETATM   10  C   UNL     1      -8.709   2.052  66.953  1.00  0.00    -0.131 C  
HETATM   11  O   UNL     1     -10.192   4.342  71.578  1.00  0.00    -0.173 OA 
HETATM   12  C   UNL     1      -9.411   2.719  68.126  1.00  0.00    -0.258 C  
ENDROOT
BRANCH   9  13
HETATM   13  C   UNL     1     -10.954   6.835  70.570  1.00  0.00    -0.280 C  
BRANCH  13  14
HETATM   14  C   UNL     1     -10.117   7.648  71.565  1.00  0.00    -0.205 C  
BRANCH  14  15
HETATM   15  C   UNL     1      -9.044   8.488  70.885  1.00  0.00    -0.208 C  
BRANCH  15  16
HETATM   16  C   UNL     1      -9.604   9.681  70.102  1.00  0.00    -0.254 C  
BRANCH  16  17
HETATM   17  N   UNL     1      -9.434   9.566  68.640  1.00  0.00    -0.141 NA 
HETATM   18  C   UNL     1     -10.727   9.619  67.913  1.00  0.00    -0.247 C  
HETATM   19  C   UNL     1     -11.498  10.946  68.096  1.00  0.00    -0.295 C  
HETATM   20  N   UNL     1     -10.644  12.086  67.751  1.00  0.00    -0.202 NA 
HETATM   21  C   UNL     1      -8.606  10.688  68.126  1.00  0.00    -0.123 C  
HETATM   22  C   UNL     1      -9.264  12.083  68.244  1.00  0.00    -0.192 C  
BRANCH  20  23
HETATM   23  C   UNL     1     -10.966  12.787  66.614  1.00  0.00    -0.270 A  
HETATM   24  N   UNL     1     -12.218  12.675  66.132  1.00  0.00    -0.586 NA 
HETATM   25  C   UNL     1     -12.551  13.410  65.059  1.00  0.00    -0.403 A  
HETATM   26  C   UNL     1     -11.677  14.249  64.418  1.00  0.00    -0.405 A  
HETATM   27  C   UNL     1     -10.421  14.295  64.962  1.00  0.00    -0.435 A  
HETATM   28  N   UNL     1     -10.051  13.595  66.049  1.00  0.00    -0.305 NA 
ENDBRANCH  20  23
ENDBRANCH  16  17
ENDBRANCH  15  16
ENDBRANCH  14  15
ENDBRANCH  13  14
ENDBRANCH   9  13
TORSDOF 6
ENDMDL
MODEL       81
REMARK 921   NORMALIZED FREE ENERGY PREDICTED BY IDOCK:   -4.84 KCAL/MOL
REMARK 922        TOTAL FREE ENERGY PREDICTED BY IDOCK:   -7.51 KCAL/MOL
REMARK 923 INTER-LIGAND FREE ENERGY PREDICTED BY IDOCK:   -6.75 KCAL/MOL
REMARK 924 INTRA-LIGAND FREE ENERGY PREDICTED BY IDOCK:   -0.75 KCAL/MOL
REMARK 927      BINDING AFFINITY PREDICTED BY RF-SCORE:    0.00 PKD
ROOT
HETATM    1  O   UNL     1      -9.626  12.390  67.085  1.00  0.00    -0.198 OA 
HETATM    2  C   UNL     1      -9.874  13.330  66.334  1.00  0.00    -0.281 C  
HETATM    3  C   UNL     1      -9.178  14.658  66.486  1.00  0.00    -0.294 C  
HETATM    4  C   UNL     1     -10.122  15.855  66.331  1.00  0.00    -0.306 C  
HETATM    5  C   UNL     1     -11.027  15.658  65.115  1.00  0.00    -0.411 C  
HETATM    6  C   UNL     1      -9.276  17.143  66.170  1.00  0.00    -0.216 C  
HETATM    7  C   UNL     1     -11.641  14.282  65.068  1.00  0.00    -0.367 C  
HETATM    8  C   UNL     1      -9.699  18.075  67.295  1.00  0.00    -0.297 C  
HETATM    9  N   UNL     1     -10.724  13.265  65.245  1.00  0.00    -0.301 N  
HETATM   10  C   UNL     1     -10.183  17.141  68.388  1.00  0.00    -0.340 C  
HETATM   11  O   UNL     1     -12.834  14.117  64.830  1.00  0.00    -0.677 OA 
HETATM   12  C   UNL     1     -10.951  16.078  67.616  1.00  0.00    -0.284 C  
ENDROOT
BRANCH   9  13
HETATM   13  C   UNL     1     -11.074  11.948  64.749  1.00  0.00    -0.311 C  
BRANCH  13  14
HETATM   14  C   UNL     1     -10.135  11.557  63.601  1.00  0.00    -0.427 C  
BRANCH  14  15
HETATM   15  C   UNL     1      -9.302  10.321  63.916  1.00  0.00    -0.337 C  
BRANCH  15  16
HETATM   16  C   UNL     1      -9.502   9.795  65.342  1.00  0.00    -0.269 C  
BRANCH  16  17
HETATM   17  N   UNL     1      -8.286   9.198  65.930  1.00  0.00    -0.119 NA 
HETATM   18  C   UNL     1      -8.269   9.292  67.412  1.00  0.00    -0.117 C  
HETATM   19  C   UNL     1      -9.427   8.540  68.104  1.00  0.00    -0.141 C  
HETATM   20  N   UNL     1      -9.471   7.144  67.658  1.00  0.00    -0.126 NA 
HETATM   21  C   UNL     1      -8.204   7.753  65.591  1.00  0.00    -0.135 C  
HETATM   22  C   UNL     1      -9.308   6.877  66.226  1.00  0.00    -0.099 C  
BRANCH  20  23
HETATM   23  C   UNL     1      -9.133   6.183  68.579  1.00  0.00    -0.117 A  
HETATM   24  N   UNL     1      -9.586   6.323  69.839  1.00  0.00    -0.155 NA 
HETATM   25  C   UNL     1      -9.311   5.350  70.722  1.00  0.00    -0.159 A  
HETATM   26  C   UNL     1      -8.575   4.236  70.414  1.00  0.00    -0.105 A  
HETATM   27  C   UNL     1      -8.140   4.176  69.116  1.00  0.00    -0.066 A  
HETATM   28  N   UNL     1      -8.413   5.115  68.193  1.00  0.00    -0.100 NA 
ENDBRANCH  20  23
ENDBRANCH  16  17
ENDBRANCH  15  16
ENDBRANCH  14  15
ENDBRANCH  13  14
ENDBRANCH   9  13
TORSDOF 6
ENDMDL
MODEL       82
REMARK 921   NORMALIZED FREE ENERGY PREDICTED BY IDOCK:   -4.83 KCAL/MOL
REMARK 922        TOTAL FREE ENERGY PREDICTED BY IDOCK:   -7.50 KCAL/MOL
REMARK 923 INTER-LIGAND FREE ENERGY PREDICTED BY IDOCK:   -7.28 KCAL/MOL
REMARK 924 INTRA-LIGAND FREE ENERGY PREDICTED BY IDOCK:   -0.23 KCAL/MOL
REMARK 927      BINDING AFFINITY PREDICTED BY RF-SCORE:    0.00 PKD
ROOT
HETATM    1  O   UNL     1     -11.578   8.565  70.374  1.00  0.00    -0.204 OA 
HETATM    2  C   UNL     1     -11.374   7.358  70.484  1.00  0.00    -0.271 C  
HETATM    3  C   UNL     1     -11.735   6.615  71.743  1.00  0.00    -0.363 C  
HETATM    4  C   UNL     1     -10.662   5.613  72.181  1.00  0.00    -0.287 C  
HETATM    5  C   UNL     1     -10.183   4.795  70.982  1.00  0.00    -0.239 C  
HETATM    6  C   UNL     1     -11.260   4.680  73.264  1.00  0.00    -0.411 C  
HETATM    7  C   UNL     1      -9.879   5.654  69.781  1.00  0.00    -0.185 C  
HETATM    8  C   UNL     1     -10.373   4.828  74.491  1.00  0.00    -0.324 C  
HETATM    9  N   UNL     1     -10.887   6.547  69.475  1.00  0.00    -0.273 N  
HETATM   10  C   UNL     1      -9.793   6.224  74.363  1.00  0.00    -0.320 C  
HETATM   11  O   UNL     1      -8.851   5.505  69.126  1.00  0.00    -0.102 OA 
HETATM   12  C   UNL     1      -9.484   6.331  72.877  1.00  0.00    -0.147 C  
ENDROOT
BRANCH   9  13
HETATM   13  C   UNL     1     -10.943   7.061  68.120  1.00  0.00    -0.096 C  
BRANCH  13  14
HETATM   14  C   UNL     1      -9.825   8.088  67.905  1.00  0.00    -0.204 C  
BRANCH  14  15
HETATM   15  C   UNL     1     -10.157   9.102  66.818  1.00  0.00    -0.341 C  
BRANCH  15  16
HETATM   16  C   UNL     1     -10.918  10.328  67.336  1.00  0.00    -0.252 C  
BRANCH  16  17
HETATM   17  N   UNL     1     -10.847  11.496  66.436  1.00  0.00    -0.278 NA 
HETATM   18  C   UNL     1     -11.816  12.558  66.806  1.00  0.00    -0.346 C  
HETATM   19  C   UNL     1     -11.587  13.156  68.213  1.00  0.00    -0.335 C  
HETATM   20  N   UNL     1     -10.204  13.622  68.352  1.00  0.00    -0.242 NA 
HETATM   21  C   UNL     1      -9.495  12.111  66.492  1.00  0.00    -0.231 C  
HETATM   22  C   UNL     1      -9.135  12.755  67.851  1.00  0.00    -0.204 C  
BRANCH  20  23
HETATM   23  C   UNL     1     -10.008  14.980  68.432  1.00  0.00    -0.225 A  
HETATM   24  N   UNL     1      -8.754  15.429  68.630  1.00  0.00    -0.180 NA 
HETATM   25  C   UNL     1      -8.554  16.757  68.642  1.00  0.00    -0.263 A  
HETATM   26  C   UNL     1      -9.560  17.674  68.488  1.00  0.00    -0.315 A  
HETATM   27  C   UNL     1     -10.806  17.135  68.305  1.00  0.00    -0.314 A  
HETATM   28  N   UNL     1     -11.049  15.814  68.262  1.00  0.00    -0.326 NA 
ENDBRANCH  20  23
ENDBRANCH  16  17
ENDBRANCH  15  16
ENDBRANCH  14  15
ENDBRANCH  13  14
ENDBRANCH   9  13
TORSDOF 6
ENDMDL
MODEL       83
REMARK 921   NORMALIZED FREE ENERGY PREDICTED BY IDOCK:   -4.80 KCAL/MOL
REMARK 922        TOTAL FREE ENERGY PREDICTED BY IDOCK:   -7.46 KCAL/MOL
REMARK 923 INTER-LIGAND FREE ENERGY PREDICTED BY IDOCK:   -7.55 KCAL/MOL
REMARK 924 INTRA-LIGAND FREE ENERGY PREDICTED BY IDOCK:    0.09 KCAL/MOL
REMARK 927      BINDING AFFINITY PREDICTED BY RF-SCORE:    0.00 PKD
ROOT
HETATM    1  O   UNL     1      -9.521   9.333  68.669  1.00  0.00    -0.145 OA 
HETATM    2  C   UNL     1      -9.701   8.231  69.180  1.00  0.00    -0.171 C  
HETATM    3  C   UNL     1      -9.030   6.996  68.637  1.00  0.00    -0.130 C  
HETATM    4  C   UNL     1      -9.961   5.781  68.576  1.00  0.00    -0.197 C  
HETATM    5  C   UNL     1     -10.744   5.651  69.883  1.00  0.00    -0.399 C  
HETATM    6  C   UNL     1      -9.110   4.509  68.330  1.00  0.00    -0.161 C  
HETATM    7  C   UNL     1     -11.343   6.960  70.329  1.00  0.00    -0.324 C  
HETATM    8  C   UNL     1      -9.645   3.879  67.053  1.00  0.00    -0.227 C  
HETATM    9  N   UNL     1     -10.442   8.007  70.327  1.00  0.00    -0.217 N  
HETATM   10  C   UNL     1     -10.225   5.047  66.278  1.00  0.00    -0.306 C  
HETATM   11  O   UNL     1     -12.508   7.039  70.712  1.00  0.00    -0.338 OA 
HETATM   12  C   UNL     1     -10.910   5.869  67.360  1.00  0.00    -0.341 C  
ENDROOT
BRANCH   9  13
HETATM   13  C   UNL     1     -10.736   9.152  71.166  1.00  0.00    -0.310 C  
BRANCH  13  14
HETATM   14  C   UNL     1     -12.182   9.608  70.937  1.00  0.00    -0.368 C  
BRANCH  14  15
HETATM   15  C   UNL     1     -12.313  11.121  70.829  1.00  0.00    -0.504 C  
BRANCH  15  16
HETATM   16  C   UNL     1     -11.424  11.737  69.742  1.00  0.00    -0.245 C  
BRANCH  16  17
HETATM   17  N   UNL     1     -12.144  12.649  68.831  1.00  0.00    -0.209 NA 
HETATM   18  C   UNL     1     -12.314  14.007  69.407  1.00  0.00    -0.205 C  
HETATM   19  C   UNL     1     -10.985  14.739  69.695  1.00  0.00    -0.261 C  
HETATM   20  N   UNL     1     -10.146  14.770  68.494  1.00  0.00    -0.224 NA 
HETATM   21  C   UNL     1     -11.390  12.813  67.561  1.00  0.00    -0.312 C  
HETATM   22  C   UNL     1     -10.033  13.541  67.705  1.00  0.00    -0.229 C  
BRANCH  20  23
HETATM   23  C   UNL     1      -9.959  15.991  67.893  1.00  0.00    -0.233 A  
HETATM   24  N   UNL     1     -10.566  17.065  68.434  1.00  0.00    -0.361 NA 
HETATM   25  C   UNL     1     -10.331  18.267  67.886  1.00  0.00    -0.399 A  
HETATM   26  C   UNL     1      -9.526  18.455  66.793  1.00  0.00    -0.297 A  
HETATM   27  C   UNL     1      -8.957  17.312  66.295  1.00  0.00    -0.217 A  
HETATM   28  N   UNL     1      -9.146  16.091  66.827  1.00  0.00    -0.225 NA 
ENDBRANCH  20  23
ENDBRANCH  16  17
ENDBRANCH  15  16
ENDBRANCH  14  15
ENDBRANCH  13  14
ENDBRANCH   9  13
TORSDOF 6
ENDMDL
MODEL       84
REMARK 921   NORMALIZED FREE ENERGY PREDICTED BY IDOCK:   -4.78 KCAL/MOL
REMARK 922        TOTAL FREE ENERGY PREDICTED BY IDOCK:   -7.42 KCAL/MOL
REMARK 923 INTER-LIGAND FREE ENERGY PREDICTED BY IDOCK:   -7.21 KCAL/MOL
REMARK 924 INTRA-LIGAND FREE ENERGY PREDICTED BY IDOCK:   -0.22 KCAL/MOL
REMARK 927      BINDING AFFINITY PREDICTED BY RF-SCORE:    0.00 PKD
ROOT
HETATM    1  O   UNL     1      -7.444   7.568  68.123  1.00  0.00    -0.099 OA 
HETATM    2  C   UNL     1      -8.632   7.411  68.393  1.00  0.00    -0.124 C  
HETATM    3  C   UNL     1      -9.089   7.177  69.809  1.00  0.00    -0.141 C  
HETATM    4  C   UNL     1     -10.161   6.088  69.926  1.00  0.00    -0.265 C  
HETATM    5  C   UNL     1     -11.232   6.286  68.854  1.00  0.00    -0.387 C  
HETATM    6  C   UNL     1     -10.794   6.156  71.339  1.00  0.00    -0.319 C  
HETATM    7  C   UNL     1     -10.644   6.536  67.488  1.00  0.00    -0.280 C  
HETATM    8  C   UNL     1     -10.585   4.786  71.966  1.00  0.00    -0.176 C  
HETATM    9  N   UNL     1      -9.667   7.512  67.481  1.00  0.00    -0.143 N  
HETATM   10  C   UNL     1      -9.340   4.252  71.284  1.00  0.00    -0.214 C  
HETATM   11  O   UNL     1     -11.062   5.954  66.491  1.00  0.00    -0.205 OA 
HETATM   12  C   UNL     1      -9.532   4.679  69.836  1.00  0.00    -0.237 C  
ENDROOT
BRANCH   9  13
HETATM   13  C   UNL     1      -9.384   8.173  66.222  1.00  0.00    -0.196 C  
BRANCH  13  14
HETATM   14  C   UNL     1      -9.436   9.694  66.409  1.00  0.00    -0.244 C  
BRANCH  14  15
HETATM   15  C   UNL     1      -9.897  10.426  65.155  1.00  0.00    -0.378 C  
BRANCH  15  16
HETATM   16  C   UNL     1      -9.500  11.907  65.130  1.00  0.00    -0.042 C  
BRANCH  16  17
HETATM   17  N   UNL     1     -10.643  12.831  65.265  1.00  0.00    -0.284 NA 
HETATM   18  C   UNL     1     -11.695  12.304  66.171  1.00  0.00    -0.376 C  
HETATM   19  C   UNL     1     -11.220  12.083  67.624  1.00  0.00    -0.282 C  
HETATM   20  N   UNL     1     -10.619  13.308  68.159  1.00  0.00    -0.242 NA 
HETATM   21  C   UNL     1     -10.195  14.128  65.837  1.00  0.00    -0.319 C  
HETATM   22  C   UNL     1      -9.696  14.051  67.298  1.00  0.00    -0.237 C  
BRANCH  20  23
HETATM   23  C   UNL     1     -11.309  13.961  69.152  1.00  0.00    -0.286 A  
HETATM   24  N   UNL     1     -11.283  15.307  69.163  1.00  0.00    -0.260 NA 
HETATM   25  C   UNL     1     -12.012  15.946  70.093  1.00  0.00    -0.288 A  
HETATM   26  C   UNL     1     -12.759  15.299  71.042  1.00  0.00    -0.487 A  
HETATM   27  C   UNL     1     -12.721  13.932  70.970  1.00  0.00    -0.357 A  
HETATM   28  N   UNL     1     -12.025  13.252  70.041  1.00  0.00    -0.339 NA 
ENDBRANCH  20  23
ENDBRANCH  16  17
ENDBRANCH  15  16
ENDBRANCH  14  15
ENDBRANCH  13  14
ENDBRANCH   9  13
TORSDOF 6
ENDMDL
MODEL       85
REMARK 921   NORMALIZED FREE ENERGY PREDICTED BY IDOCK:   -4.76 KCAL/MOL
REMARK 922        TOTAL FREE ENERGY PREDICTED BY IDOCK:   -7.40 KCAL/MOL
REMARK 923 INTER-LIGAND FREE ENERGY PREDICTED BY IDOCK:   -6.66 KCAL/MOL
REMARK 924 INTRA-LIGAND FREE ENERGY PREDICTED BY IDOCK:   -0.75 KCAL/MOL
REMARK 927      BINDING AFFINITY PREDICTED BY RF-SCORE:    0.00 PKD
ROOT
HETATM    1  O   UNL     1     -10.750  15.927  65.325  1.00  0.00    -0.397 OA 
HETATM    2  C   UNL     1     -10.251  16.242  66.403  1.00  0.00    -0.313 C  
HETATM    3  C   UNL     1     -10.180  17.680  66.843  1.00  0.00    -0.334 C  
HETATM    4  C   UNL     1      -8.838  18.051  67.482  1.00  0.00    -0.252 C  
HETATM    5  C   UNL     1      -8.418  16.976  68.485  1.00  0.00    -0.257 C  
HETATM    6  C   UNL     1      -8.981  19.422  68.190  1.00  0.00    -0.375 C  
HETATM    7  C   UNL     1      -8.559  15.582  67.930  1.00  0.00    -0.155 C  
HETATM    8  C   UNL     1      -7.937  20.335  67.567  1.00  0.00    -0.346 C  
HETATM    9  N   UNL     1      -9.788  15.344  67.348  1.00  0.00    -0.216 N  
HETATM   10  C   UNL     1      -7.737  19.772  66.173  1.00  0.00    -0.341 C  
HETATM   11  O   UNL     1      -7.669  14.745  68.058  1.00  0.00    -0.108 OA 
HETATM   12  C   UNL     1      -7.752  18.269  66.405  1.00  0.00    -0.289 C  
ENDROOT
BRANCH   9  13
HETATM   13  C   UNL     1     -10.221  13.965  67.227  1.00  0.00    -0.249 C  
BRANCH  13  14
HETATM   14  C   UNL     1     -11.279  13.656  68.294  1.00  0.00    -0.302 C  
BRANCH  14  15
HETATM   15  C   UNL     1     -11.807  12.231  68.204  1.00  0.00    -0.372 C  
BRANCH  15  16
HETATM   16  C   UNL     1     -11.389  11.347  69.385  1.00  0.00    -0.297 C  
BRANCH  16  17
HETATM   17  N   UNL     1     -10.033  10.778  69.251  1.00  0.00    -0.196 NA 
HETATM   18  C   UNL     1      -9.713   9.815  70.335  1.00  0.00    -0.184 C  
HETATM   19  C   UNL     1     -10.636   8.577  70.370  1.00  0.00    -0.223 C  
HETATM   20  N   UNL     1     -10.660   7.919  69.060  1.00  0.00    -0.200 NA 
HETATM   21  C   UNL     1      -9.908  10.038  67.969  1.00  0.00    -0.142 C  
HETATM   22  C   UNL     1     -10.780   8.765  67.870  1.00  0.00    -0.107 C  
BRANCH  20  23
HETATM   23  C   UNL     1     -10.060   6.686  68.969  1.00  0.00    -0.162 A  
HETATM   24  N   UNL     1     -10.515   5.698  69.763  1.00  0.00    -0.280 NA 
HETATM   25  C   UNL     1      -9.973   4.477  69.627  1.00  0.00    -0.181 A  
HETATM   26  C   UNL     1      -8.967   4.192  68.741  1.00  0.00    -0.160 A  
HETATM   27  C   UNL     1      -8.552   5.254  67.981  1.00  0.00    -0.103 A  
HETATM   28  N   UNL     1      -9.083   6.486  68.067  1.00  0.00    -0.115 NA 
ENDBRANCH  20  23
ENDBRANCH  16  17
ENDBRANCH  15  16
ENDBRANCH  14  15
ENDBRANCH  13  14
ENDBRANCH   9  13
TORSDOF 6
ENDMDL
MODEL       86
REMARK 921   NORMALIZED FREE ENERGY PREDICTED BY IDOCK:   -4.76 KCAL/MOL
REMARK 922        TOTAL FREE ENERGY PREDICTED BY IDOCK:   -7.40 KCAL/MOL
REMARK 923 INTER-LIGAND FREE ENERGY PREDICTED BY IDOCK:   -6.71 KCAL/MOL
REMARK 924 INTRA-LIGAND FREE ENERGY PREDICTED BY IDOCK:   -0.70 KCAL/MOL
REMARK 927      BINDING AFFINITY PREDICTED BY RF-SCORE:    0.00 PKD
ROOT
HETATM    1  O   UNL     1     -11.150  17.138  68.130  1.00  0.00    -0.315 OA 
HETATM    2  C   UNL     1     -11.533  16.031  68.501  1.00  0.00    -0.357 C  
HETATM    3  C   UNL     1     -12.589  15.884  69.565  1.00  0.00     0.328 C  
HETATM    4  C   UNL     1     -12.273  14.780  70.580  1.00  0.00    -0.385 C  
HETATM    5  C   UNL     1     -11.807  13.517  69.857  1.00  0.00    -0.386 C  
HETATM    6  C   UNL     1     -13.546  14.486  71.413  1.00  0.00    -0.452 C  
HETATM    7  C   UNL     1     -10.770  13.805  68.801  1.00  0.00    -0.249 C  
HETATM    8  C   UNL     1     -13.166  14.717  72.868  1.00  0.00    -0.597 C  
HETATM    9  N   UNL     1     -11.124  14.831  67.948  1.00  0.00    -0.282 N  
HETATM   10  C   UNL     1     -12.041  15.732  72.801  1.00  0.00    -0.596 C  
HETATM   11  O   UNL     1      -9.749  13.130  68.701  1.00  0.00    -0.171 OA 
HETATM   12  C   UNL     1     -11.223  15.258  71.609  1.00  0.00    -0.369 C  
ENDROOT
BRANCH   9  13
HETATM   13  C   UNL     1     -10.483  14.879  66.648  1.00  0.00    -0.292 C  
BRANCH  13  14
HETATM   14  C   UNL     1     -11.195  13.925  65.681  1.00  0.00    -0.306 C  
BRANCH  14  15
HETATM   15  C   UNL     1     -10.238  12.956  64.999  1.00  0.00    -0.289 C  
BRANCH  15  16
HETATM   16  C   UNL     1     -10.430  11.498  65.435  1.00  0.00    -0.281 C  
BRANCH  16  17
HETATM   17  N   UNL     1      -9.419  11.029  66.403  1.00  0.00    -0.188 NA 
HETATM   18  C   UNL     1     -10.015  10.226  67.501  1.00  0.00    -0.189 C  
HETATM   19  C   UNL     1     -10.707   8.929  67.026  1.00  0.00    -0.110 C  
HETATM   20  N   UNL     1      -9.790   8.125  66.214  1.00  0.00    -0.179 NA 
HETATM   21  C   UNL     1      -8.421  10.159  65.728  1.00  0.00    -0.147 C  
HETATM   22  C   UNL     1      -8.983   8.817  65.205  1.00  0.00    -0.133 C  
BRANCH  20  23
HETATM   23  C   UNL     1      -9.347   6.943  66.756  1.00  0.00    -0.158 A  
HETATM   24  N   UNL     1      -8.063   6.592  66.551  1.00  0.00    -0.109 NA 
HETATM   25  C   UNL     1      -7.614   5.470  67.136  1.00  0.00    -0.092 A  
HETATM   26  C   UNL     1      -8.398   4.655  67.909  1.00  0.00    -0.099 A  
HETATM   27  C   UNL     1      -9.693   5.076  68.056  1.00  0.00    -0.151 A  
HETATM   28  N   UNL     1     -10.179   6.203  67.509  1.00  0.00    -0.156 NA 
ENDBRANCH  20  23
ENDBRANCH  16  17
ENDBRANCH  15  16
ENDBRANCH  14  15
ENDBRANCH  13  14
ENDBRANCH   9  13
TORSDOF 6
ENDMDL
MODEL       87
REMARK 921   NORMALIZED FREE ENERGY PREDICTED BY IDOCK:   -4.75 KCAL/MOL
REMARK 922        TOTAL FREE ENERGY PREDICTED BY IDOCK:   -7.40 KCAL/MOL
REMARK 923 INTER-LIGAND FREE ENERGY PREDICTED BY IDOCK:   -6.61 KCAL/MOL
REMARK 924 INTRA-LIGAND FREE ENERGY PREDICTED BY IDOCK:   -0.78 KCAL/MOL
REMARK 927      BINDING AFFINITY PREDICTED BY RF-SCORE:    0.00 PKD
ROOT
HETATM    1  O   UNL     1      -8.438  10.853  69.265  1.00  0.00    -0.108 OA 
HETATM    2  C   UNL     1      -9.247   9.962  69.014  1.00  0.00    -0.168 C  
HETATM    3  C   UNL     1      -9.836   9.109  70.107  1.00  0.00    -0.229 C  
HETATM    4  C   UNL     1      -9.911   7.624  69.739  1.00  0.00    -0.181 C  
HETATM    5  C   UNL     1     -10.469   7.459  68.325  1.00  0.00    -0.231 C  
HETATM    6  C   UNL     1     -10.819   6.898  70.764  1.00  0.00    -0.279 C  
HETATM    7  C   UNL     1      -9.813   8.386  67.333  1.00  0.00    -0.191 C  
HETATM    8  C   UNL     1      -9.969   5.799  71.383  1.00  0.00    -0.234 C  
HETATM    9  N   UNL     1      -9.763   9.699  67.758  1.00  0.00    -0.143 N  
HETATM   10  C   UNL     1      -8.548   6.317  71.263  1.00  0.00    -0.124 C  
HETATM   11  O   UNL     1      -9.429   7.988  66.237  1.00  0.00    -0.204 OA 
HETATM   12  C   UNL     1      -8.529   6.947  69.879  1.00  0.00    -0.140 C  
ENDROOT
BRANCH   9  13
HETATM   13  C   UNL     1      -9.619  10.729  66.748  1.00  0.00    -0.172 C  
BRANCH  13  14
HETATM   14  C   UNL     1     -10.907  11.559  66.665  1.00  0.00    -0.335 C  
BRANCH  14  15
HETATM   15  C   UNL     1     -10.865  12.801  67.545  1.00  0.00    -0.263 C  
BRANCH  15  16
HETATM   16  C   UNL     1     -11.158  14.101  66.785  1.00  0.00    -0.310 C  
BRANCH  16  17
HETATM   17  N   UNL     1      -9.968  14.695  66.144  1.00  0.00    -0.289 NA 
HETATM   18  C   UNL     1     -10.229  16.058  65.617  1.00  0.00    -0.386 C  
HETATM   19  C   UNL     1     -10.623  17.087  66.701  1.00  0.00    -0.182 C  
HETATM   20  N   UNL     1      -9.623  17.111  67.773  1.00  0.00    -0.252 NA 
HETATM   21  C   UNL     1      -8.860  14.820  67.127  1.00  0.00    -0.216 C  
HETATM   22  C   UNL     1      -9.121  15.827  68.271  1.00  0.00    -0.187 C  
BRANCH  20  23
HETATM   23  C   UNL     1      -8.847  18.240  67.879  1.00  0.00    -0.269 A  
HETATM   24  N   UNL     1      -7.737  18.178  68.638  1.00  0.00    -0.301 NA 
HETATM   25  C   UNL     1      -6.944  19.261  68.687  1.00  0.00    -0.308 A  
HETATM   26  C   UNL     1      -7.219  20.429  68.026  1.00  0.00    -0.274 A  
HETATM   27  C   UNL     1      -8.373  20.413  67.288  1.00  0.00    -0.335 A  
HETATM   28  N   UNL     1      -9.183  19.345  67.190  1.00  0.00    -0.304 NA 
ENDBRANCH  20  23
ENDBRANCH  16  17
ENDBRANCH  15  16
ENDBRANCH  14  15
ENDBRANCH  13  14
ENDBRANCH   9  13
TORSDOF 6
ENDMDL
MODEL       88
REMARK 921   NORMALIZED FREE ENERGY PREDICTED BY IDOCK:   -4.75 KCAL/MOL
REMARK 922        TOTAL FREE ENERGY PREDICTED BY IDOCK:   -7.39 KCAL/MOL
REMARK 923 INTER-LIGAND FREE ENERGY PREDICTED BY IDOCK:   -7.24 KCAL/MOL
REMARK 924 INTRA-LIGAND FREE ENERGY PREDICTED BY IDOCK:   -0.14 KCAL/MOL
REMARK 927      BINDING AFFINITY PREDICTED BY RF-SCORE:    0.00 PKD
ROOT
HETATM    1  O   UNL     1     -10.889   7.295  73.450  1.00  0.00    -0.374 OA 
HETATM    2  C   UNL     1     -10.963   6.493  72.522  1.00  0.00    -0.248 C  
HETATM    3  C   UNL     1     -10.360   5.117  72.626  1.00  0.00    -0.248 C  
HETATM    4  C   UNL     1      -9.626   4.681  71.353  1.00  0.00    -0.230 C  
HETATM    5  C   UNL     1     -10.476   4.997  70.122  1.00  0.00    -0.235 C  
HETATM    6  C   UNL     1      -9.341   3.161  71.434  1.00  0.00    -0.207 C  
HETATM    7  C   UNL     1     -11.040   6.395  70.152  1.00  0.00    -0.365 C  
HETATM    8  C   UNL     1      -7.834   3.003  71.303  1.00  0.00    -0.051 C  
HETATM    9  N   UNL     1     -11.658   6.713  71.346  1.00  0.00    -0.298 N  
HETATM   10  C   UNL     1      -7.276   4.312  71.829  1.00  0.00    -0.055 C  
HETATM   11  O   UNL     1     -10.993   7.130  69.170  1.00  0.00    -0.198 OA 
HETATM   12  C   UNL     1      -8.235   5.346  71.259  1.00  0.00    -0.120 C  
ENDROOT
BRANCH   9  13
HETATM   13  C   UNL     1     -12.632   7.787  71.336  1.00  0.00    -0.317 C  
BRANCH  13  14
HETATM   14  C   UNL     1     -11.914   9.141  71.395  1.00  0.00    -0.410 C  
BRANCH  14  15
HETATM   15  C   UNL     1     -12.879  10.317  71.472  1.00  0.00    -0.557 C  
BRANCH  15  16
HETATM   16  C   UNL     1     -12.781  11.269  70.274  1.00  0.00    -0.086 C  
BRANCH  16  17
HETATM   17  N   UNL     1     -11.485  11.970  70.178  1.00  0.00    -0.123 NA 
HETATM   18  C   UNL     1     -10.865  11.832  68.835  1.00  0.00    -0.223 C  
HETATM   19  C   UNL     1     -11.704  12.441  67.690  1.00  0.00    -0.346 C  
HETATM   20  N   UNL     1     -12.038  13.837  67.984  1.00  0.00    -0.339 NA 
HETATM   21  C   UNL     1     -11.664  13.425  70.421  1.00  0.00    -0.108 C  
HETATM   22  C   UNL     1     -12.487  14.164  69.340  1.00  0.00    -0.075 C  
BRANCH  20  23
HETATM   23  C   UNL     1     -11.437  14.800  67.209  1.00  0.00    -0.366 A  
HETATM   24  N   UNL     1     -11.397  14.609  65.877  1.00  0.00    -0.337 NA 
HETATM   25  C   UNL     1     -10.869  15.580  65.114  1.00  0.00    -0.436 A  
HETATM   26  C   UNL     1     -10.350  16.742  65.623  1.00  0.00    -0.284 A  
HETATM   27  C   UNL     1     -10.418  16.852  66.987  1.00  0.00    -0.281 A  
HETATM   28  N   UNL     1     -10.959  15.916  67.786  1.00  0.00    -0.326 NA 
ENDBRANCH  20  23
ENDBRANCH  16  17
ENDBRANCH  15  16
ENDBRANCH  14  15
ENDBRANCH  13  14
ENDBRANCH   9  13
TORSDOF 6
ENDMDL
MODEL       89
REMARK 921   NORMALIZED FREE ENERGY PREDICTED BY IDOCK:   -4.74 KCAL/MOL
REMARK 922        TOTAL FREE ENERGY PREDICTED BY IDOCK:   -7.38 KCAL/MOL
REMARK 923 INTER-LIGAND FREE ENERGY PREDICTED BY IDOCK:   -7.04 KCAL/MOL
REMARK 924 INTRA-LIGAND FREE ENERGY PREDICTED BY IDOCK:   -0.34 KCAL/MOL
REMARK 927      BINDING AFFINITY PREDICTED BY RF-SCORE:    0.00 PKD
ROOT
HETATM    1  O   UNL     1      -8.376   7.776  69.015  1.00  0.00    -0.128 OA 
HETATM    2  C   UNL     1      -8.237   7.108  67.993  1.00  0.00    -0.120 C  
HETATM    3  C   UNL     1      -7.284   7.531  66.906  1.00  0.00    -0.085 C  
HETATM    4  C   UNL     1      -7.860   7.356  65.497  1.00  0.00    -0.115 C  
HETATM    5  C   UNL     1      -8.529   5.988  65.367  1.00  0.00    -0.145 C  
HETATM    6  C   UNL     1      -6.713   7.495  64.465  1.00  0.00    -0.047 C  
HETATM    7  C   UNL     1      -9.436   5.676  66.530  1.00  0.00    -0.152 C  
HETATM    8  C   UNL     1      -7.111   8.631  63.535  1.00  0.00    -0.089 C  
HETATM    9  N   UNL     1      -8.846   5.888  67.760  1.00  0.00    -0.110 N  
HETATM   10  C   UNL     1      -8.010   9.508  64.384  1.00  0.00    -0.135 C  
HETATM   11  O   UNL     1     -10.564   5.218  66.363  1.00  0.00    -0.287 OA 
HETATM   12  C   UNL     1      -8.846   8.497  65.155  1.00  0.00    -0.116 C  
ENDROOT
BRANCH   9  13
HETATM   13  C   UNL     1      -9.400   5.190  68.904  1.00  0.00    -0.125 C  
BRANCH  13  14
HETATM   14  C   UNL     1     -10.787   5.754  69.236  1.00  0.00    -0.374 C  
BRANCH  14  15
HETATM   15  C   UNL     1     -10.954   6.076  70.716  1.00  0.00    -0.364 C  
BRANCH  15  16
HETATM   16  C   UNL     1     -11.967   7.194  70.989  1.00  0.00    -0.347 C  
BRANCH  16  17
HETATM   17  N   UNL     1     -11.506   8.183  71.984  1.00  0.00    -0.296 NA 
HETATM   18  C   UNL     1     -10.707   9.274  71.372  1.00  0.00    -0.362 C  
HETATM   19  C   UNL     1     -11.486  10.119  70.338  1.00  0.00    -0.322 C  
HETATM   20  N   UNL     1     -12.728  10.631  70.925  1.00  0.00    -0.383 NA 
HETATM   21  C   UNL     1     -12.669   8.824  72.652  1.00  0.00    -0.219 C  
HETATM   22  C   UNL     1     -13.537   9.709  71.727  1.00  0.00    -0.343 C  
BRANCH  20  23
HETATM   23  C   UNL     1     -12.802  11.984  71.149  1.00  0.00    -0.235 A  
HETATM   24  N   UNL     1     -12.257  12.810  70.236  1.00  0.00    -0.317 NA 
HETATM   25  C   UNL     1     -12.388  14.133  70.423  1.00  0.00    -0.359 A  
HETATM   26  C   UNL     1     -13.025  14.684  71.504  1.00  0.00    -0.410 A  
HETATM   27  C   UNL     1     -13.539  13.777  72.392  1.00  0.00    -0.588 A  
HETATM   28  N   UNL     1     -13.452  12.444  72.233  1.00  0.00    -0.471 NA 
ENDBRANCH  20  23
ENDBRANCH  16  17
ENDBRANCH  15  16
ENDBRANCH  14  15
ENDBRANCH  13  14
ENDBRANCH   9  13
TORSDOF 6
ENDMDL
MODEL       90
REMARK 921   NORMALIZED FREE ENERGY PREDICTED BY IDOCK:   -4.74 KCAL/MOL
REMARK 922        TOTAL FREE ENERGY PREDICTED BY IDOCK:   -7.37 KCAL/MOL
REMARK 923 INTER-LIGAND FREE ENERGY PREDICTED BY IDOCK:   -6.38 KCAL/MOL
REMARK 924 INTRA-LIGAND FREE ENERGY PREDICTED BY IDOCK:   -1.00 KCAL/MOL
REMARK 927      BINDING AFFINITY PREDICTED BY RF-SCORE:    0.00 PKD
ROOT
HETATM    1  O   UNL     1      -8.287   8.994  68.847  1.00  0.00    -0.121 OA 
HETATM    2  C   UNL     1      -9.028   8.015  68.848  1.00  0.00    -0.141 C  
HETATM    3  C   UNL     1     -10.415   8.083  69.432  1.00  0.00    -0.223 C  
HETATM    4  C   UNL     1     -10.779   6.852  70.269  1.00  0.00    -0.274 C  
HETATM    5  C   UNL     1     -10.377   5.575  69.530  1.00  0.00    -0.357 C  
HETATM    6  C   UNL     1     -12.304   6.861  70.538  1.00  0.00    -0.177 C  
HETATM    7  C   UNL     1      -8.978   5.645  68.974  1.00  0.00    -0.112 C  
HETATM    8  C   UNL     1     -12.471   6.849  72.050  1.00  0.00    -0.285 C  
HETATM    9  N   UNL     1      -8.728   6.800  68.258  1.00  0.00    -0.123 N  
HETATM   10  C   UNL     1     -11.204   7.503  72.568  1.00  0.00    -0.381 C  
HETATM   11  O   UNL     1      -8.183   4.719  69.109  1.00  0.00    -0.080 OA 
HETATM   12  C   UNL     1     -10.125   6.920  71.668  1.00  0.00    -0.201 C  
ENDROOT
BRANCH   9  13
HETATM   13  C   UNL     1      -7.645   6.775  67.295  1.00  0.00    -0.104 C  
BRANCH  13  14
HETATM   14  C   UNL     1      -8.210   6.595  65.880  1.00  0.00    -0.132 C  
BRANCH  14  15
HETATM   15  C   UNL     1      -7.269   7.113  64.800  1.00  0.00    -0.072 C  
BRANCH  15  16
HETATM   16  C   UNL     1      -7.946   8.056  63.798  1.00  0.00    -0.123 C  
BRANCH  16  17
HETATM   17  N   UNL     1      -7.554   9.470  63.954  1.00  0.00    -0.116 NA 
HETATM   18  C   UNL     1      -8.160  10.344  62.918  1.00  0.00    -0.153 C  
HETATM   19  C   UNL     1      -9.704  10.380  62.950  1.00  0.00    -0.223 C  
HETATM   20  N   UNL     1     -10.181  10.730  64.291  1.00  0.00    -0.353 NA 
HETATM   21  C   UNL     1      -8.005   9.990  65.271  1.00  0.00    -0.143 C  
HETATM   22  C   UNL     1      -9.539  10.084  65.438  1.00  0.00    -0.279 C  
BRANCH  20  23
HETATM   23  C   UNL     1     -10.778  11.959  64.440  1.00  0.00    -0.323 A  
HETATM   24  N   UNL     1     -11.563  12.409  63.443  1.00  0.00    -0.473 NA 
HETATM   25  C   UNL     1     -12.198  13.580  63.618  1.00  0.00    -0.375 A  
HETATM   26  C   UNL     1     -12.069  14.348  64.745  1.00  0.00    -0.462 A  
HETATM   27  C   UNL     1     -11.242  13.826  65.705  1.00  0.00    -0.302 A  
HETATM   28  N   UNL     1     -10.606  12.648  65.582  1.00  0.00    -0.268 NA 
ENDBRANCH  20  23
ENDBRANCH  16  17
ENDBRANCH  15  16
ENDBRANCH  14  15
ENDBRANCH  13  14
ENDBRANCH   9  13
TORSDOF 6
ENDMDL
MODEL       91
REMARK 921   NORMALIZED FREE ENERGY PREDICTED BY IDOCK:   -4.70 KCAL/MOL
REMARK 922        TOTAL FREE ENERGY PREDICTED BY IDOCK:   -7.33 KCAL/MOL
REMARK 923 INTER-LIGAND FREE ENERGY PREDICTED BY IDOCK:   -6.31 KCAL/MOL
REMARK 924 INTRA-LIGAND FREE ENERGY PREDICTED BY IDOCK:   -1.01 KCAL/MOL
REMARK 927      BINDING AFFINITY PREDICTED BY RF-SCORE:    0.00 PKD
ROOT
HETATM    1  O   UNL     1      -8.246   7.213  65.955  1.00  0.00    -0.118 OA 
HETATM    2  C   UNL     1      -8.484   6.008  66.001  1.00  0.00    -0.139 C  
HETATM    3  C   UNL     1      -7.393   4.986  65.822  1.00  0.00    -0.077 C  
HETATM    4  C   UNL     1      -7.808   3.809  64.933  1.00  0.00    -0.085 C  
HETATM    5  C   UNL     1      -9.195   3.309  65.337  1.00  0.00    -0.152 C  
HETATM    6  C   UNL     1      -6.763   2.675  65.082  1.00  0.00    -0.039 C  
HETATM    7  C   UNL     1     -10.187   4.431  65.507  1.00  0.00    -0.241 C  
HETATM    8  C   UNL     1      -6.228   2.401  63.685  1.00  0.00    -0.014 C  
HETATM    9  N   UNL     1      -9.720   5.462  66.298  1.00  0.00    -0.159 N  
HETATM   10  C   UNL     1      -6.405   3.720  62.956  1.00  0.00    -0.022 C  
HETATM   11  O   UNL     1     -11.316   4.372  65.027  1.00  0.00    -0.237 OA 
HETATM   12  C   UNL     1      -7.765   4.199  63.439  1.00  0.00    -0.066 C  
ENDROOT
BRANCH   9  13
HETATM   13  C   UNL     1     -10.699   6.328  66.925  1.00  0.00    -0.339 C  
BRANCH  13  14
HETATM   14  C   UNL     1     -10.829   5.977  68.412  1.00  0.00    -0.361 C  
BRANCH  14  15
HETATM   15  C   UNL     1     -10.073   6.944  69.314  1.00  0.00    -0.178 C  
BRANCH  15  16
HETATM   16  C   UNL     1     -10.888   8.183  69.703  1.00  0.00    -0.158 C  
BRANCH  16  17
HETATM   17  N   UNL     1     -10.113   9.439  69.668  1.00  0.00    -0.194 NA 
HETATM   18  C   UNL     1      -9.607   9.756  68.308  1.00  0.00    -0.143 C  
HETATM   19  C   UNL     1     -10.720   9.974  67.258  1.00  0.00    -0.244 C  
HETATM   20  N   UNL     1     -11.672  10.986  67.723  1.00  0.00    -0.600 NA 
HETATM   21  C   UNL     1     -10.964  10.584  70.086  1.00  0.00    -0.270 C  
HETATM   22  C   UNL     1     -12.121  10.917  69.116  1.00  0.00    -0.221 C  
BRANCH  20  23
HETATM   23  C   UNL     1     -11.680  12.189  67.058  1.00  0.00    -0.303 A  
HETATM   24  N   UNL     1     -11.998  12.188  65.749  1.00  0.00    -0.550 NA 
HETATM   25  C   UNL     1     -12.070  13.370  65.116  1.00  0.00    -0.409 A  
HETATM   26  C   UNL     1     -11.814  14.571  65.726  1.00  0.00    -0.327 A  
HETATM   27  C   UNL     1     -11.485  14.483  67.053  1.00  0.00    -0.370 A  
HETATM   28  N   UNL     1     -11.425  13.324  67.732  1.00  0.00    -0.298 NA 
ENDBRANCH  20  23
ENDBRANCH  16  17
ENDBRANCH  15  16
ENDBRANCH  14  15
ENDBRANCH  13  14
ENDBRANCH   9  13
TORSDOF 6
ENDMDL
MODEL       92
REMARK 921   NORMALIZED FREE ENERGY PREDICTED BY IDOCK:   -4.69 KCAL/MOL
REMARK 922        TOTAL FREE ENERGY PREDICTED BY IDOCK:   -7.31 KCAL/MOL
REMARK 923 INTER-LIGAND FREE ENERGY PREDICTED BY IDOCK:   -6.80 KCAL/MOL
REMARK 924 INTRA-LIGAND FREE ENERGY PREDICTED BY IDOCK:   -0.51 KCAL/MOL
REMARK 927      BINDING AFFINITY PREDICTED BY RF-SCORE:    0.00 PKD
ROOT
HETATM    1  O   UNL     1     -10.965   7.921  70.457  1.00  0.00    -0.242 OA 
HETATM    2  C   UNL     1     -10.364   7.460  69.488  1.00  0.00    -0.217 C  
HETATM    3  C   UNL     1     -10.655   6.076  68.972  1.00  0.00    -0.357 C  
HETATM    4  C   UNL     1      -9.391   5.290  68.605  1.00  0.00    -0.155 C  
HETATM    5  C   UNL     1      -8.443   6.171  67.791  1.00  0.00    -0.115 C  
HETATM    6  C   UNL     1      -9.799   4.039  67.787  1.00  0.00    -0.088 C  
HETATM    7  C   UNL     1      -8.256   7.537  68.401  1.00  0.00    -0.125 C  
HETATM    8  C   UNL     1      -9.261   2.838  68.550  1.00  0.00    -0.241 C  
HETATM    9  N   UNL     1      -9.445   8.160  68.727  1.00  0.00    -0.147 N  
HETATM   10  C   UNL     1      -9.208   3.307  69.991  1.00  0.00    -0.221 C  
HETATM   11  O   UNL     1      -7.143   8.042  68.522  1.00  0.00    -0.076 OA 
HETATM   12  C   UNL     1      -8.696   4.735  69.868  1.00  0.00    -0.113 C  
ENDROOT
BRANCH   9  13
HETATM   13  C   UNL     1      -9.437   9.604  68.852  1.00  0.00    -0.157 C  
BRANCH  13  14
HETATM   14  C   UNL     1     -10.598  10.202  68.048  1.00  0.00    -0.273 C  
BRANCH  14  15
HETATM   15  C   UNL     1     -10.197  11.448  67.270  1.00  0.00    -0.229 C  
BRANCH  15  16
HETATM   16  C   UNL     1     -10.845  12.735  67.796  1.00  0.00    -0.225 C  
BRANCH  16  17
HETATM   17  N   UNL     1     -10.973  13.795  66.776  1.00  0.00    -0.301 NA 
HETATM   18  C   UNL     1     -11.858  14.902  67.218  1.00  0.00    -0.219 C  
HETATM   19  C   UNL     1     -11.353  15.649  68.473  1.00  0.00    -0.360 C  
HETATM   20  N   UNL     1      -9.976  16.112  68.274  1.00  0.00    -0.223 NA 
HETATM   21  C   UNL     1      -9.645  14.397  66.487  1.00  0.00    -0.293 C  
HETATM   22  C   UNL     1      -9.022  15.183  67.664  1.00  0.00    -0.180 C  
BRANCH  20  23
HETATM   23  C   UNL     1      -9.783  17.468  68.162  1.00  0.00    -0.302 A  
HETATM   24  N   UNL     1      -8.652  17.992  68.672  1.00  0.00    -0.293 NA 
HETATM   25  C   UNL     1      -8.433  19.306  68.503  1.00  0.00    -0.366 A  
HETATM   26  C   UNL     1      -9.310  20.142  67.863  1.00  0.00    -0.406 A  
HETATM   27  C   UNL     1     -10.441  19.533  67.387  1.00  0.00    -0.471 A  
HETATM   28  N   UNL     1     -10.690  18.218  67.512  1.00  0.00    -0.406 NA 
ENDBRANCH  20  23
ENDBRANCH  16  17
ENDBRANCH  15  16
ENDBRANCH  14  15
ENDBRANCH  13  14
ENDBRANCH   9  13
TORSDOF 6
ENDMDL
MODEL       93
REMARK 921   NORMALIZED FREE ENERGY PREDICTED BY IDOCK:   -4.68 KCAL/MOL
REMARK 922        TOTAL FREE ENERGY PREDICTED BY IDOCK:   -7.30 KCAL/MOL
REMARK 923 INTER-LIGAND FREE ENERGY PREDICTED BY IDOCK:   -6.60 KCAL/MOL
REMARK 924 INTRA-LIGAND FREE ENERGY PREDICTED BY IDOCK:   -0.70 KCAL/MOL
REMARK 927      BINDING AFFINITY PREDICTED BY RF-SCORE:    0.00 PKD
ROOT
HETATM    1  O   UNL     1     -11.619   7.836  70.223  1.00  0.00    -0.181 OA 
HETATM    2  C   UNL     1     -10.727   7.217  69.647  1.00  0.00    -0.239 C  
HETATM    3  C   UNL     1     -10.782   5.719  69.503  1.00  0.00    -0.408 C  
HETATM    4  C   UNL     1      -9.433   5.038  69.760  1.00  0.00    -0.215 C  
HETATM    5  C   UNL     1      -8.318   5.786  69.029  1.00  0.00    -0.101 C  
HETATM    6  C   UNL     1      -9.510   3.571  69.268  1.00  0.00    -0.233 C  
HETATM    7  C   UNL     1      -8.391   7.278  69.234  1.00  0.00    -0.132 C  
HETATM    8  C   UNL     1      -9.183   2.700  70.472  1.00  0.00    -0.206 C  
HETATM    9  N   UNL     1      -9.649   7.802  69.009  1.00  0.00    -0.154 N  
HETATM   10  C   UNL     1      -9.602   3.542  71.663  1.00  0.00    -0.228 C  
HETATM   11  O   UNL     1      -7.395   7.939  69.513  1.00  0.00    -0.082 OA 
HETATM   12  C   UNL     1      -9.141   4.939  71.274  1.00  0.00    -0.179 C  
ENDROOT
BRANCH   9  13
HETATM   13  C   UNL     1      -9.744   9.215  68.697  1.00  0.00    -0.155 C  
BRANCH  13  14
HETATM   14  C   UNL     1     -10.390   9.402  67.319  1.00  0.00    -0.325 C  
BRANCH  14  15
HETATM   15  C   UNL     1      -9.816  10.589  66.556  1.00  0.00    -0.255 C  
BRANCH  15  16
HETATM   16  C   UNL     1     -10.733  11.818  66.554  1.00  0.00    -0.265 C  
BRANCH  16  17
HETATM   17  N   UNL     1     -10.142  13.000  67.213  1.00  0.00    -0.233 NA 
HETATM   18  C   UNL     1     -11.069  14.160  67.231  1.00  0.00    -0.305 C  
HETATM   19  C   UNL     1     -12.376  13.909  68.015  1.00  0.00     0.039 C  
HETATM   20  N   UNL     1     -12.077  13.443  69.373  1.00  0.00    -0.299 NA 
HETATM   21  C   UNL     1      -9.812  12.692  68.628  1.00  0.00    -0.069 C  
HETATM   22  C   UNL     1     -11.037  12.424  69.534  1.00  0.00    -0.016 C  
BRANCH  20  23
HETATM   23  C   UNL     1     -12.363  14.302  70.406  1.00  0.00    -0.352 A  
HETATM   24  N   UNL     1     -13.432  14.032  71.179  1.00  0.00    -0.243 NA 
HETATM   25  C   UNL     1     -13.673  14.835  72.228  1.00  0.00    -0.454 A  
HETATM   26  C   UNL     1     -12.902  15.925  72.537  1.00  0.00    -0.524 A  
HETATM   27  C   UNL     1     -11.843  16.137  71.695  1.00  0.00    -0.487 A  
HETATM   28  N   UNL     1     -11.552  15.346  70.647  1.00  0.00    -0.300 NA 
ENDBRANCH  20  23
ENDBRANCH  16  17
ENDBRANCH  15  16
ENDBRANCH  14  15
ENDBRANCH  13  14
ENDBRANCH   9  13
TORSDOF 6
ENDMDL
MODEL       94
REMARK 921   NORMALIZED FREE ENERGY PREDICTED BY IDOCK:   -4.64 KCAL/MOL
REMARK 922        TOTAL FREE ENERGY PREDICTED BY IDOCK:   -7.24 KCAL/MOL
REMARK 923 INTER-LIGAND FREE ENERGY PREDICTED BY IDOCK:   -6.41 KCAL/MOL
REMARK 924 INTRA-LIGAND FREE ENERGY PREDICTED BY IDOCK:   -0.82 KCAL/MOL
REMARK 927      BINDING AFFINITY PREDICTED BY RF-SCORE:    0.00 PKD
ROOT
HETATM    1  O   UNL     1     -12.353  11.325  68.093  1.00  0.00    -0.500 OA 
HETATM    2  C   UNL     1     -11.371  11.928  67.666  1.00  0.00    -0.304 C  
HETATM    3  C   UNL     1     -11.419  13.408  67.391  1.00  0.00    -0.368 C  
HETATM    4  C   UNL     1     -10.726  13.801  66.082  1.00  0.00    -0.283 C  
HETATM    5  C   UNL     1      -9.373  13.097  65.971  1.00  0.00    -0.023 C  
HETATM    6  C   UNL     1     -10.536  15.339  66.058  1.00  0.00    -0.327 C  
HETATM    7  C   UNL     1      -9.458  11.628  66.295  1.00  0.00    -0.218 C  
HETATM    8  C   UNL     1     -11.245  15.836  64.807  1.00  0.00    -0.375 C  
HETATM    9  N   UNL     1     -10.123  11.363  67.475  1.00  0.00    -0.182 N  
HETATM   10  C   UNL     1     -12.327  14.802  64.558  1.00  0.00    -0.384 C  
HETATM   11  O   UNL     1      -8.921  10.780  65.586  1.00  0.00    -0.178 OA 
HETATM   12  C   UNL     1     -11.623  13.489  64.863  1.00  0.00    -0.355 C  
ENDROOT
BRANCH   9  13
HETATM   13  C   UNL     1      -9.857  10.096  68.130  1.00  0.00    -0.144 C  
BRANCH  13  14
HETATM   14  C   UNL     1      -9.089  10.336  69.435  1.00  0.00    -0.203 C  
BRANCH  14  15
HETATM   15  C   UNL     1      -9.235   9.187  70.425  1.00  0.00    -0.271 C  
BRANCH  15  16
HETATM   16  C   UNL     1     -10.338   8.191  70.047  1.00  0.00    -0.215 C  
BRANCH  16  17
HETATM   17  N   UNL     1      -9.885   6.786  70.021  1.00  0.00    -0.169 NA 
HETATM   18  C   UNL     1     -10.833   5.898  69.302  1.00  0.00    -0.344 C  
HETATM   19  C   UNL     1     -11.024   6.258  67.811  1.00  0.00    -0.332 C  
HETATM   20  N   UNL     1      -9.728   6.320  67.129  1.00  0.00    -0.133 NA 
HETATM   21  C   UNL     1      -8.579   6.677  69.320  1.00  0.00    -0.131 C  
HETATM   22  C   UNL     1      -8.627   7.006  67.810  1.00  0.00    -0.122 C  
BRANCH  20  23
HETATM   23  C   UNL     1      -9.459   5.337  66.207  1.00  0.00    -0.156 A  
HETATM   24  N   UNL     1      -8.174   5.116  65.870  1.00  0.00    -0.113 NA 
HETATM   25  C   UNL     1      -7.907   4.112  65.020  1.00  0.00    -0.089 A  
HETATM   26  C   UNL     1      -8.874   3.318  64.461  1.00  0.00    -0.108 A  
HETATM   27  C   UNL     1     -10.154   3.616  64.845  1.00  0.00    -0.100 A  
HETATM   28  N   UNL     1     -10.465   4.596  65.712  1.00  0.00    -0.289 NA 
ENDBRANCH  20  23
ENDBRANCH  16  17
ENDBRANCH  15  16
ENDBRANCH  14  15
ENDBRANCH  13  14
ENDBRANCH   9  13
TORSDOF 6
ENDMDL
MODEL       95
REMARK 921   NORMALIZED FREE ENERGY PREDICTED BY IDOCK:   -4.62 KCAL/MOL
REMARK 922        TOTAL FREE ENERGY PREDICTED BY IDOCK:   -7.22 KCAL/MOL
REMARK 923 INTER-LIGAND FREE ENERGY PREDICTED BY IDOCK:   -6.58 KCAL/MOL
REMARK 924 INTRA-LIGAND FREE ENERGY PREDICTED BY IDOCK:   -0.64 KCAL/MOL
REMARK 927      BINDING AFFINITY PREDICTED BY RF-SCORE:    0.00 PKD
ROOT
HETATM    1  O   UNL     1     -12.295  13.524  66.289  1.00  0.00    -0.417 OA 
HETATM    2  C   UNL     1     -11.537  13.854  67.198  1.00  0.00    -0.364 C  
HETATM    3  C   UNL     1     -11.590  15.234  67.799  1.00  0.00    -0.277 C  
HETATM    4  C   UNL     1     -10.203  15.838  68.048  1.00  0.00    -0.229 C  
HETATM    5  C   UNL     1      -9.290  14.805  68.709  1.00  0.00    -0.198 C  
HETATM    6  C   UNL     1     -10.354  17.083  68.957  1.00  0.00    -0.330 C  
HETATM    7  C   UNL     1      -9.348  13.462  68.027  1.00  0.00    -0.217 C  
HETATM    8  C   UNL     1      -9.756  18.249  68.185  1.00  0.00    -0.341 C  
HETATM    9  N   UNL     1     -10.636  13.007  67.817  1.00  0.00    -0.223 N  
HETATM   10  C   UNL     1      -9.923  17.856  66.730  1.00  0.00    -0.339 C  
HETATM   11  O   UNL     1      -8.330  12.832  67.756  1.00  0.00    -0.151 OA 
HETATM   12  C   UNL     1      -9.587  16.372  66.735  1.00  0.00    -0.263 C  
ENDROOT
BRANCH   9  13
HETATM   13  C   UNL     1     -10.826  11.581  67.635  1.00  0.00    -0.227 C  
BRANCH  13  14
HETATM   14  C   UNL     1     -11.986  11.095  68.513  1.00  0.00    -0.250 C  
BRANCH  14  15
HETATM   15  C   UNL     1     -11.642  11.097  69.997  1.00  0.00    -0.421 C  
BRANCH  15  16
HETATM   16  C   UNL     1     -12.163   9.866  70.748  1.00  0.00    -0.291 C  
BRANCH  16  17
HETATM   17  N   UNL     1     -11.172   9.263  71.661  1.00  0.00    -0.370 NA 
HETATM   18  C   UNL     1     -11.362   7.799  71.818  1.00  0.00    -0.261 C  
HETATM   19  C   UNL     1     -11.196   6.999  70.507  1.00  0.00    -0.295 C  
HETATM   20  N   UNL     1      -9.908   7.306  69.878  1.00  0.00    -0.177 NA 
HETATM   21  C   UNL     1      -9.796   9.464  71.136  1.00  0.00    -0.216 C  
HETATM   22  C   UNL     1      -9.491   8.710  69.820  1.00  0.00    -0.166 C  
BRANCH  20  23
HETATM   23  C   UNL     1      -8.964   6.308  69.867  1.00  0.00    -0.141 A  
HETATM   24  N   UNL     1      -9.298   5.112  70.388  1.00  0.00    -0.149 NA 
HETATM   25  C   UNL     1      -8.398   4.118  70.317  1.00  0.00    -0.061 A  
HETATM   26  C   UNL     1      -7.152   4.265  69.765  1.00  0.00    -0.049 A  
HETATM   27  C   UNL     1      -6.887   5.514  69.270  1.00  0.00    -0.061 A  
HETATM   28  N   UNL     1      -7.766   6.531  69.298  1.00  0.00    -0.100 NA 
ENDBRANCH  20  23
ENDBRANCH  16  17
ENDBRANCH  15  16
ENDBRANCH  14  15
ENDBRANCH  13  14
ENDBRANCH   9  13
TORSDOF 6
ENDMDL
MODEL       96
REMARK 921   NORMALIZED FREE ENERGY PREDICTED BY IDOCK:   -4.62 KCAL/MOL
REMARK 922        TOTAL FREE ENERGY PREDICTED BY IDOCK:   -7.22 KCAL/MOL
REMARK 923 INTER-LIGAND FREE ENERGY PREDICTED BY IDOCK:   -6.56 KCAL/MOL
REMARK 924 INTRA-LIGAND FREE ENERGY PREDICTED BY IDOCK:   -0.66 KCAL/MOL
REMARK 927      BINDING AFFINITY PREDICTED BY RF-SCORE:    0.00 PKD
ROOT
HETATM    1  O   UNL     1      -7.264   6.538  66.465  1.00  0.00    -0.070 OA 
HETATM    2  C   UNL     1      -8.176   6.556  67.288  1.00  0.00    -0.113 C  
HETATM    3  C   UNL     1      -8.074   5.799  68.586  1.00  0.00    -0.101 C  
HETATM    4  C   UNL     1      -9.367   5.069  68.962  1.00  0.00    -0.176 C  
HETATM    5  C   UNL     1     -10.569   5.993  68.767  1.00  0.00    -0.345 C  
HETATM    6  C   UNL     1      -9.273   4.612  70.440  1.00  0.00    -0.187 C  
HETATM    7  C   UNL     1     -10.539   6.708  67.441  1.00  0.00    -0.301 C  
HETATM    8  C   UNL     1      -9.461   3.102  70.431  1.00  0.00    -0.227 C  
HETATM    9  N   UNL     1      -9.327   7.313  67.170  1.00  0.00    -0.136 N  
HETATM   10  C   UNL     1      -8.976   2.676  69.059  1.00  0.00    -0.171 C  
HETATM   11  O   UNL     1     -11.534   6.780  66.725  1.00  0.00    -0.089 OA 
HETATM   12  C   UNL     1      -9.525   3.764  68.148  1.00  0.00    -0.216 C  
ENDROOT
BRANCH   9  13
HETATM   13  C   UNL     1      -9.316   8.401  66.212  1.00  0.00    -0.219 C  
BRANCH  13  14
HETATM   14  C   UNL     1      -9.273   9.745  66.949  1.00  0.00    -0.174 C  
BRANCH  14  15
HETATM   15  C   UNL     1     -10.644  10.189  67.445  1.00  0.00    -0.329 C  
BRANCH  15  16
HETATM   16  C   UNL     1     -10.971  11.650  67.112  1.00  0.00    -0.280 C  
BRANCH  16  17
HETATM   17  N   UNL     1      -9.799  12.439  66.686  1.00  0.00    -0.218 NA 
HETATM   18  C   UNL     1     -10.135  13.431  65.634  1.00  0.00    -0.274 C  
HETATM   19  C   UNL     1     -11.162  14.497  66.079  1.00  0.00    -0.337 C  
HETATM   20  N   UNL     1     -10.716  15.155  67.311  1.00  0.00    -0.298 NA 
HETATM   21  C   UNL     1      -9.245  13.203  67.834  1.00  0.00    -0.207 C  
HETATM   22  C   UNL     1     -10.173  14.313  68.380  1.00  0.00    -0.245 C  
BRANCH  20  23
HETATM   23  C   UNL     1     -10.336  16.472  67.213  1.00  0.00    -0.296 A  
HETATM   24  N   UNL     1     -10.831  17.344  68.112  1.00  0.00    -0.341 NA 
HETATM   25  C   UNL     1     -10.407  18.617  68.056  1.00  0.00    -0.377 A  
HETATM   26  C   UNL     1      -9.518  19.077  67.120  1.00  0.00    -0.350 A  
HETATM   27  C   UNL     1      -9.074  18.131  66.236  1.00  0.00    -0.182 A  
HETATM   28  N   UNL     1      -9.452  16.841  66.269  1.00  0.00    -0.297 NA 
ENDBRANCH  20  23
ENDBRANCH  16  17
ENDBRANCH  15  16
ENDBRANCH  14  15
ENDBRANCH  13  14
ENDBRANCH   9  13
TORSDOF 6
ENDMDL
MODEL       97
REMARK 921   NORMALIZED FREE ENERGY PREDICTED BY IDOCK:   -4.62 KCAL/MOL
REMARK 922        TOTAL FREE ENERGY PREDICTED BY IDOCK:   -7.22 KCAL/MOL
REMARK 923 INTER-LIGAND FREE ENERGY PREDICTED BY IDOCK:   -6.71 KCAL/MOL
REMARK 924 INTRA-LIGAND FREE ENERGY PREDICTED BY IDOCK:   -0.51 KCAL/MOL
REMARK 927      BINDING AFFINITY PREDICTED BY RF-SCORE:    0.00 PKD
ROOT
HETATM    1  O   UNL     1      -7.294  15.149  66.907  1.00  0.00    -0.119 OA 
HETATM    2  C   UNL     1      -8.363  15.698  66.649  1.00  0.00    -0.275 C  
HETATM    3  C   UNL     1      -8.432  17.168  66.331  1.00  0.00    -0.307 C  
HETATM    4  C   UNL     1      -9.612  17.877  67.004  1.00  0.00    -0.286 C  
HETATM    5  C   UNL     1     -10.887  17.051  66.838  1.00  0.00    -0.013 C  
HETATM    6  C   UNL     1      -9.789  19.276  66.361  1.00  0.00    -0.455 C  
HETATM    7  C   UNL     1     -10.677  15.594  67.164  1.00  0.00    -0.314 C  
HETATM    8  C   UNL     1      -9.674  20.284  67.495  1.00  0.00    -0.575 C  
HETATM    9  N   UNL     1      -9.577  15.043  66.537  1.00  0.00    -0.260 N  
HETATM   10  C   UNL     1      -8.800  19.588  68.522  1.00  0.00    -0.389 C  
HETATM   11  O   UNL     1     -11.465  14.972  67.871  1.00  0.00    -0.322 OA 
HETATM   12  C   UNL     1      -9.314  18.156  68.495  1.00  0.00    -0.321 C  
ENDROOT
BRANCH   9  13
HETATM   13  C   UNL     1      -9.545  13.603  66.371  1.00  0.00    -0.268 C  
BRANCH  13  14
HETATM   14  C   UNL     1     -10.341  13.206  65.121  1.00  0.00    -0.326 C  
BRANCH  14  15
HETATM   15  C   UNL     1     -11.005  11.842  65.254  1.00  0.00    -0.350 C  
BRANCH  15  16
HETATM   16  C   UNL     1     -10.024  10.669  65.136  1.00  0.00    -0.303 C  
BRANCH  16  17
HETATM   17  N   UNL     1      -9.217  10.445  66.352  1.00  0.00    -0.159 NA 
HETATM   18  C   UNL     1     -10.023   9.897  67.473  1.00  0.00    -0.185 C  
HETATM   19  C   UNL     1     -10.650   8.516  67.181  1.00  0.00    -0.243 C  
HETATM   20  N   UNL     1      -9.621   7.566  66.748  1.00  0.00    -0.193 NA 
HETATM   21  C   UNL     1      -8.136   9.462  66.081  1.00  0.00    -0.111 C  
HETATM   22  C   UNL     1      -8.627   8.028  65.777  1.00  0.00    -0.153 C  
BRANCH  20  23
HETATM   23  C   UNL     1      -9.314   6.542  67.611  1.00  0.00    -0.118 A  
HETATM   24  N   UNL     1      -8.791   6.858  68.812  1.00  0.00    -0.132 NA 
HETATM   25  C   UNL     1      -8.553   5.861  69.679  1.00  0.00    -0.121 A  
HETATM   26  C   UNL     1      -8.791   4.541  69.398  1.00  0.00    -0.129 A  
HETATM   27  C   UNL     1      -9.310   4.304  68.152  1.00  0.00    -0.152 A  
HETATM   28  N   UNL     1      -9.586   5.273  67.261  1.00  0.00    -0.130 NA 
ENDBRANCH  20  23
ENDBRANCH  16  17
ENDBRANCH  15  16
ENDBRANCH  14  15
ENDBRANCH  13  14
ENDBRANCH   9  13
TORSDOF 6
ENDMDL
MODEL       98
REMARK 921   NORMALIZED FREE ENERGY PREDICTED BY IDOCK:   -4.62 KCAL/MOL
REMARK 922        TOTAL FREE ENERGY PREDICTED BY IDOCK:   -7.21 KCAL/MOL
REMARK 923 INTER-LIGAND FREE ENERGY PREDICTED BY IDOCK:   -6.52 KCAL/MOL
REMARK 924 INTRA-LIGAND FREE ENERGY PREDICTED BY IDOCK:   -0.69 KCAL/MOL
REMARK 927      BINDING AFFINITY PREDICTED BY RF-SCORE:    0.00 PKD
ROOT
HETATM    1  O   UNL     1      -6.609  15.739  66.848  1.00  0.00    -0.276 OA 
HETATM    2  C   UNL     1      -7.824  15.907  66.933  1.00  0.00    -0.247 C  
HETATM    3  C   UNL     1      -8.522  16.987  66.150  1.00  0.00    -0.262 C  
HETATM    4  C   UNL     1      -9.576  17.741  66.968  1.00  0.00    -0.284 C  
HETATM    5  C   UNL     1     -10.442  16.752  67.749  1.00  0.00    -0.335 C  
HETATM    6  C   UNL     1     -10.453  18.580  66.004  1.00  0.00    -0.433 C  
HETATM    7  C   UNL     1      -9.624  15.709  68.467  1.00  0.00    -0.199 C  
HETATM    8  C   UNL     1     -10.333  20.024  66.468  1.00  0.00    -0.572 C  
HETATM    9  N   UNL     1      -8.680  15.102  67.662  1.00  0.00    -0.165 N  
HETATM   10  C   UNL     1      -8.976  20.086  67.143  1.00  0.00    -0.441 C  
HETATM   11  O   UNL     1      -9.845  15.410  69.637  1.00  0.00    -0.264 OA 
HETATM   12  C   UNL     1      -8.915  18.773  67.909  1.00  0.00    -0.320 C  
ENDROOT
BRANCH   9  13
HETATM   13  C   UNL     1      -8.189  13.798  68.065  1.00  0.00    -0.164 C  
BRANCH  13  14
HETATM   14  C   UNL     1      -8.977  12.699  67.342  1.00  0.00    -0.190 C  
BRANCH  14  15
HETATM   15  C   UNL     1      -9.771  11.818  68.298  1.00  0.00    -0.199 C  
BRANCH  15  16
HETATM   16  C   UNL     1      -8.983  10.609  68.815  1.00  0.00    -0.172 C  
BRANCH  16  17
HETATM   17  N   UNL     1      -9.794   9.382  68.946  1.00  0.00    -0.166 NA 
HETATM   18  C   UNL     1     -10.560   9.074  67.712  1.00  0.00    -0.214 C  
HETATM   19  C   UNL     1      -9.676   8.806  66.474  1.00  0.00    -0.259 C  
HETATM   20  N   UNL     1      -8.689   7.762  66.765  1.00  0.00    -0.130 NA 
HETATM   21  C   UNL     1      -8.920   8.210  69.213  1.00  0.00    -0.148 C  
HETATM   22  C   UNL     1      -7.981   7.826  68.046  1.00  0.00    -0.122 C  
BRANCH  20  23
HETATM   23  C   UNL     1      -8.850   6.555  66.129  1.00  0.00    -0.150 A  
HETATM   24  N   UNL     1      -9.873   5.767  66.510  1.00  0.00    -0.159 NA 
HETATM   25  C   UNL     1     -10.069   4.618  65.843  1.00  0.00    -0.258 A  
HETATM   26  C   UNL     1      -9.270   4.197  64.814  1.00  0.00    -0.154 A  
HETATM   27  C   UNL     1      -8.244   5.048  64.497  1.00  0.00    -0.126 A  
HETATM   28  N   UNL     1      -8.025   6.219  65.121  1.00  0.00    -0.110 NA 
ENDBRANCH  20  23
ENDBRANCH  16  17
ENDBRANCH  15  16
ENDBRANCH  14  15
ENDBRANCH  13  14
ENDBRANCH   9  13
TORSDOF 6
ENDMDL
MODEL       99
REMARK 921   NORMALIZED FREE ENERGY PREDICTED BY IDOCK:   -4.61 KCAL/MOL
REMARK 922        TOTAL FREE ENERGY PREDICTED BY IDOCK:   -7.20 KCAL/MOL
REMARK 923 INTER-LIGAND FREE ENERGY PREDICTED BY IDOCK:   -6.90 KCAL/MOL
REMARK 924 INTRA-LIGAND FREE ENERGY PREDICTED BY IDOCK:   -0.30 KCAL/MOL
REMARK 927      BINDING AFFINITY PREDICTED BY RF-SCORE:    0.00 PKD
ROOT
HETATM    1  O   UNL     1     -10.402   7.282  66.757  1.00  0.00    -0.269 OA 
HETATM    2  C   UNL     1      -9.573   6.376  66.802  1.00  0.00    -0.155 C  
HETATM    3  C   UNL     1      -8.781   5.978  65.584  1.00  0.00    -0.142 C  
HETATM    4  C   UNL     1      -8.650   4.460  65.419  1.00  0.00    -0.122 C  
HETATM    5  C   UNL     1      -8.278   3.815  66.754  1.00  0.00    -0.096 C  
HETATM    6  C   UNL     1      -7.562   4.163  64.356  1.00  0.00    -0.076 C  
HETATM    7  C   UNL     1      -9.127   4.317  67.894  1.00  0.00    -0.131 C  
HETATM    8  C   UNL     1      -8.238   3.339  63.272  1.00  0.00    -0.085 C  
HETATM    9  N   UNL     1      -9.214   5.694  67.950  1.00  0.00    -0.107 N  
HETATM   10  C   UNL     1      -9.696   3.753  63.346  1.00  0.00    -0.150 C  
HETATM   11  O   UNL     1      -9.627   3.549  68.712  1.00  0.00    -0.159 OA 
HETATM   12  C   UNL     1      -9.948   3.850  64.844  1.00  0.00    -0.198 C  
ENDROOT
BRANCH   9  13
HETATM   13  C   UNL     1      -9.566   6.296  69.222  1.00  0.00    -0.133 C  
BRANCH  13  14
HETATM   14  C   UNL     1     -11.010   5.931  69.588  1.00  0.00    -0.447 C  
BRANCH  14  15
HETATM   15  C   UNL     1     -11.273   5.999  71.087  1.00  0.00    -0.328 C  
BRANCH  15  16
HETATM   16  C   UNL     1     -12.441   6.918  71.463  1.00  0.00    -0.375 C  
BRANCH  16  17
HETATM   17  N   UNL     1     -12.064   8.015  72.376  1.00  0.00    -0.339 NA 
HETATM   18  C   UNL     1     -10.978   8.864  71.824  1.00  0.00    -0.361 C  
HETATM   19  C   UNL     1     -11.349   9.584  70.509  1.00  0.00    -0.283 C  
HETATM   20  N   UNL     1     -12.591  10.345  70.673  1.00  0.00    -0.344 NA 
HETATM   21  C   UNL     1     -13.226   8.909  72.618  1.00  0.00    -0.303 C  
HETATM   22  C   UNL     1     -13.702   9.700  71.377  1.00  0.00    -0.204 C  
BRANCH  20  23
HETATM   23  C   UNL     1     -12.490  11.716  70.658  1.00  0.00    -0.295 A  
HETATM   24  N   UNL     1     -11.802  12.291  69.654  1.00  0.00    -0.328 NA 
HETATM   25  C   UNL     1     -11.760  13.632  69.603  1.00  0.00    -0.320 A  
HETATM   26  C   UNL     1     -12.360  14.442  70.531  1.00  0.00    -0.413 A  
HETATM   27  C   UNL     1     -13.028  13.779  71.526  1.00  0.00    -0.363 A  
HETATM   28  N   UNL     1     -13.116  12.439  71.603  1.00  0.00    -0.376 NA 
ENDBRANCH  20  23
ENDBRANCH  16  17
ENDBRANCH  15  16
ENDBRANCH  14  15
ENDBRANCH  13  14
ENDBRANCH   9  13
TORSDOF 6
ENDMDL
MODEL      100
REMARK 921   NORMALIZED FREE ENERGY PREDICTED BY IDOCK:   -4.61 KCAL/MOL
REMARK 922        TOTAL FREE ENERGY PREDICTED BY IDOCK:   -7.20 KCAL/MOL
REMARK 923 INTER-LIGAND FREE ENERGY PREDICTED BY IDOCK:   -6.42 KCAL/MOL
REMARK 924 INTRA-LIGAND FREE ENERGY PREDICTED BY IDOCK:   -0.77 KCAL/MOL
REMARK 927      BINDING AFFINITY PREDICTED BY RF-SCORE:    0.00 PKD
ROOT
HETATM    1  O   UNL     1      -7.735  15.571  66.669  1.00  0.00    -0.160 OA 
HETATM    2  C   UNL     1      -8.351  16.607  66.430  1.00  0.00    -0.318 C  
HETATM    3  C   UNL     1      -7.649  17.835  65.913  1.00  0.00    -0.170 C  
HETATM    4  C   UNL     1      -8.128  19.129  66.579  1.00  0.00    -0.309 C  
HETATM    5  C   UNL     1      -9.655  19.154  66.644  1.00  0.00    -0.394 C  
HETATM    6  C   UNL     1      -7.603  20.337  65.762  1.00  0.00    -0.173 C  
HETATM    7  C   UNL     1     -10.233  17.859  67.154  1.00  0.00    -0.353 C  
HETATM    8  C   UNL     1      -6.784  21.180  66.727  1.00  0.00    -0.319 C  
HETATM    9  N   UNL     1      -9.725  16.743  66.518  1.00  0.00    -0.268 N  
HETATM   10  C   UNL     1      -6.292  20.187  67.762  1.00  0.00    -0.263 C  
HETATM   11  O   UNL     1     -11.114  17.838  68.008  1.00  0.00    -0.195 OA 
HETATM   12  C   UNL     1      -7.504  19.294  67.983  1.00  0.00    -0.312 C  
ENDROOT
BRANCH   9  13
HETATM   13  C   UNL     1     -10.515  15.527  66.556  1.00  0.00    -0.300 C  
BRANCH  13  14
HETATM   14  C   UNL     1     -10.624  14.933  65.146  1.00  0.00    -0.450 C  
BRANCH  14  15
HETATM   15  C   UNL     1     -10.056  13.523  65.055  1.00  0.00    -0.280 C  
BRANCH  15  16
HETATM   16  C   UNL     1      -9.779  12.885  66.422  1.00  0.00    -0.263 C  
BRANCH  16  17
HETATM   17  N   UNL     1     -10.654  11.736  66.729  1.00  0.00    -0.229 NA 
HETATM   18  C   UNL     1     -10.235  10.500  66.020  1.00  0.00    -0.245 C  
HETATM   19  C   UNL     1      -8.821  10.005  66.401  1.00  0.00    -0.143 C  
HETATM   20  N   UNL     1      -8.705   9.854  67.854  1.00  0.00    -0.128 NA 
HETATM   21  C   UNL     1     -10.616  11.431  68.182  1.00  0.00    -0.189 C  
HETATM   22  C   UNL     1      -9.252  10.918  68.700  1.00  0.00    -0.187 C  
BRANCH  20  23
HETATM   23  C   UNL     1      -8.598   8.574  68.342  1.00  0.00    -0.139 A  
HETATM   24  N   UNL     1      -9.291   8.258  69.453  1.00  0.00    -0.155 NA 
HETATM   25  C   UNL     1      -9.238   6.990  69.891  1.00  0.00    -0.144 A  
HETATM   26  C   UNL     1      -8.498   6.011  69.283  1.00  0.00    -0.115 A  
HETATM   27  C   UNL     1      -7.813   6.417  68.169  1.00  0.00    -0.105 A  
HETATM   28  N   UNL     1      -7.856   7.669  67.680  1.00  0.00    -0.121 NA 
ENDBRANCH  20  23
ENDBRANCH  16  17
ENDBRANCH  15  16
ENDBRANCH  14  15
ENDBRANCH  13  14
ENDBRANCH   9  13
TORSDOF 6
ENDMDL
MODEL      101
REMARK 921   NORMALIZED FREE ENERGY PREDICTED BY IDOCK:   -4.60 KCAL/MOL
REMARK 922        TOTAL FREE ENERGY PREDICTED BY IDOCK:   -7.18 KCAL/MOL
REMARK 923 INTER-LIGAND FREE ENERGY PREDICTED BY IDOCK:   -6.01 KCAL/MOL
REMARK 924 INTRA-LIGAND FREE ENERGY PREDICTED BY IDOCK:   -1.17 KCAL/MOL
REMARK 927      BINDING AFFINITY PREDICTED BY RF-SCORE:    0.00 PKD
ROOT
HETATM    1  O   UNL     1      -7.670   7.830  73.271  1.00  0.00    -0.105 OA 
HETATM    2  C   UNL     1      -8.365   8.117  72.299  1.00  0.00    -0.158 C  
HETATM    3  C   UNL     1      -9.849   8.337  72.434  1.00  0.00    -0.375 C  
HETATM    4  C   UNL     1     -10.660   7.693  71.304  1.00  0.00    -0.237 C  
HETATM    5  C   UNL     1     -10.013   7.997  69.953  1.00  0.00    -0.189 C  
HETATM    6  C   UNL     1     -12.106   8.248  71.346  1.00  0.00    -0.331 C  
HETATM    7  C   UNL     1      -8.525   7.760  69.958  1.00  0.00    -0.135 C  
HETATM    8  C   UNL     1     -13.021   7.043  71.503  1.00  0.00    -0.411 C  
HETATM    9  N   UNL     1      -7.878   8.351  71.025  1.00  0.00    -0.090 N  
HETATM   10  C   UNL     1     -12.159   6.012  72.208  1.00  0.00    -0.196 C  
HETATM   11  O   UNL     1      -7.967   7.148  69.051  1.00  0.00    -0.116 OA 
HETATM   12  C   UNL     1     -10.808   6.171  71.526  1.00  0.00    -0.313 C  
ENDROOT
BRANCH   9  13
HETATM   13  C   UNL     1      -6.458   8.614  70.891  1.00  0.00    -0.047 C  
BRANCH  13  14
HETATM   14  C   UNL     1      -6.227  10.108  70.634  1.00  0.00    -0.103 C  
BRANCH  14  15
HETATM   15  C   UNL     1      -6.279  10.466  69.154  1.00  0.00    -0.041 C  
BRANCH  15  16
HETATM   16  C   UNL     1      -7.353  11.506  68.813  1.00  0.00    -0.115 C  
BRANCH  16  17
HETATM   17  N   UNL     1      -8.672  10.918  68.505  1.00  0.00    -0.146 NA 
HETATM   18  C   UNL     1      -9.757  11.932  68.499  1.00  0.00    -0.169 C  
HETATM   19  C   UNL     1      -9.581  13.034  67.430  1.00  0.00    -0.211 C  
HETATM   20  N   UNL     1      -9.399  12.438  66.104  1.00  0.00    -0.199 NA 
HETATM   21  C   UNL     1      -8.659  10.295  67.156  1.00  0.00    -0.126 C  
HETATM   22  C   UNL     1      -8.494  11.292  65.986  1.00  0.00    -0.102 C  
BRANCH  20  23
HETATM   23  C   UNL     1     -10.420  12.603  65.199  1.00  0.00    -0.296 A  
HETATM   24  N   UNL     1     -11.275  13.626  65.387  1.00  0.00    -0.295 NA 
HETATM   25  C   UNL     1     -12.232  13.826  64.466  1.00  0.00    -0.403 A  
HETATM   26  C   UNL     1     -12.396  13.031  63.362  1.00  0.00    -0.478 A  
HETATM   27  C   UNL     1     -11.494  12.007  63.252  1.00  0.00    -0.310 A  
HETATM   28  N   UNL     1     -10.506  11.784  64.136  1.00  0.00    -0.313 NA 
ENDBRANCH  20  23
ENDBRANCH  16  17
ENDBRANCH  15  16
ENDBRANCH  14  15
ENDBRANCH  13  14
ENDBRANCH   9  13
TORSDOF 6
ENDMDL
MODEL      102
REMARK 921   NORMALIZED FREE ENERGY PREDICTED BY IDOCK:   -4.58 KCAL/MOL
REMARK 922        TOTAL FREE ENERGY PREDICTED BY IDOCK:   -7.16 KCAL/MOL
REMARK 923 INTER-LIGAND FREE ENERGY PREDICTED BY IDOCK:   -6.38 KCAL/MOL
REMARK 924 INTRA-LIGAND FREE ENERGY PREDICTED BY IDOCK:   -0.78 KCAL/MOL
REMARK 927      BINDING AFFINITY PREDICTED BY RF-SCORE:    0.00 PKD
ROOT
HETATM    1  O   UNL     1     -10.566  15.069  65.823  1.00  0.00    -0.303 OA 
HETATM    2  C   UNL     1      -9.929  15.689  66.672  1.00  0.00    -0.258 C  
HETATM    3  C   UNL     1     -10.486  16.931  67.316  1.00  0.00    -0.301 C  
HETATM    4  C   UNL     1      -9.451  18.051  67.462  1.00  0.00    -0.262 C  
HETATM    5  C   UNL     1      -8.140  17.489  68.011  1.00  0.00    -0.237 C  
HETATM    6  C   UNL     1     -10.015  19.133  68.418  1.00  0.00    -0.493 C  
HETATM    7  C   UNL     1      -7.706  16.234  67.298  1.00  0.00    -0.178 C  
HETATM    8  C   UNL     1     -10.018  20.436  67.632  1.00  0.00    -0.514 C  
HETATM    9  N   UNL     1      -8.709  15.291  67.186  1.00  0.00    -0.196 N  
HETATM   10  C   UNL     1     -10.142  19.996  66.185  1.00  0.00    -0.588 C  
HETATM   11  O   UNL     1      -6.548  16.075  66.922  1.00  0.00    -0.275 OA 
HETATM   12  C   UNL     1      -9.230  18.780  66.118  1.00  0.00    -0.157 C  
ENDROOT
BRANCH   9  13
HETATM   13  C   UNL     1      -8.315  13.910  66.979  1.00  0.00    -0.092 C  
BRANCH  13  14
HETATM   14  C   UNL     1      -8.630  13.086  68.233  1.00  0.00    -0.167 C  
BRANCH  14  15
HETATM   15  C   UNL     1      -9.995  12.413  68.169  1.00  0.00    -0.215 C  
BRANCH  15  16
HETATM   16  C   UNL     1      -9.990  10.968  68.683  1.00  0.00    -0.199 C  
BRANCH  16  17
HETATM   17  N   UNL     1      -8.872  10.156  68.162  1.00  0.00    -0.125 NA 
HETATM   18  C   UNL     1      -8.600   8.963  69.002  1.00  0.00    -0.138 C  
HETATM   19  C   UNL     1      -9.779   7.967  69.082  1.00  0.00    -0.163 C  
HETATM   20  N   UNL     1     -10.219   7.585  67.737  1.00  0.00    -0.188 NA 
HETATM   21  C   UNL     1      -9.186   9.658  66.798  1.00  0.00    -0.149 C  
HETATM   22  C   UNL     1     -10.351   8.644  66.732  1.00  0.00    -0.266 C  
BRANCH  20  23
HETATM   23  C   UNL     1      -9.976   6.291  67.343  1.00  0.00    -0.139 A  
HETATM   24  N   UNL     1      -9.166   5.536  68.110  1.00  0.00    -0.108 NA 
HETATM   25  C   UNL     1      -8.982   4.253  67.761  1.00  0.00    -0.118 A  
HETATM   26  C   UNL     1      -9.554   3.681  66.655  1.00  0.00    -0.168 A  
HETATM   27  C   UNL     1     -10.352   4.519  65.922  1.00  0.00    -0.258 A  
HETATM   28  N   UNL     1     -10.584   5.803  66.248  1.00  0.00    -0.125 NA 
ENDBRANCH  20  23
ENDBRANCH  16  17
ENDBRANCH  15  16
ENDBRANCH  14  15
ENDBRANCH  13  14
ENDBRANCH   9  13
TORSDOF 6
ENDMDL
MODEL      103
REMARK 921   NORMALIZED FREE ENERGY PREDICTED BY IDOCK:   -4.57 KCAL/MOL
REMARK 922        TOTAL FREE ENERGY PREDICTED BY IDOCK:   -7.14 KCAL/MOL
REMARK 923 INTER-LIGAND FREE ENERGY PREDICTED BY IDOCK:   -6.52 KCAL/MOL
REMARK 924 INTRA-LIGAND FREE ENERGY PREDICTED BY IDOCK:   -0.62 KCAL/MOL
REMARK 927      BINDING AFFINITY PREDICTED BY RF-SCORE:    0.00 PKD
ROOT
HETATM    1  O   UNL     1      -6.615  15.756  66.844  1.00  0.00    -0.276 OA 
HETATM    2  C   UNL     1      -7.829  15.939  66.896  1.00  0.00    -0.247 C  
HETATM    3  C   UNL     1      -8.480  17.084  66.164  1.00  0.00    -0.262 C  
HETATM    4  C   UNL     1      -9.553  17.798  66.993  1.00  0.00    -0.284 C  
HETATM    5  C   UNL     1     -10.464  16.773  67.670  1.00  0.00    -0.328 C  
HETATM    6  C   UNL     1     -10.379  18.717  66.058  1.00  0.00    -0.467 C  
HETATM    7  C   UNL     1      -9.690  15.669  68.343  1.00  0.00    -0.202 C  
HETATM    8  C   UNL     1     -10.256  20.123  66.625  1.00  0.00    -0.556 C  
HETATM    9  N   UNL     1      -8.725  15.101  67.535  1.00  0.00    -0.170 N  
HETATM   10  C   UNL     1      -8.925  20.114  67.353  1.00  0.00    -0.453 C  
HETATM   11  O   UNL     1      -9.961  15.294  69.481  1.00  0.00    -0.238 OA 
HETATM   12  C   UNL     1      -8.913  18.750  68.027  1.00  0.00    -0.326 C  
ENDROOT
BRANCH   9  13
HETATM   13  C   UNL     1      -8.270  13.765  67.864  1.00  0.00    -0.166 C  
BRANCH  13  14
HETATM   14  C   UNL     1      -8.940  12.743  66.937  1.00  0.00    -0.213 C  
BRANCH  14  15
HETATM   15  C   UNL     1     -10.412  12.529  67.262  1.00  0.00    -0.232 C  
BRANCH  15  16
HETATM   16  C   UNL     1     -10.650  11.895  68.638  1.00  0.00    -0.234 C  
BRANCH  16  17
HETATM   17  N   UNL     1     -11.351  10.597  68.580  1.00  0.00    -0.278 NA 
HETATM   18  C   UNL     1     -10.819   9.711  67.514  1.00  0.00    -0.198 C  
HETATM   19  C   UNL     1      -9.334   9.326  67.700  1.00  0.00    -0.128 C  
HETATM   20  N   UNL     1      -9.117   8.750  69.030  1.00  0.00    -0.141 NA 
HETATM   21  C   UNL     1     -11.192   9.866  69.864  1.00  0.00    -0.250 C  
HETATM   22  C   UNL     1      -9.747   9.413  70.175  1.00  0.00    -0.235 C  
BRANCH  20  23
HETATM   23  C   UNL     1      -8.820   7.410  69.090  1.00  0.00    -0.136 A  
HETATM   24  N   UNL     1      -9.706   6.539  68.571  1.00  0.00    -0.129 NA 
HETATM   25  C   UNL     1      -9.384   5.235  68.571  1.00  0.00    -0.121 A  
HETATM   26  C   UNL     1      -8.216   4.745  69.092  1.00  0.00    -0.081 A  
HETATM   27  C   UNL     1      -7.376   5.694  69.612  1.00  0.00    -0.066 A  
HETATM   28  N   UNL     1      -7.646   7.012  69.612  1.00  0.00    -0.102 NA 
ENDBRANCH  20  23
ENDBRANCH  16  17
ENDBRANCH  15  16
ENDBRANCH  14  15
ENDBRANCH  13  14
ENDBRANCH   9  13
TORSDOF 6
ENDMDL
MODEL      104
REMARK 921   NORMALIZED FREE ENERGY PREDICTED BY IDOCK:   -4.56 KCAL/MOL
REMARK 922        TOTAL FREE ENERGY PREDICTED BY IDOCK:   -7.14 KCAL/MOL
REMARK 923 INTER-LIGAND FREE ENERGY PREDICTED BY IDOCK:   -6.85 KCAL/MOL
REMARK 924 INTRA-LIGAND FREE ENERGY PREDICTED BY IDOCK:   -0.29 KCAL/MOL
REMARK 927      BINDING AFFINITY PREDICTED BY RF-SCORE:    0.00 PKD
ROOT
HETATM    1  O   UNL     1     -10.563   7.697  73.683  1.00  0.00    -0.306 OA 
HETATM    2  C   UNL     1     -10.832   6.903  72.786  1.00  0.00    -0.272 C  
HETATM    3  C   UNL     1     -10.548   5.431  72.931  1.00  0.00    -0.270 C  
HETATM    4  C   UNL     1      -9.955   4.802  71.665  1.00  0.00    -0.257 C  
HETATM    5  C   UNL     1     -10.738   5.260  70.434  1.00  0.00    -0.216 C  
HETATM    6  C   UNL     1     -10.013   3.260  71.797  1.00  0.00    -0.192 C  
HETATM    7  C   UNL     1     -10.977   6.748  70.422  1.00  0.00    -0.283 C  
HETATM    8  C   UNL     1      -8.581   2.766  71.652  1.00  0.00    -0.099 C  
HETATM    9  N   UNL     1     -11.484   7.234  71.611  1.00  0.00    -0.257 N  
HETATM   10  C   UNL     1      -7.736   3.933  72.125  1.00  0.00    -0.071 C  
HETATM   11  O   UNL     1     -10.787   7.423  69.413  1.00  0.00    -0.232 OA 
HETATM   12  C   UNL     1      -8.452   5.137  71.531  1.00  0.00    -0.124 C  
ENDROOT
BRANCH   9  13
HETATM   13  C   UNL     1     -12.195   8.497  71.575  1.00  0.00    -0.311 C  
BRANCH  13  14
HETATM   14  C   UNL     1     -11.210   9.641  71.303  1.00  0.00    -0.446 C  
BRANCH  14  15
HETATM   15  C   UNL     1     -11.870  10.840  70.634  1.00  0.00    -0.460 C  
BRANCH  15  16
HETATM   16  C   UNL     1     -11.705  10.859  69.110  1.00  0.00    -0.326 C  
BRANCH  16  17
HETATM   17  N   UNL     1     -10.424  11.437  68.658  1.00  0.00    -0.195 NA 
HETATM   18  C   UNL     1      -9.481  10.405  68.158  1.00  0.00    -0.145 C  
HETATM   19  C   UNL     1      -9.996   9.629  66.925  1.00  0.00    -0.212 C  
HETATM   20  N   UNL     1     -10.387  10.557  65.860  1.00  0.00    -0.235 NA 
HETATM   21  C   UNL     1     -10.653  12.389  67.540  1.00  0.00    -0.219 C  
HETATM   22  C   UNL     1     -11.167  11.739  66.234  1.00  0.00    -0.312 C  
BRANCH  20  23
HETATM   23  C   UNL     1      -9.602  10.580  64.732  1.00  0.00    -0.285 A  
HETATM   24  N   UNL     1      -8.414   9.948  64.772  1.00  0.00    -0.159 NA 
HETATM   25  C   UNL     1      -7.678   9.915  63.649  1.00  0.00    -0.141 A  
HETATM   26  C   UNL     1      -8.063  10.509  62.476  1.00  0.00    -0.201 A  
HETATM   27  C   UNL     1      -9.277  11.141  62.523  1.00  0.00    -0.276 A  
HETATM   28  N   UNL     1     -10.057  11.179  63.618  1.00  0.00    -0.343 NA 
ENDBRANCH  20  23
ENDBRANCH  16  17
ENDBRANCH  15  16
ENDBRANCH  14  15
ENDBRANCH  13  14
ENDBRANCH   9  13
TORSDOF 6
ENDMDL
MODEL      105
REMARK 921   NORMALIZED FREE ENERGY PREDICTED BY IDOCK:   -4.55 KCAL/MOL
REMARK 922        TOTAL FREE ENERGY PREDICTED BY IDOCK:   -7.12 KCAL/MOL
REMARK 923 INTER-LIGAND FREE ENERGY PREDICTED BY IDOCK:   -6.43 KCAL/MOL
REMARK 924 INTRA-LIGAND FREE ENERGY PREDICTED BY IDOCK:   -0.70 KCAL/MOL
REMARK 927      BINDING AFFINITY PREDICTED BY RF-SCORE:    0.00 PKD
ROOT
HETATM    1  O   UNL     1     -10.765   8.565  67.769  1.00  0.00    -0.201 OA 
HETATM    2  C   UNL     1      -9.938   9.063  68.530  1.00  0.00    -0.176 C  
HETATM    3  C   UNL     1      -8.501   9.242  68.116  1.00  0.00    -0.121 C  
HETATM    4  C   UNL     1      -7.505   8.868  69.219  1.00  0.00    -0.075 C  
HETATM    5  C   UNL     1      -7.944   9.472  70.552  1.00  0.00    -0.188 C  
HETATM    6  C   UNL     1      -6.102   9.395  68.825  1.00  0.00    -0.043 C  
HETATM    7  C   UNL     1      -9.407   9.245  70.836  1.00  0.00    -0.245 C  
HETATM    8  C   UNL     1      -5.183   8.182  68.801  1.00  0.00    -0.028 C  
HETATM    9  N   UNL     1     -10.230   9.581  69.779  1.00  0.00    -0.212 N  
HETATM   10  C   UNL     1      -6.109   7.022  68.490  1.00  0.00    -0.030 C  
HETATM   11  O   UNL     1      -9.798   8.857  71.933  1.00  0.00    -0.312 OA 
HETATM   12  C   UNL     1      -7.343   7.335  69.324  1.00  0.00    -0.087 C  
ENDROOT
BRANCH   9  13
HETATM   13  C   UNL     1     -11.620   9.872  70.073  1.00  0.00    -0.175 C  
BRANCH  13  14
HETATM   14  C   UNL     1     -12.068  11.114  69.293  1.00  0.00    -0.377 C  
BRANCH  14  15
HETATM   15  C   UNL     1     -11.631  12.415  69.955  1.00  0.00    -0.260 C  
BRANCH  15  16
HETATM   16  C   UNL     1     -11.718  13.633  69.028  1.00  0.00    -0.333 C  
BRANCH  16  17
HETATM   17  N   UNL     1     -10.420  14.036  68.453  1.00  0.00    -0.246 NA 
HETATM   18  C   UNL     1     -10.570  14.760  67.165  1.00  0.00    -0.285 C  
HETATM   19  C   UNL     1     -11.357  16.085  67.277  1.00  0.00     0.053 C  
HETATM   20  N   UNL     1     -10.769  16.945  68.308  1.00  0.00    -0.368 NA 
HETATM   21  C   UNL     1      -9.706  14.953  69.379  1.00  0.00    -0.091 C  
HETATM   22  C   UNL     1     -10.386  16.327  69.580  1.00  0.00    -0.284 C  
BRANCH  20  23
HETATM   23  C   UNL     1     -10.136  18.088  67.882  1.00  0.00    -0.355 A  
HETATM   24  N   UNL     1     -10.785  18.888  67.015  1.00  0.00    -0.434 NA 
HETATM   25  C   UNL     1     -10.194  20.037  66.650  1.00  0.00    -0.471 A  
HETATM   26  C   UNL     1      -8.958  20.425  67.096  1.00  0.00    -0.453 A  
HETATM   27  C   UNL     1      -8.360  19.551  67.965  1.00  0.00    -0.320 A  
HETATM   28  N   UNL     1      -8.925  18.402  68.375  1.00  0.00    -0.311 NA 
ENDBRANCH  20  23
ENDBRANCH  16  17
ENDBRANCH  15  16
ENDBRANCH  14  15
ENDBRANCH  13  14
ENDBRANCH   9  13
TORSDOF 6
ENDMDL
MODEL      106
REMARK 921   NORMALIZED FREE ENERGY PREDICTED BY IDOCK:   -4.55 KCAL/MOL
REMARK 922        TOTAL FREE ENERGY PREDICTED BY IDOCK:   -7.11 KCAL/MOL
REMARK 923 INTER-LIGAND FREE ENERGY PREDICTED BY IDOCK:   -6.56 KCAL/MOL
REMARK 924 INTRA-LIGAND FREE ENERGY PREDICTED BY IDOCK:   -0.55 KCAL/MOL
REMARK 927      BINDING AFFINITY PREDICTED BY RF-SCORE:    0.00 PKD
ROOT
HETATM    1  O   UNL     1      -8.769  14.999  69.669  1.00  0.00    -0.134 OA 
HETATM    2  C   UNL     1      -9.941  15.337  69.522  1.00  0.00    -0.242 C  
HETATM    3  C   UNL     1     -10.854  15.535  70.703  1.00  0.00    -0.333 C  
HETATM    4  C   UNL     1     -12.255  14.952  70.489  1.00  0.00    -0.388 C  
HETATM    5  C   UNL     1     -12.781  15.340  69.107  1.00  0.00     0.348 C  
HETATM    6  C   UNL     1     -13.197  15.491  71.594  1.00  0.00    -0.575 C  
HETATM    7  C   UNL     1     -11.764  15.116  68.017  1.00  0.00    -0.285 C  
HETATM    8  C   UNL     1     -13.756  14.270  72.310  1.00  0.00    -0.592 C  
HETATM    9  N   UNL     1     -10.523  15.649  68.306  1.00  0.00    -0.246 N  
HETATM   10  C   UNL     1     -12.691  13.208  72.119  1.00  0.00    -0.138 C  
HETATM   11  O   UNL     1     -12.061  14.564  66.961  1.00  0.00    -0.398 OA 
HETATM   12  C   UNL     1     -12.252  13.418  70.677  1.00  0.00    -0.427 C  
ENDROOT
BRANCH   9  13
HETATM   13  C   UNL     1      -9.635  15.932  67.195  1.00  0.00    -0.218 C  
BRANCH  13  14
HETATM   14  C   UNL     1      -9.650  14.760  66.205  1.00  0.00    -0.339 C  
BRANCH  14  15
HETATM   15  C   UNL     1      -8.575  13.723  66.504  1.00  0.00     0.182 C  
BRANCH  15  16
HETATM   16  C   UNL     1      -9.126  12.303  66.678  1.00  0.00    -0.203 C  
BRANCH  16  17
HETATM   17  N   UNL     1      -9.808  12.084  67.969  1.00  0.00    -0.193 NA 
HETATM   18  C   UNL     1     -11.060  11.299  67.823  1.00  0.00    -0.271 C  
HETATM   19  C   UNL     1     -10.846   9.873  67.267  1.00  0.00    -0.199 C  
HETATM   20  N   UNL     1      -9.854   9.153  68.070  1.00  0.00    -0.162 NA 
HETATM   21  C   UNL     1      -8.930  11.324  68.895  1.00  0.00    -0.045 C  
HETATM   22  C   UNL     1      -8.637   9.869  68.460  1.00  0.00    -0.117 C  
BRANCH  20  23
HETATM   23  C   UNL     1     -10.310   8.107  68.835  1.00  0.00    -0.211 A  
HETATM   24  N   UNL     1     -10.481   6.911  68.239  1.00  0.00    -0.193 NA 
HETATM   25  C   UNL     1     -10.863   5.874  69.001  1.00  0.00    -0.313 A  
HETATM   26  C   UNL     1     -11.110   5.974  70.345  1.00  0.00    -0.399 A  
HETATM   27  C   UNL     1     -10.926   7.226  70.871  1.00  0.00    -0.253 A  
HETATM   28  N   UNL     1     -10.522   8.287  70.151  1.00  0.00    -0.220 NA 
ENDBRANCH  20  23
ENDBRANCH  16  17
ENDBRANCH  15  16
ENDBRANCH  14  15
ENDBRANCH  13  14
ENDBRANCH   9  13
TORSDOF 6
ENDMDL
MODEL      107
REMARK 921   NORMALIZED FREE ENERGY PREDICTED BY IDOCK:   -4.54 KCAL/MOL
REMARK 922        TOTAL FREE ENERGY PREDICTED BY IDOCK:   -7.10 KCAL/MOL
REMARK 923 INTER-LIGAND FREE ENERGY PREDICTED BY IDOCK:   -6.45 KCAL/MOL
REMARK 924 INTRA-LIGAND FREE ENERGY PREDICTED BY IDOCK:   -0.65 KCAL/MOL
REMARK 927      BINDING AFFINITY PREDICTED BY RF-SCORE:    0.00 PKD
ROOT
HETATM    1  O   UNL     1      -9.184   6.761  68.790  1.00  0.00    -0.132 OA 
HETATM    2  C   UNL     1      -9.088   6.753  67.565  1.00  0.00    -0.117 C  
HETATM    3  C   UNL     1      -9.425   5.524  66.762  1.00  0.00    -0.147 C  
HETATM    4  C   UNL     1      -8.422   5.245  65.637  1.00  0.00    -0.135 C  
HETATM    5  C   UNL     1      -8.113   6.533  64.875  1.00  0.00    -0.119 C  
HETATM    6  C   UNL     1      -9.024   4.185  64.681  1.00  0.00    -0.141 C  
HETATM    7  C   UNL     1      -7.817   7.691  65.794  1.00  0.00    -0.106 C  
HETATM    8  C   UNL     1      -8.039   3.026  64.654  1.00  0.00    -0.086 C  
HETATM    9  N   UNL     1      -8.756   7.852  66.794  1.00  0.00    -0.129 N  
HETATM   10  C   UNL     1      -7.339   3.103  65.998  1.00  0.00    -0.072 C  
HETATM   11  O   UNL     1      -6.860   8.437  65.604  1.00  0.00    -0.065 OA 
HETATM   12  C   UNL     1      -7.133   4.598  66.192  1.00  0.00    -0.075 C  
ENDROOT
BRANCH   9  13
HETATM   13  C   UNL     1      -8.864   9.159  67.414  1.00  0.00    -0.118 C  
BRANCH  13  14
HETATM   14  C   UNL     1     -10.296   9.687  67.269  1.00  0.00    -0.310 C  
BRANCH  14  15
HETATM   15  C   UNL     1     -10.412  10.798  66.234  1.00  0.00    -0.287 C  
BRANCH  15  16
HETATM   16  C   UNL     1     -11.483  11.842  66.572  1.00  0.00    -0.314 C  
BRANCH  16  17
HETATM   17  N   UNL     1     -11.555  12.955  65.604  1.00  0.00    -0.343 NA 
HETATM   18  C   UNL     1     -12.485  14.026  66.041  1.00  0.00    -0.455 C  
HETATM   19  C   UNL     1     -12.080  14.710  67.366  1.00  0.00    -0.183 C  
HETATM   20  N   UNL     1     -10.700  15.198  67.290  1.00  0.00    -0.298 NA 
HETATM   21  C   UNL     1     -10.220  13.586  65.441  1.00  0.00    -0.302 C  
HETATM   22  C   UNL     1      -9.692  14.314  66.699  1.00  0.00    -0.287 C  
BRANCH  20  23
HETATM   23  C   UNL     1     -10.520  16.560  67.264  1.00  0.00    -0.304 A  
HETATM   24  N   UNL     1     -10.522  17.223  68.436  1.00  0.00    -0.365 NA 
HETATM   25  C   UNL     1     -10.280  18.544  68.415  1.00  0.00    -0.372 A  
HETATM   26  C   UNL     1     -10.055  19.253  67.264  1.00  0.00    -0.481 A  
HETATM   27  C   UNL     1     -10.083  18.507  66.115  1.00  0.00    -0.368 A  
HETATM   28  N   UNL     1     -10.297  17.180  66.091  1.00  0.00    -0.343 NA 
ENDBRANCH  20  23
ENDBRANCH  16  17
ENDBRANCH  15  16
ENDBRANCH  14  15
ENDBRANCH  13  14
ENDBRANCH   9  13
TORSDOF 6
ENDMDL
MODEL      108
REMARK 921   NORMALIZED FREE ENERGY PREDICTED BY IDOCK:   -4.52 KCAL/MOL
REMARK 922        TOTAL FREE ENERGY PREDICTED BY IDOCK:   -7.08 KCAL/MOL
REMARK 923 INTER-LIGAND FREE ENERGY PREDICTED BY IDOCK:   -6.29 KCAL/MOL
REMARK 924 INTRA-LIGAND FREE ENERGY PREDICTED BY IDOCK:   -0.79 KCAL/MOL
REMARK 927      BINDING AFFINITY PREDICTED BY RF-SCORE:    0.00 PKD
ROOT
HETATM    1  O   UNL     1      -9.242   6.703  68.275  1.00  0.00    -0.124 OA 
HETATM    2  C   UNL     1      -9.160   6.513  67.064  1.00  0.00    -0.128 C  
HETATM    3  C   UNL     1      -9.513   5.183  66.453  1.00  0.00    -0.158 C  
HETATM    4  C   UNL     1      -8.525   4.733  65.372  1.00  0.00    -0.129 C  
HETATM    5  C   UNL     1      -8.215   5.893  64.426  1.00  0.00    -0.099 C  
HETATM    6  C   UNL     1      -9.144   3.549  64.588  1.00  0.00    -0.132 C  
HETATM    7  C   UNL     1      -7.902   7.171  65.161  1.00  0.00    -0.124 C  
HETATM    8  C   UNL     1      -8.167   2.391  64.722  1.00  0.00    -0.087 C  
HETATM    9  N   UNL     1      -8.829   7.485  66.136  1.00  0.00    -0.158 N  
HETATM   10  C   UNL     1      -7.453   2.658  66.033  1.00  0.00    -0.068 C  
HETATM   11  O   UNL     1      -6.942   7.872  64.855  1.00  0.00    -0.057 OA 
HETATM   12  C   UNL     1      -7.234   4.164  66.003  1.00  0.00    -0.068 C  
ENDROOT
BRANCH   9  13
HETATM   13  C   UNL     1      -8.921   8.869  66.558  1.00  0.00    -0.155 C  
BRANCH  13  14
HETATM   14  C   UNL     1     -10.111   9.546  65.867  1.00  0.00    -0.284 C  
BRANCH  14  15
HETATM   15  C   UNL     1      -9.703  10.769  65.055  1.00  0.00    -0.323 C  
BRANCH  15  16
HETATM   16  C   UNL     1     -10.671  11.949  65.198  1.00  0.00    -0.291 C  
BRANCH  16  17
HETATM   17  N   UNL     1     -10.047  13.164  65.759  1.00  0.00    -0.289 NA 
HETATM   18  C   UNL     1     -11.036  14.244  66.011  1.00  0.00    -0.312 C  
HETATM   19  C   UNL     1     -12.123  13.871  67.044  1.00  0.00    -0.415 C  
HETATM   20  N   UNL     1     -11.509  13.406  68.291  1.00  0.00    -0.293 NA 
HETATM   21  C   UNL     1      -9.402  12.860  67.062  1.00  0.00    -0.235 C  
HETATM   22  C   UNL     1     -10.383  12.474  68.194  1.00  0.00    -0.232 C  
BRANCH  20  23
HETATM   23  C   UNL     1     -11.635  14.220  69.391  1.00  0.00    -0.306 A  
HETATM   24  N   UNL     1     -12.359  13.771  70.434  1.00  0.00    -0.351 NA 
HETATM   25  C   UNL     1     -12.427  14.538  71.533  1.00  0.00    -0.355 A  
HETATM   26  C   UNL     1     -11.819  15.762  71.639  1.00  0.00    -0.539 A  
HETATM   27  C   UNL     1     -11.115  16.151  70.531  1.00  0.00    -0.322 A  
HETATM   28  N   UNL     1     -11.000  15.405  69.418  1.00  0.00    -0.257 NA 
ENDBRANCH  20  23
ENDBRANCH  16  17
ENDBRANCH  15  16
ENDBRANCH  14  15
ENDBRANCH  13  14
ENDBRANCH   9  13
TORSDOF 6
ENDMDL
MODEL      109
REMARK 921   NORMALIZED FREE ENERGY PREDICTED BY IDOCK:   -4.52 KCAL/MOL
REMARK 922        TOTAL FREE ENERGY PREDICTED BY IDOCK:   -7.07 KCAL/MOL
REMARK 923 INTER-LIGAND FREE ENERGY PREDICTED BY IDOCK:   -6.35 KCAL/MOL
REMARK 924 INTRA-LIGAND FREE ENERGY PREDICTED BY IDOCK:   -0.73 KCAL/MOL
REMARK 927      BINDING AFFINITY PREDICTED BY RF-SCORE:    0.00 PKD
ROOT
HETATM    1  O   UNL     1     -12.364  13.644  66.315  1.00  0.00    -0.432 OA 
HETATM    2  C   UNL     1     -11.518  14.084  67.090  1.00  0.00    -0.352 C  
HETATM    3  C   UNL     1     -11.573  15.505  67.585  1.00  0.00    -0.147 C  
HETATM    4  C   UNL     1     -10.203  16.191  67.605  1.00  0.00    -0.265 C  
HETATM    5  C   UNL     1      -9.157  15.261  68.219  1.00  0.00    -0.181 C  
HETATM    6  C   UNL     1     -10.309  17.500  68.427  1.00  0.00    -0.378 C  
HETATM    7  C   UNL     1      -9.224  13.864  67.656  1.00  0.00    -0.199 C  
HETATM    8  C   UNL     1      -9.880  18.624  67.497  1.00  0.00    -0.350 C  
HETATM    9  N   UNL     1     -10.499  13.334  67.650  1.00  0.00    -0.227 N  
HETATM   10  C   UNL     1     -10.206  18.103  66.110  1.00  0.00    -0.372 C  
HETATM   11  O   UNL     1      -8.213  13.262  67.304  1.00  0.00    -0.177 OA 
HETATM   12  C   UNL     1      -9.788  16.642  66.186  1.00  0.00    -0.340 C  
ENDROOT
BRANCH   9  13
HETATM   13  C   UNL     1     -10.629  11.891  67.604  1.00  0.00    -0.211 C  
BRANCH  13  14
HETATM   14  C   UNL     1     -10.545  11.315  69.023  1.00  0.00    -0.241 C  
BRANCH  14  15
HETATM   15  C   UNL     1     -11.251   9.972  69.157  1.00  0.00    -0.197 C  
BRANCH  15  16
HETATM   16  C   UNL     1     -10.290   8.781  69.244  1.00  0.00    -0.214 C  
BRANCH  16  17
HETATM   17  N   UNL     1      -9.419   8.633  68.062  1.00  0.00    -0.139 NA 
HETATM   18  C   UNL     1      -8.421   7.546  68.226  1.00  0.00    -0.125 C  
HETATM   19  C   UNL     1      -9.043   6.143  68.410  1.00  0.00    -0.113 C  
HETATM   20  N   UNL     1      -9.978   5.850  67.320  1.00  0.00    -0.139 NA 
HETATM   21  C   UNL     1     -10.229   8.294  66.863  1.00  0.00    -0.318 C  
HETATM   22  C   UNL     1     -10.908   6.906  66.912  1.00  0.00    -0.310 C  
BRANCH  20  23
HETATM   23  C   UNL     1      -9.608   4.877  66.424  1.00  0.00    -0.172 A  
HETATM   24  N   UNL     1     -10.503   4.498  65.492  1.00  0.00    -0.260 NA 
HETATM   25  C   UNL     1     -10.118   3.595  64.576  1.00  0.00    -0.186 A  
HETATM   26  C   UNL     1      -8.872   3.023  64.555  1.00  0.00    -0.108 A  
HETATM   27  C   UNL     1      -8.027   3.452  65.544  1.00  0.00    -0.089 A  
HETATM   28  N   UNL     1      -8.363   4.371  66.467  1.00  0.00    -0.106 NA 
ENDBRANCH  20  23
ENDBRANCH  16  17
ENDBRANCH  15  16
ENDBRANCH  14  15
ENDBRANCH  13  14
ENDBRANCH   9  13
TORSDOF 6
ENDMDL
MODEL      110
REMARK 921   NORMALIZED FREE ENERGY PREDICTED BY IDOCK:   -4.51 KCAL/MOL
REMARK 922        TOTAL FREE ENERGY PREDICTED BY IDOCK:   -7.07 KCAL/MOL
REMARK 923 INTER-LIGAND FREE ENERGY PREDICTED BY IDOCK:   -7.17 KCAL/MOL
REMARK 924 INTRA-LIGAND FREE ENERGY PREDICTED BY IDOCK:    0.10 KCAL/MOL
REMARK 927      BINDING AFFINITY PREDICTED BY RF-SCORE:    0.00 PKD
ROOT
HETATM    1  O   UNL     1      -9.229  13.795  66.843  1.00  0.00    -0.240 OA 
HETATM    2  C   UNL     1      -9.731  14.911  66.949  1.00  0.00    -0.240 C  
HETATM    3  C   UNL     1      -9.030  16.138  66.428  1.00  0.00    -0.353 C  
HETATM    4  C   UNL     1      -9.113  17.333  67.385  1.00  0.00    -0.227 C  
HETATM    5  C   UNL     1     -10.541  17.493  67.904  1.00  0.00    -0.390 C  
HETATM    6  C   UNL     1      -8.667  18.610  66.630  1.00  0.00    -0.307 C  
HETATM    7  C   UNL     1     -11.136  16.189  68.371  1.00  0.00    -0.359 C  
HETATM    8  C   UNL     1      -7.499  19.184  67.418  1.00  0.00    -0.254 C  
HETATM    9  N   UNL     1     -10.992  15.161  67.461  1.00  0.00    -0.302 N  
HETATM   10  C   UNL     1      -6.888  17.979  68.107  1.00  0.00    -0.210 C  
HETATM   11  O   UNL     1     -11.740  16.102  69.437  1.00  0.00    -0.304 OA 
HETATM   12  C   UNL     1      -8.107  17.182  68.548  1.00  0.00    -0.260 C  
ENDROOT
BRANCH   9  13
HETATM   13  C   UNL     1     -11.907  14.041  67.557  1.00  0.00    -0.407 C  
BRANCH  13  14
HETATM   14  C   UNL     1     -11.527  13.159  68.753  1.00  0.00    -0.348 C  
BRANCH  14  15
HETATM   15  C   UNL     1     -11.707  11.673  68.470  1.00  0.00    -0.378 C  
BRANCH  15  16
HETATM   16  C   UNL     1     -10.998  10.767  69.484  1.00  0.00    -0.266 C  
BRANCH  16  17
HETATM   17  N   UNL     1      -9.695  10.256  69.014  1.00  0.00    -0.194 NA 
HETATM   18  C   UNL     1      -9.424   8.875  69.487  1.00  0.00    -0.159 C  
HETATM   19  C   UNL     1     -10.440   7.826  68.982  1.00  0.00    -0.205 C  
HETATM   20  N   UNL     1     -10.549   7.879  67.522  1.00  0.00    -0.260 NA 
HETATM   21  C   UNL     1      -9.661  10.215  67.528  1.00  0.00    -0.162 C  
HETATM   22  C   UNL     1     -10.633   9.197  66.888  1.00  0.00    -0.167 C  
BRANCH  20  23
HETATM   23  C   UNL     1     -10.050   6.809  66.819  1.00  0.00    -0.183 A  
HETATM   24  N   UNL     1     -10.827   5.716  66.690  1.00  0.00    -0.273 NA 
HETATM   25  C   UNL     1     -10.365   4.697  65.947  1.00  0.00    -0.283 A  
HETATM   26  C   UNL     1      -9.138   4.702  65.336  1.00  0.00    -0.149 A  
HETATM   27  C   UNL     1      -8.406   5.844  65.528  1.00  0.00    -0.145 A  
HETATM   28  N   UNL     1      -8.839   6.898  66.243  1.00  0.00    -0.145 NA 
ENDBRANCH  20  23
ENDBRANCH  16  17
ENDBRANCH  15  16
ENDBRANCH  14  15
ENDBRANCH  13  14
ENDBRANCH   9  13
TORSDOF 6
ENDMDL
MODEL      111
REMARK 921   NORMALIZED FREE ENERGY PREDICTED BY IDOCK:   -4.51 KCAL/MOL
REMARK 922        TOTAL FREE ENERGY PREDICTED BY IDOCK:   -7.06 KCAL/MOL
REMARK 923 INTER-LIGAND FREE ENERGY PREDICTED BY IDOCK:   -6.06 KCAL/MOL
REMARK 924 INTRA-LIGAND FREE ENERGY PREDICTED BY IDOCK:   -1.00 KCAL/MOL
REMARK 927      BINDING AFFINITY PREDICTED BY RF-SCORE:    0.00 PKD
ROOT
HETATM    1  O   UNL     1      -9.413  14.380  66.284  1.00  0.00    -0.290 OA 
HETATM    2  C   UNL     1      -9.999  13.322  66.065  1.00  0.00    -0.292 C  
HETATM    3  C   UNL     1      -9.258  12.100  65.589  1.00  0.00     0.042 C  
HETATM    4  C   UNL     1      -9.994  11.342  64.479  1.00  0.00    -0.334 C  
HETATM    5  C   UNL     1     -11.471  11.186  64.839  1.00  0.00     0.205 C  
HETATM    6  C   UNL     1      -9.334   9.952  64.299  1.00  0.00    -0.313 C  
HETATM    7  C   UNL     1     -12.087  12.473  65.324  1.00  0.00    -0.444 C  
HETATM    8  C   UNL     1      -8.889   9.877  62.846  1.00  0.00    -0.248 C  
HETATM    9  N   UNL     1     -11.344  13.104  66.302  1.00  0.00    -0.305 N  
HETATM   10  C   UNL     1      -8.658  11.324  62.454  1.00  0.00    -0.227 C  
HETATM   11  O   UNL     1     -13.177  12.861  64.912  1.00  0.00    -0.782 OA 
HETATM   12  C   UNL     1      -9.820  12.048  63.116  1.00  0.00    -0.156 C  
ENDROOT
BRANCH   9  13
HETATM   13  C   UNL     1     -12.029  14.042  67.170  1.00  0.00    -0.430 C  
BRANCH  13  14
HETATM   14  C   UNL     1     -11.766  13.682  68.638  1.00  0.00    -0.389 C  
BRANCH  14  15
HETATM   15  C   UNL     1     -12.144  12.244  68.968  1.00  0.00    -0.197 C  
BRANCH  15  16
HETATM   16  C   UNL     1     -10.940  11.354  69.299  1.00  0.00    -0.229 C  
BRANCH  16  17
HETATM   17  N   UNL     1     -11.244   9.910  69.274  1.00  0.00    -0.178 NA 
HETATM   18  C   UNL     1     -10.217   9.126  68.542  1.00  0.00    -0.198 C  
HETATM   19  C   UNL     1      -8.806   9.201  69.168  1.00  0.00    -0.146 C  
HETATM   20  N   UNL     1      -8.853   8.828  70.585  1.00  0.00    -0.164 NA 
HETATM   21  C   UNL     1     -11.292   9.368  70.657  1.00  0.00    -0.292 C  
HETATM   22  C   UNL     1      -9.937   9.378  71.402  1.00  0.00    -0.160 C  
BRANCH  20  23
HETATM   23  C   UNL     1      -8.260   7.640  70.938  1.00  0.00    -0.108 A  
HETATM   24  N   UNL     1      -7.900   6.792  69.956  1.00  0.00    -0.109 NA 
HETATM   25  C   UNL     1      -7.262   5.662  70.299  1.00  0.00    -0.067 A  
HETATM   26  C   UNL     1      -6.979   5.317  71.595  1.00  0.00    -0.066 A  
HETATM   27  C   UNL     1      -7.390   6.226  72.533  1.00  0.00    -0.085 A  
HETATM   28  N   UNL     1      -8.010   7.381  72.234  1.00  0.00    -0.098 NA 
ENDBRANCH  20  23
ENDBRANCH  16  17
ENDBRANCH  15  16
ENDBRANCH  14  15
ENDBRANCH  13  14
ENDBRANCH   9  13
TORSDOF 6
ENDMDL
MODEL      112
REMARK 921   NORMALIZED FREE ENERGY PREDICTED BY IDOCK:   -4.50 KCAL/MOL
REMARK 922        TOTAL FREE ENERGY PREDICTED BY IDOCK:   -7.05 KCAL/MOL
REMARK 923 INTER-LIGAND FREE ENERGY PREDICTED BY IDOCK:   -5.99 KCAL/MOL
REMARK 924 INTRA-LIGAND FREE ENERGY PREDICTED BY IDOCK:   -1.06 KCAL/MOL
REMARK 927      BINDING AFFINITY PREDICTED BY RF-SCORE:    0.00 PKD
ROOT
HETATM    1  O   UNL     1      -9.519  10.089  63.134  1.00  0.00    -0.299 OA 
HETATM    2  C   UNL     1      -9.437  10.174  64.357  1.00  0.00    -0.308 C  
HETATM    3  C   UNL     1     -10.627  10.557  65.196  1.00  0.00    -0.121 C  
HETATM    4  C   UNL     1     -10.284  11.551  66.312  1.00  0.00    -0.268 C  
HETATM    5  C   UNL     1      -9.011  11.111  67.035  1.00  0.00    -0.156 C  
HETATM    6  C   UNL     1     -11.471  11.620  67.304  1.00  0.00    -0.350 C  
HETATM    7  C   UNL     1      -7.906  10.732  66.083  1.00  0.00    -0.155 C  
HETATM    8  C   UNL     1     -11.909  13.076  67.345  1.00  0.00    -0.411 C  
HETATM    9  N   UNL     1      -8.310   9.856  65.094  1.00  0.00    -0.140 N  
HETATM   10  C   UNL     1     -11.506  13.622  65.988  1.00  0.00    -0.340 C  
HETATM   11  O   UNL     1      -6.756  11.131  66.238  1.00  0.00    -0.127 OA 
HETATM   12  C   UNL     1     -10.145  12.985  65.753  1.00  0.00    -0.294 C  
ENDROOT
BRANCH   9  13
HETATM   13  C   UNL     1      -7.290   9.057  64.443  1.00  0.00    -0.099 C  
BRANCH  13  14
HETATM   14  C   UNL     1      -6.998   7.804  65.278  1.00  0.00    -0.059 C  
BRANCH  14  15
HETATM   15  C   UNL     1      -7.954   6.658  64.972  1.00  0.00    -0.124 C  
BRANCH  15  16
HETATM   16  C   UNL     1      -9.113   6.544  65.969  1.00  0.00    -0.086 C  
BRANCH  16  17
HETATM   17  N   UNL     1      -8.778   5.777  67.185  1.00  0.00    -0.109 NA 
HETATM   18  C   UNL     1      -8.137   6.617  68.228  1.00  0.00    -0.111 C  
HETATM   19  C   UNL     1      -9.031   7.767  68.746  1.00  0.00    -0.141 C  
HETATM   20  N   UNL     1     -10.324   7.246  69.199  1.00  0.00    -0.201 NA 
HETATM   21  C   UNL     1     -10.009   5.205  67.791  1.00  0.00    -0.156 C  
HETATM   22  C   UNL     1     -10.996   6.252  68.358  1.00  0.00    -0.325 C  
BRANCH  20  23
HETATM   23  C   UNL     1     -10.575   7.286  70.549  1.00  0.00    -0.222 A  
HETATM   24  N   UNL     1      -9.866   6.469  71.352  1.00  0.00    -0.176 NA 
HETATM   25  C   UNL     1     -10.065   6.556  72.677  1.00  0.00    -0.174 A  
HETATM   26  C   UNL     1     -10.967   7.413  73.251  1.00  0.00    -0.367 A  
HETATM   27  C   UNL     1     -11.656   8.199  72.365  1.00  0.00    -0.399 A  
HETATM   28  N   UNL     1     -11.472   8.163  71.034  1.00  0.00    -0.277 NA 
ENDBRANCH  20  23
ENDBRANCH  16  17
ENDBRANCH  15  16
ENDBRANCH  14  15
ENDBRANCH  13  14
ENDBRANCH   9  13
TORSDOF 6
ENDMDL
MODEL      113
REMARK 921   NORMALIZED FREE ENERGY PREDICTED BY IDOCK:   -4.49 KCAL/MOL
REMARK 922        TOTAL FREE ENERGY PREDICTED BY IDOCK:   -7.04 KCAL/MOL
REMARK 923 INTER-LIGAND FREE ENERGY PREDICTED BY IDOCK:   -7.00 KCAL/MOL
REMARK 924 INTRA-LIGAND FREE ENERGY PREDICTED BY IDOCK:   -0.04 KCAL/MOL
REMARK 927      BINDING AFFINITY PREDICTED BY RF-SCORE:    0.00 PKD
ROOT
HETATM    1  O   UNL     1     -10.074  14.599  65.437  1.00  0.00    -0.349 OA 
HETATM    2  C   UNL     1     -10.641  15.241  66.317  1.00  0.00    -0.309 C  
HETATM    3  C   UNL     1     -10.534  16.742  66.384  1.00  0.00    -0.269 C  
HETATM    4  C   UNL     1     -10.328  17.270  67.808  1.00  0.00    -0.356 C  
HETATM    5  C   UNL     1     -11.296  16.580  68.770  1.00  0.00    -0.221 C  
HETATM    6  C   UNL     1     -10.564  18.801  67.814  1.00  0.00    -0.452 C  
HETATM    7  C   UNL     1     -11.327  15.085  68.584  1.00  0.00    -0.296 C  
HETATM    8  C   UNL     1      -9.281  19.428  68.339  1.00  0.00    -0.415 C  
HETATM    9  N   UNL     1     -11.487  14.698  67.267  1.00  0.00    -0.360 N  
HETATM   10  C   UNL     1      -8.202  18.428  67.969  1.00  0.00    -0.286 C  
HETATM   11  O   UNL     1     -11.277  14.315  69.539  1.00  0.00    -0.253 OA 
HETATM   12  C   UNL     1      -8.862  17.088  68.260  1.00  0.00    -0.242 C  
ENDROOT
BRANCH   9  13
HETATM   13  C   UNL     1     -12.010  13.369  67.014  1.00  0.00    -0.379 C  
BRANCH  13  14
HETATM   14  C   UNL     1     -11.037  12.315  67.555  1.00  0.00    -0.326 C  
BRANCH  14  15
HETATM   15  C   UNL     1     -11.742  11.196  68.312  1.00  0.00    -0.323 C  
BRANCH  15  16
HETATM   16  C   UNL     1     -10.880  10.563  69.411  1.00  0.00    -0.249 C  
BRANCH  16  17
HETATM   17  N   UNL     1     -10.803   9.091  69.331  1.00  0.00    -0.186 NA 
HETATM   18  C   UNL     1      -9.405   8.601  69.236  1.00  0.00    -0.153 C  
HETATM   19  C   UNL     1      -8.530   8.955  70.459  1.00  0.00    -0.177 C  
HETATM   20  N   UNL     1      -9.172   8.502  71.697  1.00  0.00    -0.212 NA 
HETATM   21  C   UNL     1     -11.392   8.475  70.548  1.00  0.00    -0.217 C  
HETATM   22  C   UNL     1     -10.608   8.747  71.853  1.00  0.00    -0.354 C  
BRANCH  20  23
HETATM   23  C   UNL     1      -8.577   7.459  72.365  1.00  0.00    -0.116 A  
HETATM   24  N   UNL     1      -7.360   7.664  72.905  1.00  0.00    -0.077 NA 
HETATM   25  C   UNL     1      -6.808   6.666  73.614  1.00  0.00    -0.076 A  
HETATM   26  C   UNL     1      -7.406   5.446  73.795  1.00  0.00    -0.087 A  
HETATM   27  C   UNL     1      -8.635   5.316  73.202  1.00  0.00    -0.117 A  
HETATM   28  N   UNL     1      -9.235   6.296  72.505  1.00  0.00    -0.141 NA 
ENDBRANCH  20  23
ENDBRANCH  16  17
ENDBRANCH  15  16
ENDBRANCH  14  15
ENDBRANCH  13  14
ENDBRANCH   9  13
TORSDOF 6
ENDMDL
MODEL      114
REMARK 921   NORMALIZED FREE ENERGY PREDICTED BY IDOCK:   -4.48 KCAL/MOL
REMARK 922        TOTAL FREE ENERGY PREDICTED BY IDOCK:   -7.02 KCAL/MOL
REMARK 923 INTER-LIGAND FREE ENERGY PREDICTED BY IDOCK:   -6.35 KCAL/MOL
REMARK 924 INTRA-LIGAND FREE ENERGY PREDICTED BY IDOCK:   -0.68 KCAL/MOL
REMARK 927      BINDING AFFINITY PREDICTED BY RF-SCORE:    0.00 PKD
ROOT
HETATM    1  O   UNL     1      -7.667   7.752  68.742  1.00  0.00    -0.108 OA 
HETATM    2  C   UNL     1      -8.354   8.370  69.552  1.00  0.00    -0.120 C  
HETATM    3  C   UNL     1      -8.673   7.796  70.908  1.00  0.00    -0.137 C  
HETATM    4  C   UNL     1     -10.130   8.014  71.328  1.00  0.00    -0.222 C  
HETATM    5  C   UNL     1     -10.550   9.457  71.047  1.00  0.00    -0.400 C  
HETATM    6  C   UNL     1     -10.269   7.697  72.838  1.00  0.00    -0.356 C  
HETATM    7  C   UNL     1     -10.151   9.916  69.668  1.00  0.00    -0.230 C  
HETATM    8  C   UNL     1     -11.320   6.604  72.950  1.00  0.00    -0.172 C  
HETATM    9  N   UNL     1      -8.830   9.655  69.362  1.00  0.00    -0.166 N  
HETATM   10  C   UNL     1     -11.241   5.876  71.621  1.00  0.00    -0.300 C  
HETATM   11  O   UNL     1     -10.935  10.517  68.937  1.00  0.00    -0.215 OA 
HETATM   12  C   UNL     1     -11.067   7.009  70.620  1.00  0.00    -0.307 C  
ENDROOT
BRANCH   9  13
HETATM   13  C   UNL     1      -8.210  10.449  68.319  1.00  0.00    -0.114 C  
BRANCH  13  14
HETATM   14  C   UNL     1      -6.882  11.027  68.824  1.00  0.00    -0.073 C  
BRANCH  14  15
HETATM   15  C   UNL     1      -7.014  12.462  69.315  1.00  0.00     0.021 C  
BRANCH  15  16
HETATM   16  C   UNL     1      -6.630  13.508  68.261  1.00  0.00    -0.107 C  
BRANCH  16  17
HETATM   17  N   UNL     1      -6.339  14.841  68.825  1.00  0.00    -0.084 NA 
HETATM   18  C   UNL     1      -6.105  15.863  67.774  1.00  0.00    -0.146 C  
HETATM   19  C   UNL     1      -7.320  16.105  66.851  1.00  0.00    -0.220 C  
HETATM   20  N   UNL     1      -8.512  16.418  67.644  1.00  0.00    -0.168 NA 
HETATM   21  C   UNL     1      -7.486  15.319  69.641  1.00  0.00    -0.181 C  
HETATM   22  C   UNL     1      -8.774  15.607  68.836  1.00  0.00    -0.215 C  
BRANCH  20  23
HETATM   23  C   UNL     1      -8.995  17.702  67.567  1.00  0.00    -0.235 A  
HETATM   24  N   UNL     1      -8.862  18.361  66.400  1.00  0.00    -0.386 NA 
HETATM   25  C   UNL     1      -9.392  19.591  66.305  1.00  0.00    -0.372 A  
HETATM   26  C   UNL     1     -10.039  20.217  67.338  1.00  0.00    -0.556 A  
HETATM   27  C   UNL     1     -10.120  19.484  68.493  1.00  0.00    -0.445 A  
HETATM   28  N   UNL     1      -9.625  18.241  68.625  1.00  0.00    -0.334 NA 
ENDBRANCH  20  23
ENDBRANCH  16  17
ENDBRANCH  15  16
ENDBRANCH  14  15
ENDBRANCH  13  14
ENDBRANCH   9  13
TORSDOF 6
ENDMDL
MODEL      115
REMARK 921   NORMALIZED FREE ENERGY PREDICTED BY IDOCK:   -4.47 KCAL/MOL
REMARK 922        TOTAL FREE ENERGY PREDICTED BY IDOCK:   -7.01 KCAL/MOL
REMARK 923 INTER-LIGAND FREE ENERGY PREDICTED BY IDOCK:   -6.14 KCAL/MOL
REMARK 924 INTRA-LIGAND FREE ENERGY PREDICTED BY IDOCK:   -0.86 KCAL/MOL
REMARK 927      BINDING AFFINITY PREDICTED BY RF-SCORE:    0.00 PKD
ROOT
HETATM    1  O   UNL     1      -9.703  11.794  68.387  1.00  0.00    -0.194 OA 
HETATM    2  C   UNL     1      -9.886  12.377  67.321  1.00  0.00    -0.207 C  
HETATM    3  C   UNL     1      -9.286  13.734  67.057  1.00  0.00    -0.256 C  
HETATM    4  C   UNL     1     -10.256  14.699  66.367  1.00  0.00    -0.296 C  
HETATM    5  C   UNL     1     -10.965  13.995  65.210  1.00  0.00    -0.335 C  
HETATM    6  C   UNL     1      -9.460  15.922  65.847  1.00  0.00    -0.372 C  
HETATM    7  C   UNL     1     -11.497  12.639  65.598  1.00  0.00    -0.350 C  
HETATM    8  C   UNL     1     -10.087  17.146  66.496  1.00  0.00    -0.313 C  
HETATM    9  N   UNL     1     -10.566  11.846  66.240  1.00  0.00    -0.244 N  
HETATM   10  C   UNL     1     -10.675  16.619  67.791  1.00  0.00    -0.327 C  
HETATM   11  O   UNL     1     -12.634  12.284  65.300  1.00  0.00    -0.583 OA 
HETATM   12  C   UNL     1     -11.271  15.282  67.377  1.00  0.00    -0.311 C  
ENDROOT
BRANCH   9  13
HETATM   13  C   UNL     1     -10.775  10.411  66.222  1.00  0.00    -0.037 C  
BRANCH  13  14
HETATM   14  C   UNL     1      -9.665   9.733  65.410  1.00  0.00    -0.383 C  
BRANCH  14  15
HETATM   15  C   UNL     1      -9.301   8.355  65.947  1.00  0.00    -0.205 C  
BRANCH  15  16
HETATM   16  C   UNL     1      -9.937   8.039  67.306  1.00  0.00    -0.217 C  
BRANCH  16  17
HETATM   17  N   UNL     1      -9.057   8.329  68.456  1.00  0.00    -0.137 NA 
HETATM   18  C   UNL     1      -9.774   8.246  69.753  1.00  0.00    -0.180 C  
HETATM   19  C   UNL     1     -10.349   6.846  70.066  1.00  0.00    -0.200 C  
HETATM   20  N   UNL     1      -9.299   5.828  69.970  1.00  0.00    -0.145 NA 
HETATM   21  C   UNL     1      -7.945   7.345  68.516  1.00  0.00    -0.124 C  
HETATM   22  C   UNL     1      -8.381   5.895  68.829  1.00  0.00    -0.105 C  
BRANCH  20  23
HETATM   23  C   UNL     1      -8.897   5.232  71.141  1.00  0.00    -0.135 A  
HETATM   24  N   UNL     1      -9.438   5.668  72.294  1.00  0.00    -0.145 NA 
HETATM   25  C   UNL     1      -9.095   5.041  73.430  1.00  0.00    -0.121 A  
HETATM   26  C   UNL     1      -8.205   4.000  73.479  1.00  0.00    -0.089 A  
HETATM   27  C   UNL     1      -7.690   3.626  72.266  1.00  0.00    -0.063 A  
HETATM   28  N   UNL     1      -8.024   4.210  71.102  1.00  0.00    -0.070 NA 
ENDBRANCH  20  23
ENDBRANCH  16  17
ENDBRANCH  15  16
ENDBRANCH  14  15
ENDBRANCH  13  14
ENDBRANCH   9  13
TORSDOF 6
ENDMDL
MODEL      116
REMARK 921   NORMALIZED FREE ENERGY PREDICTED BY IDOCK:   -4.44 KCAL/MOL
REMARK 922        TOTAL FREE ENERGY PREDICTED BY IDOCK:   -6.97 KCAL/MOL
REMARK 923 INTER-LIGAND FREE ENERGY PREDICTED BY IDOCK:   -6.81 KCAL/MOL
REMARK 924 INTRA-LIGAND FREE ENERGY PREDICTED BY IDOCK:   -0.16 KCAL/MOL
REMARK 927      BINDING AFFINITY PREDICTED BY RF-SCORE:    0.00 PKD
ROOT
HETATM    1  O   UNL     1      -8.682   9.894  66.142  1.00  0.00    -0.132 OA 
HETATM    2  C   UNL     1      -8.851   9.491  67.290  1.00  0.00    -0.128 C  
HETATM    3  C   UNL     1      -8.488   8.084  67.688  1.00  0.00    -0.131 C  
HETATM    4  C   UNL     1      -9.537   7.421  68.587  1.00  0.00    -0.146 C  
HETATM    5  C   UNL     1      -9.969   8.386  69.691  1.00  0.00    -0.193 C  
HETATM    6  C   UNL     1      -8.929   6.136  69.202  1.00  0.00    -0.126 C  
HETATM    7  C   UNL     1     -10.280   9.764  69.165  1.00  0.00    -0.199 C  
HETATM    8  C   UNL     1      -9.842   4.991  68.786  1.00  0.00    -0.236 C  
HETATM    9  N   UNL     1      -9.295  10.273  68.342  1.00  0.00    -0.139 N  
HETATM   10  C   UNL     1     -10.463   5.466  67.486  1.00  0.00    -0.235 C  
HETATM   11  O   UNL     1     -11.290  10.372  69.508  1.00  0.00    -0.243 OA 
HETATM   12  C   UNL     1     -10.749   6.935  67.760  1.00  0.00    -0.321 C  
ENDROOT
BRANCH   9  13
HETATM   13  C   UNL     1      -9.231  11.712  68.177  1.00  0.00    -0.184 C  
BRANCH  13  14
HETATM   14  C   UNL     1     -10.170  12.149  67.046  1.00  0.00    -0.225 C  
BRANCH  14  15
HETATM   15  C   UNL     1     -11.178  13.201  67.491  1.00  0.00    -0.314 C  
BRANCH  15  16
HETATM   16  C   UNL     1     -10.782  14.631  67.104  1.00  0.00    -0.292 C  
BRANCH  16  17
HETATM   17  N   UNL     1      -9.830  15.258  68.042  1.00  0.00    -0.215 NA 
HETATM   18  C   UNL     1      -8.475  15.417  67.454  1.00  0.00    -0.181 C  
HETATM   19  C   UNL     1      -8.433  16.333  66.211  1.00  0.00    -0.334 C  
HETATM   20  N   UNL     1      -9.041  17.633  66.511  1.00  0.00    -0.274 NA 
HETATM   21  C   UNL     1     -10.296  16.618  68.419  1.00  0.00    -0.299 C  
HETATM   22  C   UNL     1     -10.299  17.644  67.262  1.00  0.00    -0.354 C  
BRANCH  20  23
HETATM   23  C   UNL     1      -8.202  18.719  66.560  1.00  0.00    -0.291 A  
HETATM   24  N   UNL     1      -8.149  19.430  67.702  1.00  0.00    -0.276 NA 
HETATM   25  C   UNL     1      -7.280  20.451  67.772  1.00  0.00    -0.299 A  
HETATM   26  C   UNL     1      -6.464  20.820  66.736  1.00  0.00    -0.338 A  
HETATM   27  C   UNL     1      -6.588  20.055  65.606  1.00  0.00    -0.256 A  
HETATM   28  N   UNL     1      -7.427  19.010  65.500  1.00  0.00    -0.454 NA 
ENDBRANCH  20  23
ENDBRANCH  16  17
ENDBRANCH  15  16
ENDBRANCH  14  15
ENDBRANCH  13  14
ENDBRANCH   9  13
TORSDOF 6
ENDMDL
MODEL      117
REMARK 921   NORMALIZED FREE ENERGY PREDICTED BY IDOCK:   -4.44 KCAL/MOL
REMARK 922        TOTAL FREE ENERGY PREDICTED BY IDOCK:   -6.97 KCAL/MOL
REMARK 923 INTER-LIGAND FREE ENERGY PREDICTED BY IDOCK:   -5.68 KCAL/MOL
REMARK 924 INTRA-LIGAND FREE ENERGY PREDICTED BY IDOCK:   -1.29 KCAL/MOL
REMARK 927      BINDING AFFINITY PREDICTED BY RF-SCORE:    0.00 PKD
ROOT
HETATM    1  O   UNL     1      -7.767  12.269  67.544  1.00  0.00    -0.137 OA 
HETATM    2  C   UNL     1      -8.428  11.287  67.214  1.00  0.00    -0.144 C  
HETATM    3  C   UNL     1      -7.840   9.901  67.248  1.00  0.00    -0.102 C  
HETATM    4  C   UNL     1      -8.210   9.058  66.022  1.00  0.00    -0.113 C  
HETATM    5  C   UNL     1      -9.703   9.194  65.721  1.00  0.00    -0.299 C  
HETATM    6  C   UNL     1      -7.850   7.578  66.305  1.00  0.00    -0.102 C  
HETATM    7  C   UNL     1     -10.168  10.627  65.742  1.00  0.00    -0.252 C  
HETATM    8  C   UNL     1      -6.884   7.157  65.207  1.00  0.00    -0.051 C  
HETATM    9  N   UNL     1      -9.766  11.320  66.867  1.00  0.00    -0.189 N  
HETATM   10  C   UNL     1      -6.208   8.450  64.793  1.00  0.00    -0.064 C  
HETATM   11  O   UNL     1     -10.887  11.084  64.857  1.00  0.00    -0.250 OA 
HETATM   12  C   UNL     1      -7.353   9.452  64.799  1.00  0.00    -0.107 C  
ENDROOT
BRANCH   9  13
HETATM   13  C   UNL     1     -10.524  12.499  67.240  1.00  0.00    -0.220 C  
BRANCH  13  14
HETATM   14  C   UNL     1     -11.111  12.318  68.645  1.00  0.00    -0.291 C  
BRANCH  14  15
HETATM   15  C   UNL     1     -11.852  10.997  68.808  1.00  0.00    -0.352 C  
BRANCH  15  16
HETATM   16  C   UNL     1     -11.520  10.265  70.114  1.00  0.00    -0.309 C  
BRANCH  16  17
HETATM   17  N   UNL     1     -10.288   9.455  70.044  1.00  0.00    -0.216 NA 
HETATM   18  C   UNL     1      -9.722   9.167  71.386  1.00  0.00    -0.268 C  
HETATM   19  C   UNL     1     -10.658   8.345  72.300  1.00  0.00    -0.342 C  
HETATM   20  N   UNL     1     -11.085   7.116  71.625  1.00  0.00    -0.233 NA 
HETATM   21  C   UNL     1     -10.568   8.143  69.405  1.00  0.00    -0.200 C  
HETATM   22  C   UNL     1     -11.495   7.212  70.221  1.00  0.00    -0.247 C  
BRANCH  20  23
HETATM   23  C   UNL     1     -10.597   5.930  72.118  1.00  0.00    -0.219 A  
HETATM   24  N   UNL     1      -9.435   5.465  71.621  1.00  0.00    -0.146 NA 
HETATM   25  C   UNL     1      -8.926   4.341  72.151  1.00  0.00    -0.116 A  
HETATM   26  C   UNL     1      -9.538   3.632  73.151  1.00  0.00    -0.150 A  
HETATM   27  C   UNL     1     -10.722   4.165  73.591  1.00  0.00    -0.238 A  
HETATM   28  N   UNL     1     -11.256   5.300  73.106  1.00  0.00    -0.319 NA 
ENDBRANCH  20  23
ENDBRANCH  16  17
ENDBRANCH  15  16
ENDBRANCH  14  15
ENDBRANCH  13  14
ENDBRANCH   9  13
TORSDOF 6
ENDMDL
MODEL      118
REMARK 921   NORMALIZED FREE ENERGY PREDICTED BY IDOCK:   -4.44 KCAL/MOL
REMARK 922        TOTAL FREE ENERGY PREDICTED BY IDOCK:   -6.97 KCAL/MOL
REMARK 923 INTER-LIGAND FREE ENERGY PREDICTED BY IDOCK:   -6.26 KCAL/MOL
REMARK 924 INTRA-LIGAND FREE ENERGY PREDICTED BY IDOCK:   -0.70 KCAL/MOL
REMARK 927      BINDING AFFINITY PREDICTED BY RF-SCORE:    0.00 PKD
ROOT
HETATM    1  O   UNL     1     -12.153  12.439  68.345  1.00  0.00    -0.278 OA 
HETATM    2  C   UNL     1     -11.156  12.066  67.730  1.00  0.00    -0.249 C  
HETATM    3  C   UNL     1     -11.141  10.759  66.983  1.00  0.00    -0.245 C  
HETATM    4  C   UNL     1      -9.839   9.972  67.169  1.00  0.00    -0.231 C  
HETATM    5  C   UNL     1      -8.635  10.901  67.007  1.00  0.00    -0.136 C  
HETATM    6  C   UNL     1      -9.786   8.835  66.118  1.00  0.00    -0.320 C  
HETATM    7  C   UNL     1      -8.786  12.183  67.785  1.00  0.00    -0.172 C  
HETATM    8  C   UNL     1      -9.651   7.538  66.901  1.00  0.00    -0.242 C  
HETATM    9  N   UNL     1     -10.000  12.811  67.580  1.00  0.00    -0.213 N  
HETATM   10  C   UNL     1     -10.296   7.843  68.239  1.00  0.00    -0.239 C  
HETATM   11  O   UNL     1      -7.874  12.630  68.475  1.00  0.00    -0.137 OA 
HETATM   12  C   UNL     1      -9.815   9.255  68.537  1.00  0.00    -0.173 C  
ENDROOT
BRANCH   9  13
HETATM   13  C   UNL     1     -10.080  14.232  67.858  1.00  0.00    -0.233 C  
BRANCH  13  14
HETATM   14  C   UNL     1     -10.770  14.952  66.693  1.00  0.00    -0.312 C  
BRANCH  14  15
HETATM   15  C   UNL     1      -9.795  15.382  65.605  1.00  0.00    -0.387 C  
BRANCH  15  16
HETATM   16  C   UNL     1      -8.520  16.036  66.150  1.00  0.00    -0.212 C  
BRANCH  16  17
HETATM   17  N   UNL     1      -8.695  17.452  66.532  1.00  0.00    -0.253 NA 
HETATM   18  C   UNL     1      -9.073  17.612  67.959  1.00  0.00    -0.267 C  
HETATM   19  C   UNL     1      -8.013  17.085  68.952  1.00  0.00    -0.217 C  
HETATM   20  N   UNL     1      -6.706  17.687  68.675  1.00  0.00    -0.208 NA 
HETATM   21  C   UNL     1      -7.426  18.200  66.337  1.00  0.00    -0.252 C  
HETATM   22  C   UNL     1      -6.275  17.775  67.278  1.00  0.00    -0.151 C  
BRANCH  20  23
HETATM   23  C   UNL     1      -6.218  18.577  69.602  1.00  0.00    -0.232 A  
HETATM   24  N   UNL     1      -5.947  18.119  70.839  1.00  0.00     0.303 NA 
HETATM   25  C   UNL     1      -5.409  18.973  71.725  1.00  0.00    -0.273 A  
HETATM   26  C   UNL     1      -5.145  20.288  71.442  1.00  0.00    -0.345 A  
HETATM   27  C   UNL     1      -5.462  20.676  70.167  1.00  0.00    -0.323 A  
HETATM   28  N   UNL     1      -5.979  19.849  69.241  1.00  0.00    -0.265 NA 
ENDBRANCH  20  23
ENDBRANCH  16  17
ENDBRANCH  15  16
ENDBRANCH  14  15
ENDBRANCH  13  14
ENDBRANCH   9  13
TORSDOF 6
ENDMDL
MODEL      119
REMARK 921   NORMALIZED FREE ENERGY PREDICTED BY IDOCK:   -4.43 KCAL/MOL
REMARK 922        TOTAL FREE ENERGY PREDICTED BY IDOCK:   -6.96 KCAL/MOL
REMARK 923 INTER-LIGAND FREE ENERGY PREDICTED BY IDOCK:   -6.46 KCAL/MOL
REMARK 924 INTRA-LIGAND FREE ENERGY PREDICTED BY IDOCK:   -0.51 KCAL/MOL
REMARK 927      BINDING AFFINITY PREDICTED BY RF-SCORE:    0.00 PKD
ROOT
HETATM    1  O   UNL     1      -6.915   7.653  67.177  1.00  0.00    -0.075 OA 
HETATM    2  C   UNL     1      -7.869   7.915  67.905  1.00  0.00    -0.127 C  
HETATM    3  C   UNL     1      -8.048   7.234  69.237  1.00  0.00    -0.124 C  
HETATM    4  C   UNL     1      -9.498   6.822  69.513  1.00  0.00    -0.148 C  
HETATM    5  C   UNL     1     -10.447   7.968  69.164  1.00  0.00    -0.217 C  
HETATM    6  C   UNL     1      -9.635   6.446  71.010  1.00  0.00    -0.188 C  
HETATM    7  C   UNL     1     -10.146   8.579  67.820  1.00  0.00    -0.211 C  
HETATM    8  C   UNL     1     -10.147   5.014  71.044  1.00  0.00    -0.297 C  
HETATM    9  N   UNL     1      -8.812   8.893  67.645  1.00  0.00    -0.134 N  
HETATM   10  C   UNL     1      -9.650   4.411  69.744  1.00  0.00    -0.276 C  
HETATM   11  O   UNL     1     -11.035   8.818  67.007  1.00  0.00    -0.084 OA 
HETATM   12  C   UNL     1      -9.866   5.535  68.741  1.00  0.00    -0.206 C  
ENDROOT
BRANCH   9  13
HETATM   13  C   UNL     1      -8.479   9.893  66.649  1.00  0.00    -0.125 C  
BRANCH  13  14
HETATM   14  C   UNL     1      -8.270  11.253  67.326  1.00  0.00    -0.140 C  
BRANCH  14  15
HETATM   15  C   UNL     1      -9.323  11.551  68.386  1.00  0.00    -0.194 C  
BRANCH  15  16
HETATM   16  C   UNL     1      -9.758  13.021  68.420  1.00  0.00    -0.192 C  
BRANCH  16  17
HETATM   17  N   UNL     1      -9.001  13.887  67.495  1.00  0.00    -0.186 NA 
HETATM   18  C   UNL     1      -9.883  14.602  66.538  1.00  0.00    -0.275 C  
HETATM   19  C   UNL     1     -10.890  15.563  67.209  1.00  0.00    -0.313 C  
HETATM   20  N   UNL     1     -10.192  16.499  68.095  1.00  0.00    -0.260 NA 
HETATM   21  C   UNL     1      -8.256  14.926  68.252  1.00  0.00    -0.145 C  
HETATM   22  C   UNL     1      -9.148  15.964  68.972  1.00  0.00    -0.240 C  
BRANCH  20  23
HETATM   23  C   UNL     1     -10.155  17.817  67.708  1.00  0.00    -0.345 A  
HETATM   24  N   UNL     1     -10.125  18.091  66.390  1.00  0.00    -0.369 NA 
HETATM   25  C   UNL     1     -10.155  19.379  66.012  1.00  0.00    -0.410 A  
HETATM   26  C   UNL     1     -10.192  20.426  66.896  1.00  0.00    -0.417 A  
HETATM   27  C   UNL     1     -10.207  20.062  68.216  1.00  0.00    -0.392 A  
HETATM   28  N   UNL     1     -10.202  18.786  68.639  1.00  0.00    -0.365 NA 
ENDBRANCH  20  23
ENDBRANCH  16  17
ENDBRANCH  15  16
ENDBRANCH  14  15
ENDBRANCH  13  14
ENDBRANCH   9  13
TORSDOF 6
ENDMDL
MODEL      120
REMARK 921   NORMALIZED FREE ENERGY PREDICTED BY IDOCK:   -4.43 KCAL/MOL
REMARK 922        TOTAL FREE ENERGY PREDICTED BY IDOCK:   -6.95 KCAL/MOL
REMARK 923 INTER-LIGAND FREE ENERGY PREDICTED BY IDOCK:   -6.31 KCAL/MOL
REMARK 924 INTRA-LIGAND FREE ENERGY PREDICTED BY IDOCK:   -0.64 KCAL/MOL
REMARK 927      BINDING AFFINITY PREDICTED BY RF-SCORE:    0.00 PKD
ROOT
HETATM    1  O   UNL     1     -13.440   7.448  71.499  1.00  0.00    -0.376 OA 
HETATM    2  C   UNL     1     -12.343   7.677  70.995  1.00  0.00    -0.208 C  
HETATM    3  C   UNL     1     -11.767   6.779  69.932  1.00  0.00    -0.279 C  
HETATM    4  C   UNL     1     -10.273   6.497  70.125  1.00  0.00    -0.226 C  
HETATM    5  C   UNL     1      -9.529   7.794  70.444  1.00  0.00    -0.164 C  
HETATM    6  C   UNL     1      -9.711   5.860  68.829  1.00  0.00    -0.161 C  
HETATM    7  C   UNL     1     -10.222   8.612  71.504  1.00  0.00    -0.274 C  
HETATM    8  C   UNL     1      -9.119   4.519  69.236  1.00  0.00    -0.167 C  
HETATM    9  N   UNL     1     -11.570   8.792  71.266  1.00  0.00    -0.277 N  
HETATM   10  C   UNL     1      -9.910   4.122  70.468  1.00  0.00    -0.252 C  
HETATM   11  O   UNL     1      -9.604   9.107  72.443  1.00  0.00    -0.130 OA 
HETATM   12  C   UNL     1     -10.046   5.435  71.225  1.00  0.00    -0.270 C  
ENDROOT
BRANCH   9  13
HETATM   13  C   UNL     1     -12.223   9.918  71.905  1.00  0.00    -0.251 C  
BRANCH  13  14
HETATM   14  C   UNL     1     -12.023  11.183  71.062  1.00  0.00    -0.268 C  
BRANCH  14  15
HETATM   15  C   UNL     1     -13.029  12.278  71.395  1.00  0.00    -0.354 C  
BRANCH  15  16
HETATM   16  C   UNL     1     -12.669  13.643  70.794  1.00  0.00    -0.268 C  
BRANCH  16  17
HETATM   17  N   UNL     1     -11.274  13.734  70.321  1.00  0.00     0.110 NA 
HETATM   18  C   UNL     1     -11.184  13.869  68.845  1.00  0.00    -0.271 C  
HETATM   19  C   UNL     1     -11.853  15.146  68.288  1.00  0.00    -0.250 C  
HETATM   20  N   UNL     1     -11.330  16.336  68.966  1.00  0.00    -0.325 NA 
HETATM   21  C   UNL     1     -10.608  14.929  70.902  1.00  0.00     0.328 C  
HETATM   22  C   UNL     1     -11.179  16.284  70.423  1.00  0.00    -0.324 C  
BRANCH  20  23
HETATM   23  C   UNL     1     -10.543  17.183  68.224  1.00  0.00    -0.375 A  
HETATM   24  N   UNL     1      -9.206  17.081  68.348  1.00  0.00    -0.251 NA 
HETATM   25  C   UNL     1      -8.438  17.863  67.573  1.00  0.00    -0.232 A  
HETATM   26  C   UNL     1      -8.943  18.775  66.684  1.00  0.00    -0.315 A  
HETATM   27  C   UNL     1     -10.311  18.826  66.628  1.00  0.00    -0.420 A  
HETATM   28  N   UNL     1     -11.118  18.045  67.367  1.00  0.00    -0.060 NA 
ENDBRANCH  20  23
ENDBRANCH  16  17
ENDBRANCH  15  16
ENDBRANCH  14  15
ENDBRANCH  13  14
ENDBRANCH   9  13
TORSDOF 6
ENDMDL
MODEL      121
REMARK 921   NORMALIZED FREE ENERGY PREDICTED BY IDOCK:   -4.42 KCAL/MOL
REMARK 922        TOTAL FREE ENERGY PREDICTED BY IDOCK:   -6.95 KCAL/MOL
REMARK 923 INTER-LIGAND FREE ENERGY PREDICTED BY IDOCK:   -6.76 KCAL/MOL
REMARK 924 INTRA-LIGAND FREE ENERGY PREDICTED BY IDOCK:   -0.19 KCAL/MOL
REMARK 927      BINDING AFFINITY PREDICTED BY RF-SCORE:    0.00 PKD
ROOT
HETATM    1  O   UNL     1     -10.257  10.643  68.017  1.00  0.00    -0.165 OA 
HETATM    2  C   UNL     1     -10.918  11.679  68.014  1.00  0.00    -0.224 C  
HETATM    3  C   UNL     1     -10.800  12.678  66.893  1.00  0.00    -0.282 C  
HETATM    4  C   UNL     1     -10.760  14.131  67.381  1.00  0.00    -0.284 C  
HETATM    5  C   UNL     1     -11.844  14.362  68.433  1.00  0.00    -0.354 C  
HETATM    6  C   UNL     1     -10.975  15.072  66.169  1.00  0.00    -0.334 C  
HETATM    7  C   UNL     1     -11.872  13.280  69.482  1.00  0.00    -0.327 C  
HETATM    8  C   UNL     1      -9.757  15.981  66.114  1.00  0.00    -0.353 C  
HETATM    9  N   UNL     1     -11.878  12.004  68.955  1.00  0.00    -0.307 N  
HETATM   10  C   UNL     1      -8.654  15.162  66.757  1.00  0.00    -0.297 C  
HETATM   11  O   UNL     1     -11.946  13.545  70.679  1.00  0.00    -0.316 OA 
HETATM   12  C   UNL     1      -9.361  14.494  67.927  1.00  0.00    -0.201 C  
ENDROOT
BRANCH   9  13
HETATM   13  C   UNL     1     -12.383  10.931  69.790  1.00  0.00    -0.256 C  
BRANCH  13  14
HETATM   14  C   UNL     1     -11.261  10.400  70.691  1.00  0.00    -0.358 C  
BRANCH  14  15
HETATM   15  C   UNL     1     -11.726   9.278  71.611  1.00  0.00    -0.462 C  
BRANCH  15  16
HETATM   16  C   UNL     1     -11.476   7.876  71.042  1.00  0.00    -0.280 C  
BRANCH  16  17
HETATM   17  N   UNL     1     -10.105   7.678  70.532  1.00  0.00    -0.188 NA 
HETATM   18  C   UNL     1      -9.409   6.550  71.201  1.00  0.00    -0.163 C  
HETATM   19  C   UNL     1     -10.088   5.178  70.991  1.00  0.00    -0.227 C  
HETATM   20  N   UNL     1     -10.281   4.915  69.562  1.00  0.00    -0.222 NA 
HETATM   21  C   UNL     1     -10.135   7.363  69.080  1.00  0.00    -0.193 C  
HETATM   22  C   UNL     1     -10.787   6.007  68.726  1.00  0.00    -0.322 C  
BRANCH  20  23
HETATM   23  C   UNL     1      -9.520   3.917  69.002  1.00  0.00    -0.170 A  
HETATM   24  N   UNL     1      -9.454   3.847  67.659  1.00  0.00    -0.188 NA 
HETATM   25  C   UNL     1      -8.657   2.913  67.114  1.00  0.00    -0.105 A  
HETATM   26  C   UNL     1      -7.930   2.016  67.851  1.00  0.00    -0.061 A  
HETATM   27  C   UNL     1      -8.063   2.147  69.208  1.00  0.00    -0.044 A  
HETATM   28  N   UNL     1      -8.830   3.081  69.797  1.00  0.00    -0.075 NA 
ENDBRANCH  20  23
ENDBRANCH  16  17
ENDBRANCH  15  16
ENDBRANCH  14  15
ENDBRANCH  13  14
ENDBRANCH   9  13
TORSDOF 6
ENDMDL
MODEL      122
REMARK 921   NORMALIZED FREE ENERGY PREDICTED BY IDOCK:   -4.40 KCAL/MOL
REMARK 922        TOTAL FREE ENERGY PREDICTED BY IDOCK:   -6.91 KCAL/MOL
REMARK 923 INTER-LIGAND FREE ENERGY PREDICTED BY IDOCK:   -5.96 KCAL/MOL
REMARK 924 INTRA-LIGAND FREE ENERGY PREDICTED BY IDOCK:   -0.96 KCAL/MOL
REMARK 927      BINDING AFFINITY PREDICTED BY RF-SCORE:    0.00 PKD
ROOT
HETATM    1  O   UNL     1     -11.549  14.813  65.737  1.00  0.00    -0.347 OA 
HETATM    2  C   UNL     1     -11.068  15.089  66.833  1.00  0.00    -0.331 C  
HETATM    3  C   UNL     1     -10.993  16.513  67.319  1.00  0.00    -0.084 C  
HETATM    4  C   UNL     1      -9.660  16.850  67.996  1.00  0.00    -0.247 C  
HETATM    5  C   UNL     1      -9.270  15.741  68.973  1.00  0.00    -0.243 C  
HETATM    6  C   UNL     1      -9.806  18.200  68.744  1.00  0.00    -0.362 C  
HETATM    7  C   UNL     1      -9.413  14.366  68.373  1.00  0.00    -0.207 C  
HETATM    8  C   UNL     1      -8.741  19.122  68.169  1.00  0.00    -0.360 C  
HETATM    9  N   UNL     1     -10.632  14.158  67.759  1.00  0.00    -0.241 N  
HETATM   10  C   UNL     1      -8.518  18.600  66.763  1.00  0.00    -0.292 C  
HETATM   11  O   UNL     1      -8.534  13.516  68.492  1.00  0.00    -0.157 OA 
HETATM   12  C   UNL     1      -8.551  17.090  66.948  1.00  0.00    -0.250 C  
ENDROOT
BRANCH   9  13
HETATM   13  C   UNL     1     -11.076  12.788  67.587  1.00  0.00    -0.258 C  
BRANCH  13  14
HETATM   14  C   UNL     1     -11.687  12.270  68.895  1.00  0.00    -0.380 C  
BRANCH  14  15
HETATM   15  C   UNL     1     -11.614  10.754  69.019  1.00  0.00    -0.370 C  
BRANCH  15  16
HETATM   16  C   UNL     1     -10.189  10.199  68.917  1.00  0.00    -0.199 C  
BRANCH  16  17
HETATM   17  N   UNL     1     -10.118   8.849  68.324  1.00  0.00    -0.180 NA 
HETATM   18  C   UNL     1     -10.652   8.810  66.938  1.00  0.00    -0.193 C  
HETATM   19  C   UNL     1      -9.875   9.697  65.940  1.00  0.00    -0.288 C  
HETATM   20  N   UNL     1      -8.445   9.375  65.972  1.00  0.00    -0.122 NA 
HETATM   21  C   UNL     1      -8.707   8.388  68.253  1.00  0.00    -0.143 C  
HETATM   22  C   UNL     1      -7.813   9.191  67.281  1.00  0.00    -0.099 C  
BRANCH  20  23
HETATM   23  C   UNL     1      -7.919   8.758  64.862  1.00  0.00    -0.135 A  
HETATM   24  N   UNL     1      -6.805   8.018  65.015  1.00  0.00    -0.054 NA 
HETATM   25  C   UNL     1      -6.329   7.363  63.944  1.00  0.00    -0.048 A  
HETATM   26  C   UNL     1      -6.904   7.428  62.702  1.00  0.00    -0.070 A  
HETATM   27  C   UNL     1      -8.024   8.213  62.628  1.00  0.00    -0.156 A  
HETATM   28  N   UNL     1      -8.549   8.866  63.680  1.00  0.00    -0.140 NA 
ENDBRANCH  20  23
ENDBRANCH  16  17
ENDBRANCH  15  16
ENDBRANCH  14  15
ENDBRANCH  13  14
ENDBRANCH   9  13
TORSDOF 6
ENDMDL
MODEL      123
REMARK 921   NORMALIZED FREE ENERGY PREDICTED BY IDOCK:   -4.37 KCAL/MOL
REMARK 922        TOTAL FREE ENERGY PREDICTED BY IDOCK:   -6.88 KCAL/MOL
REMARK 923 INTER-LIGAND FREE ENERGY PREDICTED BY IDOCK:   -6.57 KCAL/MOL
REMARK 924 INTRA-LIGAND FREE ENERGY PREDICTED BY IDOCK:   -0.31 KCAL/MOL
REMARK 927      BINDING AFFINITY PREDICTED BY RF-SCORE:    0.00 PKD
ROOT
HETATM    1  O   UNL     1     -10.245   5.124  68.569  1.00  0.00    -0.164 OA 
HETATM    2  C   UNL     1      -9.674   5.674  69.507  1.00  0.00    -0.154 C  
HETATM    3  C   UNL     1      -9.387   4.938  70.790  1.00  0.00    -0.211 C  
HETATM    4  C   UNL     1      -9.667   5.776  72.042  1.00  0.00    -0.177 C  
HETATM    5  C   UNL     1      -9.082   7.179  71.878  1.00  0.00    -0.144 C  
HETATM    6  C   UNL     1      -9.037   5.071  73.269  1.00  0.00    -0.125 C  
HETATM    7  C   UNL     1      -9.420   7.794  70.544  1.00  0.00    -0.163 C  
HETATM    8  C   UNL     1     -10.173   4.826  74.250  1.00  0.00    -0.289 C  
HETATM    9  N   UNL     1      -9.164   6.960  69.474  1.00  0.00    -0.148 N  
HETATM   10  C   UNL     1     -11.407   4.733  73.373  1.00  0.00    -0.397 C  
HETATM   11  O   UNL     1      -9.823   8.950  70.451  1.00  0.00    -0.171 OA 
HETATM   12  C   UNL     1     -11.181   5.832  72.346  1.00  0.00    -0.343 C  
ENDROOT
BRANCH   9  13
HETATM   13  C   UNL     1      -8.980   7.570  68.171  1.00  0.00    -0.129 C  
BRANCH  13  14
HETATM   14  C   UNL     1     -10.330   8.052  67.626  1.00  0.00    -0.312 C  
BRANCH  14  15
HETATM   15  C   UNL     1     -10.205   8.757  66.282  1.00  0.00    -0.157 C  
BRANCH  15  16
HETATM   16  C   UNL     1     -10.499  10.260  66.349  1.00  0.00    -0.163 C  
BRANCH  16  17
HETATM   17  N   UNL     1     -10.314  10.842  67.692  1.00  0.00    -0.189 NA 
HETATM   18  C   UNL     1      -9.198  11.821  67.737  1.00  0.00    -0.181 C  
HETATM   19  C   UNL     1      -9.402  13.050  66.822  1.00  0.00    -0.244 C  
HETATM   20  N   UNL     1     -10.689  13.692  67.106  1.00  0.00    -0.275 NA 
HETATM   21  C   UNL     1     -11.539  11.569  68.115  1.00  0.00    -0.308 C  
HETATM   22  C   UNL     1     -11.861  12.831  67.281  1.00  0.00    -0.350 C  
BRANCH  20  23
HETATM   23  C   UNL     1     -10.651  14.931  67.701  1.00  0.00    -0.264 A  
HETATM   24  N   UNL     1     -10.632  14.989  69.046  1.00  0.00    -0.237 NA 
HETATM   25  C   UNL     1     -10.528  16.196  69.625  1.00  0.00    -0.291 A  
HETATM   26  C   UNL     1     -10.465  17.369  68.920  1.00  0.00    -0.312 A  
HETATM   27  C   UNL     1     -10.503  17.224  67.558  1.00  0.00    -0.356 A  
HETATM   28  N   UNL     1     -10.582  16.034  66.936  1.00  0.00    -0.314 NA 
ENDBRANCH  20  23
ENDBRANCH  16  17
ENDBRANCH  15  16
ENDBRANCH  14  15
ENDBRANCH  13  14
ENDBRANCH   9  13
TORSDOF 6
ENDMDL
MODEL      124
REMARK 921   NORMALIZED FREE ENERGY PREDICTED BY IDOCK:   -4.36 KCAL/MOL
REMARK 922        TOTAL FREE ENERGY PREDICTED BY IDOCK:   -6.86 KCAL/MOL
REMARK 923 INTER-LIGAND FREE ENERGY PREDICTED BY IDOCK:   -6.43 KCAL/MOL
REMARK 924 INTRA-LIGAND FREE ENERGY PREDICTED BY IDOCK:   -0.43 KCAL/MOL
REMARK 927      BINDING AFFINITY PREDICTED BY RF-SCORE:    0.00 PKD
ROOT
HETATM    1  O   UNL     1     -12.160  11.164  67.699  1.00  0.00    -0.537 OA 
HETATM    2  C   UNL     1     -11.181  11.899  67.594  1.00  0.00    -0.276 C  
HETATM    3  C   UNL     1     -11.335  13.379  67.362  1.00  0.00    -0.338 C  
HETATM    4  C   UNL     1     -10.354  13.933  66.324  1.00  0.00    -0.293 C  
HETATM    5  C   UNL     1      -8.948  13.394  66.588  1.00  0.00    -0.135 C  
HETATM    6  C   UNL     1     -10.361  15.480  66.402  1.00  0.00    -0.303 C  
HETATM    7  C   UNL     1      -8.935  11.906  66.829  1.00  0.00    -0.196 C  
HETATM    8  C   UNL     1     -10.741  15.975  65.014  1.00  0.00    -0.400 C  
HETATM    9  N   UNL     1      -9.870  11.491  67.757  1.00  0.00    -0.174 N  
HETATM   10  C   UNL     1     -11.568  14.845  64.431  1.00  0.00    -0.296 C  
HETATM   11  O   UNL     1      -8.117  11.172  66.282  1.00  0.00    -0.168 OA 
HETATM   12  C   UNL     1     -10.820  13.602  64.888  1.00  0.00    -0.382 C  
ENDROOT
BRANCH   9  13
HETATM   13  C   UNL     1      -9.643  10.223  68.422  1.00  0.00    -0.149 C  
BRANCH  13  14
HETATM   14  C   UNL     1      -8.476  10.353  69.409  1.00  0.00    -0.145 C  
BRANCH  14  15
HETATM   15  C   UNL     1      -8.599   9.404  70.594  1.00  0.00    -0.247 C  
BRANCH  15  16
HETATM   16  C   UNL     1     -10.014   8.848  70.791  1.00  0.00    -0.226 C  
BRANCH  16  17
HETATM   17  N   UNL     1     -10.301   8.430  72.177  1.00  0.00    -0.299 NA 
HETATM   18  C   UNL     1     -11.422   7.460  72.256  1.00  0.00    -0.288 C  
HETATM   19  C   UNL     1     -11.157   6.132  71.513  1.00  0.00    -0.286 C  
HETATM   20  N   UNL     1      -9.899   5.532  71.966  1.00  0.00    -0.163 NA 
HETATM   21  C   UNL     1      -9.114   7.764  72.772  1.00  0.00    -0.186 C  
HETATM   22  C   UNL     1      -8.738   6.412  72.122  1.00  0.00    -0.132 C  
BRANCH  20  23
HETATM   23  C   UNL     1      -9.987   4.374  72.700  1.00  0.00    -0.164 A  
HETATM   24  N   UNL     1     -11.169   4.071  73.268  1.00  0.00    -0.209 NA 
HETATM   25  C   UNL     1     -11.272   2.907  73.930  1.00  0.00    -0.096 A  
HETATM   26  C   UNL     1     -10.233   2.026  74.075  1.00  0.00    -0.167 A  
HETATM   27  C   UNL     1      -9.063   2.415  73.479  1.00  0.00    -0.083 A  
HETATM   28  N   UNL     1      -8.921   3.559  72.787  1.00  0.00    -0.095 NA 
ENDBRANCH  20  23
ENDBRANCH  16  17
ENDBRANCH  15  16
ENDBRANCH  14  15
ENDBRANCH  13  14
ENDBRANCH   9  13
TORSDOF 6
ENDMDL
MODEL      125
REMARK 921   NORMALIZED FREE ENERGY PREDICTED BY IDOCK:   -4.36 KCAL/MOL
REMARK 922        TOTAL FREE ENERGY PREDICTED BY IDOCK:   -6.86 KCAL/MOL
REMARK 923 INTER-LIGAND FREE ENERGY PREDICTED BY IDOCK:   -6.10 KCAL/MOL
REMARK 924 INTRA-LIGAND FREE ENERGY PREDICTED BY IDOCK:   -0.75 KCAL/MOL
REMARK 927      BINDING AFFINITY PREDICTED BY RF-SCORE:    0.00 PKD
ROOT
HETATM    1  O   UNL     1      -9.551  15.270  69.911  1.00  0.00    -0.207 OA 
HETATM    2  C   UNL     1      -9.145  15.713  68.840  1.00  0.00    -0.217 C  
HETATM    3  C   UNL     1      -7.702  16.102  68.649  1.00  0.00    -0.186 C  
HETATM    4  C   UNL     1      -7.527  17.416  67.881  1.00  0.00    -0.195 C  
HETATM    5  C   UNL     1      -8.439  17.435  66.655  1.00  0.00    -0.291 C  
HETATM    6  C   UNL     1      -6.045  17.553  67.452  1.00  0.00    -0.158 C  
HETATM    7  C   UNL     1      -9.847  17.002  66.975  1.00  0.00    -0.270 C  
HETATM    8  C   UNL     1      -5.546  18.858  68.053  1.00  0.00    -0.188 C  
HETATM    9  N   UNL     1      -9.911  15.824  67.693  1.00  0.00    -0.231 N  
HETATM   10  C   UNL     1      -6.415  19.058  69.280  1.00  0.00    -0.321 C  
HETATM   11  O   UNL     1     -10.822  17.627  66.566  1.00  0.00    -0.148 OA 
HETATM   12  C   UNL     1      -7.793  18.633  68.796  1.00  0.00    -0.319 C  
ENDROOT
BRANCH   9  13
HETATM   13  C   UNL     1     -11.146  15.067  67.640  1.00  0.00    -0.316 C  
BRANCH  13  14
HETATM   14  C   UNL     1     -10.893  13.700  66.992  1.00  0.00    -0.291 C  
BRANCH  14  15
HETATM   15  C   UNL     1     -11.169  12.539  67.939  1.00  0.00    -0.312 C  
BRANCH  15  16
HETATM   16  C   UNL     1     -10.612  11.199  67.444  1.00  0.00    -0.234 C  
BRANCH  16  17
HETATM   17  N   UNL     1      -9.582  10.622  68.330  1.00  0.00    -0.161 NA 
HETATM   18  C   UNL     1     -10.092  10.365  69.701  1.00  0.00    -0.190 C  
HETATM   19  C   UNL     1     -11.251   9.345  69.760  1.00  0.00    -0.114 C  
HETATM   20  N   UNL     1     -10.871   8.098  69.089  1.00  0.00    -0.090 NA 
HETATM   21  C   UNL     1      -9.113   9.316  67.796  1.00  0.00    -0.126 C  
HETATM   22  C   UNL     1     -10.179   8.196  67.802  1.00  0.00    -0.228 C  
BRANCH  20  23
HETATM   23  C   UNL     1     -10.693   6.991  69.883  1.00  0.00    -0.240 A  
HETATM   24  N   UNL     1      -9.702   6.135  69.566  1.00  0.00    -0.144 NA 
HETATM   25  C   UNL     1      -9.486   5.090  70.380  1.00  0.00    -0.169 A  
HETATM   26  C   UNL     1     -10.235   4.836  71.500  1.00  0.00    -0.246 A  
HETATM   27  C   UNL     1     -11.229   5.746  71.744  1.00  0.00    -0.211 A  
HETATM   28  N   UNL     1     -11.466   6.820  70.970  1.00  0.00    -0.305 NA 
ENDBRANCH  20  23
ENDBRANCH  16  17
ENDBRANCH  15  16
ENDBRANCH  14  15
ENDBRANCH  13  14
ENDBRANCH   9  13
TORSDOF 6
ENDMDL
MODEL      126
REMARK 921   NORMALIZED FREE ENERGY PREDICTED BY IDOCK:   -4.35 KCAL/MOL
REMARK 922        TOTAL FREE ENERGY PREDICTED BY IDOCK:   -6.85 KCAL/MOL
REMARK 923 INTER-LIGAND FREE ENERGY PREDICTED BY IDOCK:   -5.70 KCAL/MOL
REMARK 924 INTRA-LIGAND FREE ENERGY PREDICTED BY IDOCK:   -1.15 KCAL/MOL
REMARK 927      BINDING AFFINITY PREDICTED BY RF-SCORE:    0.00 PKD
ROOT
HETATM    1  O   UNL     1     -11.386   6.277  67.906  1.00  0.00    -0.257 OA 
HETATM    2  C   UNL     1     -10.281   5.740  67.871  1.00  0.00    -0.187 C  
HETATM    3  C   UNL     1      -9.324   5.991  66.736  1.00  0.00    -0.148 C  
HETATM    4  C   UNL     1      -8.620   4.721  66.246  1.00  0.00    -0.114 C  
HETATM    5  C   UNL     1      -8.117   3.905  67.437  1.00  0.00    -0.091 C  
HETATM    6  C   UNL     1      -7.437   5.124  65.331  1.00  0.00    -0.077 C  
HETATM    7  C   UNL     1      -9.162   3.748  68.512  1.00  0.00    -0.156 C  
HETATM    8  C   UNL     1      -7.685   4.447  63.991  1.00  0.00    -0.079 C  
HETATM    9  N   UNL     1      -9.764   4.937  68.872  1.00  0.00    -0.162 N  
HETATM   10  C   UNL     1      -9.192   4.292  63.927  1.00  0.00    -0.143 C  
HETATM   11  O   UNL     1      -9.385   2.661  69.039  1.00  0.00    -0.149 OA 
HETATM   12  C   UNL     1      -9.555   3.881  65.346  1.00  0.00    -0.185 C  
ENDROOT
BRANCH   9  13
HETATM   13  C   UNL     1     -10.396   5.006  70.176  1.00  0.00    -0.236 C  
BRANCH  13  14
HETATM   14  C   UNL     1      -9.375   5.461  71.225  1.00  0.00    -0.182 C  
BRANCH  14  15
HETATM   15  C   UNL     1      -9.963   6.440  72.234  1.00  0.00    -0.178 C  
BRANCH  15  16
HETATM   16  C   UNL     1     -10.888   7.487  71.603  1.00  0.00    -0.219 C  
BRANCH  16  17
HETATM   17  N   UNL     1     -10.412   8.875  71.766  1.00  0.00    -0.341 NA 
HETATM   18  C   UNL     1      -9.321   9.216  70.818  1.00  0.00    -0.264 C  
HETATM   19  C   UNL     1      -9.733   9.134  69.331  1.00  0.00    -0.170 C  
HETATM   20  N   UNL     1     -10.928   9.946  69.084  1.00  0.00    -0.220 NA 
HETATM   21  C   UNL     1     -11.517   9.835  71.511  1.00  0.00    -0.323 C  
HETATM   22  C   UNL     1     -12.026   9.860  70.050  1.00  0.00    -0.009 C  
BRANCH  20  23
HETATM   23  C   UNL     1     -10.767  11.080  68.326  1.00  0.00    -0.196 A  
HETATM   24  N   UNL     1      -9.609  11.759  68.435  1.00  0.00    -0.195 NA 
HETATM   25  C   UNL     1      -9.427  12.829  67.645  1.00  0.00    -0.190 A  
HETATM   26  C   UNL     1     -10.365  13.279  66.754  1.00  0.00    -0.257 A  
HETATM   27  C   UNL     1     -11.519  12.542  66.713  1.00  0.00    -0.362 A  
HETATM   28  N   UNL     1     -11.734  11.450  67.468  1.00  0.00    -0.609 NA 
ENDBRANCH  20  23
ENDBRANCH  16  17
ENDBRANCH  15  16
ENDBRANCH  14  15
ENDBRANCH  13  14
ENDBRANCH   9  13
TORSDOF 6
ENDMDL
MODEL      127
REMARK 921   NORMALIZED FREE ENERGY PREDICTED BY IDOCK:   -4.34 KCAL/MOL
REMARK 922        TOTAL FREE ENERGY PREDICTED BY IDOCK:   -6.84 KCAL/MOL
REMARK 923 INTER-LIGAND FREE ENERGY PREDICTED BY IDOCK:   -6.47 KCAL/MOL
REMARK 924 INTRA-LIGAND FREE ENERGY PREDICTED BY IDOCK:   -0.38 KCAL/MOL
REMARK 927      BINDING AFFINITY PREDICTED BY RF-SCORE:    0.00 PKD
ROOT
HETATM    1  O   UNL     1      -9.020  10.265  62.952  1.00  0.00    -0.193 OA 
HETATM    2  C   UNL     1      -9.659  10.425  63.989  1.00  0.00    -0.317 C  
HETATM    3  C   UNL     1     -10.936  11.223  64.008  1.00  0.00    -0.377 C  
HETATM    4  C   UNL     1     -11.048  12.156  65.218  1.00  0.00    -0.367 C  
HETATM    5  C   UNL     1     -10.652  11.412  66.494  1.00  0.00    -0.309 C  
HETATM    6  C   UNL     1     -12.506  12.668  65.324  1.00  0.00    -0.483 C  
HETATM    7  C   UNL     1      -9.372  10.633  66.336  1.00  0.00    -0.169 C  
HETATM    8  C   UNL     1     -12.429  14.187  65.270  1.00  0.00    -0.474 C  
HETATM    9  N   UNL     1      -9.346   9.842  65.204  1.00  0.00    -0.238 N  
HETATM   10  C   UNL     1     -11.162  14.466  64.484  1.00  0.00    -0.314 C  
HETATM   11  O   UNL     1      -8.484  10.674  67.183  1.00  0.00    -0.126 OA 
HETATM   12  C   UNL     1     -10.190  13.426  65.021  1.00  0.00    -0.325 C  
ENDROOT
BRANCH   9  13
HETATM   13  C   UNL     1      -8.431   8.717  65.188  1.00  0.00    -0.174 C  
BRANCH  13  14
HETATM   14  C   UNL     1      -8.573   7.912  66.486  1.00  0.00    -0.149 C  
BRANCH  14  15
HETATM   15  C   UNL     1      -9.909   7.187  66.585  1.00  0.00    -0.237 C  
BRANCH  15  16
HETATM   16  C   UNL     1     -10.638   7.427  67.912  1.00  0.00    -0.190 C  
BRANCH  16  17
HETATM   17  N   UNL     1     -11.078   6.186  68.581  1.00  0.00    -0.347 NA 
HETATM   18  C   UNL     1      -9.976   5.202  68.731  1.00  0.00    -0.166 C  
HETATM   19  C   UNL     1      -8.802   5.700  69.602  1.00  0.00    -0.116 C  
HETATM   20  N   UNL     1      -9.289   6.159  70.906  1.00  0.00    -0.157 NA 
HETATM   21  C   UNL     1     -11.575   6.484  69.949  1.00  0.00    -0.368 C  
HETATM   22  C   UNL     1     -10.495   6.991  70.933  1.00  0.00    -0.214 C  
BRANCH  20  23
HETATM   23  C   UNL     1      -8.954   5.399  72.001  1.00  0.00    -0.134 A  
HETATM   24  N   UNL     1      -9.042   5.967  73.219  1.00  0.00    -0.133 NA 
HETATM   25  C   UNL     1      -8.778   5.204  74.292  1.00  0.00    -0.113 A  
HETATM   26  C   UNL     1      -8.402   3.889  74.211  1.00  0.00    -0.090 A  
HETATM   27  C   UNL     1      -8.323   3.392  72.936  1.00  0.00    -0.081 A  
HETATM   28  N   UNL     1      -8.602   4.112  71.835  1.00  0.00    -0.104 NA 
ENDBRANCH  20  23
ENDBRANCH  16  17
ENDBRANCH  15  16
ENDBRANCH  14  15
ENDBRANCH  13  14
ENDBRANCH   9  13
TORSDOF 6
ENDMDL
MODEL      128
REMARK 921   NORMALIZED FREE ENERGY PREDICTED BY IDOCK:   -4.34 KCAL/MOL
REMARK 922        TOTAL FREE ENERGY PREDICTED BY IDOCK:   -6.83 KCAL/MOL
REMARK 923 INTER-LIGAND FREE ENERGY PREDICTED BY IDOCK:   -7.63 KCAL/MOL
REMARK 924 INTRA-LIGAND FREE ENERGY PREDICTED BY IDOCK:    0.80 KCAL/MOL
REMARK 927      BINDING AFFINITY PREDICTED BY RF-SCORE:    0.00 PKD
ROOT
HETATM    1  O   UNL     1     -11.322   6.932  67.198  1.00  0.00    -0.290 OA 
HETATM    2  C   UNL     1     -10.459   6.892  68.072  1.00  0.00    -0.211 C  
HETATM    3  C   UNL     1     -10.451   5.807  69.116  1.00  0.00    -0.346 C  
HETATM    4  C   UNL     1     -10.142   6.326  70.524  1.00  0.00    -0.230 C  
HETATM    5  C   UNL     1      -8.952   7.285  70.482  1.00  0.00    -0.154 C  
HETATM    6  C   UNL     1      -9.829   5.121  71.446  1.00  0.00    -0.239 C  
HETATM    7  C   UNL     1      -9.070   8.305  69.378  1.00  0.00    -0.154 C  
HETATM    8  C   UNL     1     -10.827   5.191  72.592  1.00  0.00    -0.303 C  
HETATM    9  N   UNL     1      -9.379   7.753  68.150  1.00  0.00    -0.145 N  
HETATM   10  C   UNL     1     -12.023   5.911  71.999  1.00  0.00    -0.141 C  
HETATM   11  O   UNL     1      -8.845   9.496  69.574  1.00  0.00    -0.153 OA 
HETATM   12  C   UNL     1     -11.382   7.000  71.152  1.00  0.00    -0.319 C  
ENDROOT
BRANCH   9  13
HETATM   13  C   UNL     1      -9.048   8.518  66.964  1.00  0.00    -0.143 C  
BRANCH  13  14
HETATM   14  C   UNL     1     -10.286   9.277  66.471  1.00  0.00    -0.270 C  
BRANCH  14  15
HETATM   15  C   UNL     1     -10.875  10.196  67.534  1.00  0.00    -0.349 C  
BRANCH  15  16
HETATM   16  C   UNL     1     -11.014  11.652  67.075  1.00  0.00    -0.288 C  
BRANCH  16  17
HETATM   17  N   UNL     1     -10.840  12.637  68.161  1.00  0.00    -0.218 NA 
HETATM   18  C   UNL     1      -9.594  13.432  68.011  1.00  0.00    -0.219 C  
HETATM   19  C   UNL     1      -9.544  14.284  66.722  1.00  0.00    -0.280 C  
HETATM   20  N   UNL     1     -10.735  15.132  66.621  1.00  0.00    -0.306 NA 
HETATM   21  C   UNL     1     -11.968  13.604  68.168  1.00  0.00    -0.355 C  
HETATM   22  C   UNL     1     -12.034  14.529  66.931  1.00  0.00    -0.346 C  
BRANCH  20  23
HETATM   23  C   UNL     1     -10.552  16.486  66.771  1.00  0.00    -0.224 A  
HETATM   24  N   UNL     1     -10.731  17.273  65.694  1.00  0.00    -0.441 NA 
HETATM   25  C   UNL     1     -10.617  18.601  65.856  1.00  0.00    -0.321 A  
HETATM   26  C   UNL     1     -10.306  19.192  67.053  1.00  0.00    -0.503 A  
HETATM   27  C   UNL     1     -10.127  18.321  68.094  1.00  0.00    -0.379 A  
HETATM   28  N   UNL     1     -10.255  16.987  67.983  1.00  0.00    -0.303 NA 
ENDBRANCH  20  23
ENDBRANCH  16  17
ENDBRANCH  15  16
ENDBRANCH  14  15
ENDBRANCH  13  14
ENDBRANCH   9  13
TORSDOF 6
ENDMDL
MODEL      129
REMARK 921   NORMALIZED FREE ENERGY PREDICTED BY IDOCK:   -4.27 KCAL/MOL
REMARK 922        TOTAL FREE ENERGY PREDICTED BY IDOCK:   -6.74 KCAL/MOL
REMARK 923 INTER-LIGAND FREE ENERGY PREDICTED BY IDOCK:   -6.37 KCAL/MOL
REMARK 924 INTRA-LIGAND FREE ENERGY PREDICTED BY IDOCK:   -0.38 KCAL/MOL
REMARK 927      BINDING AFFINITY PREDICTED BY RF-SCORE:    0.00 PKD
ROOT
HETATM    1  O   UNL     1     -12.531   8.099  71.178  1.00  0.00    -0.280 OA 
HETATM    2  C   UNL     1     -11.479   7.481  71.033  1.00  0.00    -0.278 C  
HETATM    3  C   UNL     1     -11.451   5.975  71.021  1.00  0.00    -0.236 C  
HETATM    4  C   UNL     1     -10.282   5.387  71.820  1.00  0.00    -0.263 C  
HETATM    5  C   UNL     1      -8.988   6.129  71.483  1.00  0.00    -0.143 C  
HETATM    6  C   UNL     1     -10.147   3.883  71.476  1.00  0.00    -0.148 C  
HETATM    7  C   UNL     1      -9.158   7.626  71.505  1.00  0.00    -0.132 C  
HETATM    8  C   UNL     1     -10.276   3.131  72.792  1.00  0.00    -0.238 C  
HETATM    9  N   UNL     1     -10.251   8.066  70.784  1.00  0.00    -0.193 N  
HETATM   10  C   UNL     1     -11.122   4.044  73.659  1.00  0.00    -0.334 C  
HETATM   11  O   UNL     1      -8.348   8.358  72.067  1.00  0.00    -0.150 OA 
HETATM   12  C   UNL     1     -10.573   5.426  73.337  1.00  0.00    -0.297 C  
ENDROOT
BRANCH   9  13
HETATM   13  C   UNL     1     -10.247   9.443  70.328  1.00  0.00    -0.247 C  
BRANCH  13  14
HETATM   14  C   UNL     1     -10.442   9.487  68.807  1.00  0.00    -0.243 C  
BRANCH  14  15
HETATM   15  C   UNL     1      -9.607  10.571  68.138  1.00  0.00    -0.163 C  
BRANCH  15  16
HETATM   16  C   UNL     1     -10.410  11.455  67.175  1.00  0.00    -0.212 C  
BRANCH  16  17
HETATM   17  N   UNL     1      -9.571  12.214  66.227  1.00  0.00    -0.234 NA 
HETATM   18  C   UNL     1     -10.212  13.481  65.791  1.00  0.00    -0.297 C  
HETATM   19  C   UNL     1     -10.475  14.480  66.940  1.00  0.00    -0.269 C  
HETATM   20  N   UNL     1      -9.241  14.735  67.690  1.00  0.00    -0.188 NA 
HETATM   21  C   UNL     1      -8.278  12.583  66.860  1.00  0.00    -0.068 C  
HETATM   22  C   UNL     1      -8.396  13.588  68.030  1.00  0.00    -0.168 C  
BRANCH  20  23
HETATM   23  C   UNL     1      -8.686  15.987  67.572  1.00  0.00    -0.182 A  
HETATM   24  N   UNL     1      -8.113  16.320  66.400  1.00  0.00    -0.309 NA 
HETATM   25  C   UNL     1      -7.630  17.565  66.264  1.00  0.00    -0.308 A  
HETATM   26  C   UNL     1      -7.669  18.504  67.262  1.00  0.00    -0.229 A  
HETATM   27  C   UNL     1      -8.255  18.081  68.426  1.00  0.00    -0.298 A  
HETATM   28  N   UNL     1      -8.773  16.852  68.598  1.00  0.00    -0.260 NA 
ENDBRANCH  20  23
ENDBRANCH  16  17
ENDBRANCH  15  16
ENDBRANCH  14  15
ENDBRANCH  13  14
ENDBRANCH   9  13
TORSDOF 6
ENDMDL
MODEL      130
REMARK 921   NORMALIZED FREE ENERGY PREDICTED BY IDOCK:   -4.27 KCAL/MOL
REMARK 922        TOTAL FREE ENERGY PREDICTED BY IDOCK:   -6.74 KCAL/MOL
REMARK 923 INTER-LIGAND FREE ENERGY PREDICTED BY IDOCK:   -6.16 KCAL/MOL
REMARK 924 INTRA-LIGAND FREE ENERGY PREDICTED BY IDOCK:   -0.58 KCAL/MOL
REMARK 927      BINDING AFFINITY PREDICTED BY RF-SCORE:    0.00 PKD
ROOT
HETATM    1  O   UNL     1      -7.883   8.423  71.211  1.00  0.00    -0.090 OA 
HETATM    2  C   UNL     1      -8.845   9.029  70.746  1.00  0.00    -0.234 C  
HETATM    3  C   UNL     1     -10.125   9.183  71.525  1.00  0.00    -0.381 C  
HETATM    4  C   UNL     1     -11.380   8.971  70.673  1.00  0.00    -0.311 C  
HETATM    5  C   UNL     1     -11.254   9.729  69.351  1.00  0.00    -0.154 C  
HETATM    6  C   UNL     1     -12.614   9.472  71.465  1.00  0.00    -0.462 C  
HETATM    7  C   UNL     1      -9.919   9.510  68.685  1.00  0.00    -0.167 C  
HETATM    8  C   UNL     1     -13.559   8.285  71.577  1.00  0.00    -0.337 C  
HETATM    9  N   UNL     1      -8.845   9.694  69.533  1.00  0.00    -0.174 N  
HETATM   10  C   UNL     1     -12.645   7.076  71.508  1.00  0.00    -0.426 C  
HETATM   11  O   UNL     1      -9.832   9.255  67.487  1.00  0.00    -0.158 OA 
HETATM   12  C   UNL     1     -11.641   7.467  70.434  1.00  0.00    -0.210 C  
ENDROOT
BRANCH   9  13
HETATM   13  C   UNL     1      -7.557   9.991  68.935  1.00  0.00    -0.086 C  
BRANCH  13  14
HETATM   14  C   UNL     1      -7.518  11.457  68.486  1.00  0.00    -0.113 C  
BRANCH  14  15
HETATM   15  C   UNL     1      -6.363  12.232  69.106  1.00  0.00    -0.095 C  
BRANCH  15  16
HETATM   16  C   UNL     1      -6.631  13.737  69.231  1.00  0.00    -0.113 C  
BRANCH  16  17
HETATM   17  N   UNL     1      -6.613  14.453  67.940  1.00  0.00    -0.153 NA 
HETATM   18  C   UNL     1      -7.777  15.360  67.779  1.00  0.00    -0.145 C  
HETATM   19  C   UNL     1      -7.844  16.490  68.831  1.00  0.00    -0.240 C  
HETATM   20  N   UNL     1      -6.583  17.237  68.863  1.00  0.00    -0.201 NA 
HETATM   21  C   UNL     1      -5.393  15.295  67.834  1.00  0.00    -0.113 C  
HETATM   22  C   UNL     1      -5.333  16.474  68.832  1.00  0.00    -0.122 C  
BRANCH  20  23
HETATM   23  C   UNL     1      -6.611  18.529  68.396  1.00  0.00    -0.226 A  
HETATM   24  N   UNL     1      -5.775  19.424  68.955  1.00  0.00    -0.212 NA 
HETATM   25  C   UNL     1      -5.756  20.670  68.453  1.00  0.00    -0.310 A  
HETATM   26  C   UNL     1      -6.558  21.081  67.421  1.00  0.00    -0.439 A  
HETATM   27  C   UNL     1      -7.388  20.115  66.918  1.00  0.00    -0.265 A  
HETATM   28  N   UNL     1      -7.423  18.850  67.373  1.00  0.00    -0.229 NA 
ENDBRANCH  20  23
ENDBRANCH  16  17
ENDBRANCH  15  16
ENDBRANCH  14  15
ENDBRANCH  13  14
ENDBRANCH   9  13
TORSDOF 6
ENDMDL
MODEL      131
REMARK 921   NORMALIZED FREE ENERGY PREDICTED BY IDOCK:   -4.26 KCAL/MOL
REMARK 922        TOTAL FREE ENERGY PREDICTED BY IDOCK:   -6.72 KCAL/MOL
REMARK 923 INTER-LIGAND FREE ENERGY PREDICTED BY IDOCK:   -6.56 KCAL/MOL
REMARK 924 INTRA-LIGAND FREE ENERGY PREDICTED BY IDOCK:   -0.16 KCAL/MOL
REMARK 927      BINDING AFFINITY PREDICTED BY RF-SCORE:    0.00 PKD
ROOT
HETATM    1  O   UNL     1      -6.663  17.591  66.208  1.00  0.00    -0.229 OA 
HETATM    2  C   UNL     1      -6.009  17.269  67.197  1.00  0.00    -0.149 C  
HETATM    3  C   UNL     1      -5.668  15.829  67.476  1.00  0.00    -0.112 C  
HETATM    4  C   UNL     1      -5.829  15.445  68.951  1.00  0.00    -0.098 C  
HETATM    5  C   UNL     1      -5.199  16.514  69.844  1.00  0.00    -0.165 C  
HETATM    6  C   UNL     1      -5.147  14.074  69.189  1.00  0.00    -0.078 C  
HETATM    7  C   UNL     1      -5.600  17.911  69.445  1.00  0.00    -0.209 C  
HETATM    8  C   UNL     1      -6.224  13.153  69.741  1.00  0.00    -0.108 C  
HETATM    9  N   UNL     1      -5.450  18.161  68.095  1.00  0.00    -0.160 N  
HETATM   10  C   UNL     1      -7.517  13.718  69.183  1.00  0.00     0.062 C  
HETATM   11  O   UNL     1      -5.961  18.740  70.276  1.00  0.00    -0.223 OA 
HETATM   12  C   UNL     1      -7.316  15.221  69.306  1.00  0.00    -0.191 C  
ENDROOT
BRANCH   9  13
HETATM   13  C   UNL     1      -5.328  19.544  67.675  1.00  0.00    -0.177 C  
BRANCH  13  14
HETATM   14  C   UNL     1      -6.468  20.373  68.279  1.00  0.00    -0.344 C  
BRANCH  14  15
HETATM   15  C   UNL     1      -7.322  21.059  67.221  1.00  0.00    -0.320 C  
BRANCH  15  16
HETATM   16  C   UNL     1      -8.314  20.116  66.529  1.00  0.00    -0.265 C  
BRANCH  16  17
HETATM   17  N   UNL     1      -9.649  20.092  67.158  1.00  0.00    -0.375 NA 
HETATM   18  C   UNL     1     -10.601  19.213  66.434  1.00  0.00    -0.435 C  
HETATM   19  C   UNL     1     -10.180  17.727  66.395  1.00  0.00    -0.365 C  
HETATM   20  N   UNL     1      -9.920  17.232  67.750  1.00  0.00    -0.290 NA 
HETATM   21  C   UNL     1      -9.556  19.572  68.548  1.00  0.00    -0.399 C  
HETATM   22  C   UNL     1      -9.146  18.085  68.655  1.00  0.00    -0.266 C  
BRANCH  20  23
HETATM   23  C   UNL     1     -10.806  16.314  68.262  1.00  0.00    -0.340 A  
HETATM   24  N   UNL     1     -11.220  15.315  67.459  1.00  0.00    -0.326 NA 
HETATM   25  C   UNL     1     -12.034  14.383  67.979  1.00  0.00    -0.291 A  
HETATM   26  C   UNL     1     -12.483  14.409  69.273  1.00  0.00    -0.063 A  
HETATM   27  C   UNL     1     -12.027  15.464  70.019  1.00  0.00    -0.356 A  
HETATM   28  N   UNL     1     -11.192  16.406  69.546  1.00  0.00    -0.290 NA 
ENDBRANCH  20  23
ENDBRANCH  16  17
ENDBRANCH  15  16
ENDBRANCH  14  15
ENDBRANCH  13  14
ENDBRANCH   9  13
TORSDOF 6
ENDMDL
MODEL      132
REMARK 921   NORMALIZED FREE ENERGY PREDICTED BY IDOCK:   -4.25 KCAL/MOL
REMARK 922        TOTAL FREE ENERGY PREDICTED BY IDOCK:   -6.72 KCAL/MOL
REMARK 923 INTER-LIGAND FREE ENERGY PREDICTED BY IDOCK:   -5.97 KCAL/MOL
REMARK 924 INTRA-LIGAND FREE ENERGY PREDICTED BY IDOCK:   -0.75 KCAL/MOL
REMARK 927      BINDING AFFINITY PREDICTED BY RF-SCORE:    0.00 PKD
ROOT
HETATM    1  O   UNL     1      -9.157  15.380  70.005  1.00  0.00    -0.090 OA 
HETATM    2  C   UNL     1      -9.067  15.910  68.900  1.00  0.00    -0.233 C  
HETATM    3  C   UNL     1      -7.745  16.011  68.185  1.00  0.00    -0.136 C  
HETATM    4  C   UNL     1      -7.520  17.374  67.520  1.00  0.00    -0.197 C  
HETATM    5  C   UNL     1      -8.777  17.803  66.762  1.00  0.00    -0.273 C  
HETATM    6  C   UNL     1      -6.317  17.267  66.551  1.00  0.00    -0.263 C  
HETATM    7  C   UNL     1     -10.032  17.629  67.578  1.00  0.00    -0.322 C  
HETATM    8  C   UNL     1      -5.307  18.308  67.009  1.00  0.00    -0.144 C  
HETATM    9  N   UNL     1     -10.139  16.382  68.164  1.00  0.00    -0.244 N  
HETATM   10  C   UNL     1      -5.584  18.467  68.492  1.00  0.00    -0.180 C  
HETATM   11  O   UNL     1     -10.886  18.509  67.642  1.00  0.00    -0.412 OA 
HETATM   12  C   UNL     1      -7.103  18.437  68.562  1.00  0.00    -0.285 C  
ENDROOT
BRANCH   9  13
HETATM   13  C   UNL     1     -11.462  15.927  68.544  1.00  0.00    -0.377 C  
BRANCH  13  14
HETATM   14  C   UNL     1     -11.902  14.780  67.625  1.00  0.00    -0.319 C  
BRANCH  14  15
HETATM   15  C   UNL     1     -11.253  13.451  67.990  1.00  0.00    -0.298 C  
BRANCH  15  16
HETATM   16  C   UNL     1     -11.018  12.533  66.784  1.00  0.00    -0.265 C  
BRANCH  16  17
HETATM   17  N   UNL     1      -9.593  12.253  66.520  1.00  0.00    -0.232 NA 
HETATM   18  C   UNL     1      -9.041  11.216  67.429  1.00  0.00    -0.142 C  
HETATM   19  C   UNL     1      -9.724   9.836  67.297  1.00  0.00    -0.169 C  
HETATM   20  N   UNL     1      -9.708   9.388  65.902  1.00  0.00    -0.272 NA 
HETATM   21  C   UNL     1      -9.413  11.748  65.134  1.00  0.00    -0.092 C  
HETATM   22  C   UNL     1     -10.048  10.364  64.864  1.00  0.00    -0.312 C  
BRANCH  20  23
HETATM   23  C   UNL     1      -8.903   8.316  65.599  1.00  0.00    -0.132 A  
HETATM   24  N   UNL     1      -8.833   7.304  66.486  1.00  0.00    -0.135 NA 
HETATM   25  C   UNL     1      -8.099   6.228  66.160  1.00  0.00    -0.116 A  
HETATM   26  C   UNL     1      -7.401   6.117  64.986  1.00  0.00    -0.073 A  
HETATM   27  C   UNL     1      -7.514   7.193  64.147  1.00  0.00    -0.099 A  
HETATM   28  N   UNL     1      -8.257   8.280  64.421  1.00  0.00    -0.155 NA 
ENDBRANCH  20  23
ENDBRANCH  16  17
ENDBRANCH  15  16
ENDBRANCH  14  15
ENDBRANCH  13  14
ENDBRANCH   9  13
TORSDOF 6
ENDMDL
MODEL      133
REMARK 921   NORMALIZED FREE ENERGY PREDICTED BY IDOCK:   -4.22 KCAL/MOL
REMARK 922        TOTAL FREE ENERGY PREDICTED BY IDOCK:   -6.68 KCAL/MOL
REMARK 923 INTER-LIGAND FREE ENERGY PREDICTED BY IDOCK:   -5.88 KCAL/MOL
REMARK 924 INTRA-LIGAND FREE ENERGY PREDICTED BY IDOCK:   -0.80 KCAL/MOL
REMARK 927      BINDING AFFINITY PREDICTED BY RF-SCORE:    0.00 PKD
ROOT
HETATM    1  O   UNL     1     -11.815  11.726  64.426  1.00  0.00    -0.283 OA 
HETATM    2  C   UNL     1     -10.769  11.432  65.000  1.00  0.00    -0.277 C  
HETATM    3  C   UNL     1      -9.448  11.445  64.276  1.00  0.00    -0.153 C  
HETATM    4  C   UNL     1      -8.561  10.242  64.616  1.00  0.00    -0.194 C  
HETATM    5  C   UNL     1      -8.545  10.010  66.127  1.00  0.00    -0.142 C  
HETATM    6  C   UNL     1      -7.126  10.515  64.098  1.00  0.00     0.126 C  
HETATM    7  C   UNL     1      -9.925  10.046  66.732  1.00  0.00    -0.210 C  
HETATM    8  C   UNL     1      -6.793   9.375  63.147  1.00  0.00    -0.099 C  
HETATM    9  N   UNL     1     -10.665  11.148  66.350  1.00  0.00    -0.262 N  
HETATM   10  C   UNL     1      -8.143   8.923  62.622  1.00  0.00    -0.164 C  
HETATM   11  O   UNL     1     -10.300   9.193  67.533  1.00  0.00    -0.228 OA 
HETATM   12  C   UNL     1      -9.027   8.978  63.860  1.00  0.00     0.082 C  
ENDROOT
BRANCH   9  13
HETATM   13  C   UNL     1     -11.766  11.550  67.203  1.00  0.00    -0.055 C  
BRANCH  13  14
HETATM   14  C   UNL     1     -11.548  12.987  67.692  1.00  0.00    -0.403 C  
BRANCH  14  15
HETATM   15  C   UNL     1     -10.080  13.392  67.695  1.00  0.00    -0.229 C  
BRANCH  15  16
HETATM   16  C   UNL     1      -9.821  14.751  68.355  1.00  0.00    -0.220 C  
BRANCH  16  17
HETATM   17  N   UNL     1      -8.397  15.139  68.377  1.00  0.00    -0.148 NA 
HETATM   18  C   UNL     1      -7.833  15.307  67.014  1.00  0.00    -0.189 C  
HETATM   19  C   UNL     1      -8.511  16.422  66.186  1.00  0.00    -0.294 C  
HETATM   20  N   UNL     1      -8.504  17.687  66.927  1.00  0.00    -0.232 NA 
HETATM   21  C   UNL     1      -8.226  16.440  69.075  1.00  0.00    -0.222 C  
HETATM   22  C   UNL     1      -8.856  17.650  68.349  1.00  0.00    -0.281 C  
BRANCH  20  23
HETATM   23  C   UNL     1      -7.697  18.689  66.444  1.00  0.00    -0.268 A  
HETATM   24  N   UNL     1      -6.965  18.439  65.342  1.00  0.00    -0.534 NA 
HETATM   25  C   UNL     1      -6.228  19.439  64.833  1.00  0.00    -0.276 A  
HETATM   26  C   UNL     1      -6.164  20.690  65.390  1.00  0.00    -0.281 A  
HETATM   27  C   UNL     1      -6.927  20.857  66.516  1.00  0.00    -0.174 A  
HETATM   28  N   UNL     1      -7.698  19.891  67.045  1.00  0.00    -0.266 NA 
ENDBRANCH  20  23
ENDBRANCH  16  17
ENDBRANCH  15  16
ENDBRANCH  14  15
ENDBRANCH  13  14
ENDBRANCH   9  13
TORSDOF 6
ENDMDL
MODEL      134
REMARK 921   NORMALIZED FREE ENERGY PREDICTED BY IDOCK:   -4.21 KCAL/MOL
REMARK 922        TOTAL FREE ENERGY PREDICTED BY IDOCK:   -6.66 KCAL/MOL
REMARK 923 INTER-LIGAND FREE ENERGY PREDICTED BY IDOCK:   -6.27 KCAL/MOL
REMARK 924 INTRA-LIGAND FREE ENERGY PREDICTED BY IDOCK:   -0.39 KCAL/MOL
REMARK 927      BINDING AFFINITY PREDICTED BY RF-SCORE:    0.00 PKD
ROOT
HETATM    1  O   UNL     1      -8.552  12.673  67.819  1.00  0.00    -0.157 OA 
HETATM    2  C   UNL     1      -8.732  11.960  66.835  1.00  0.00    -0.191 C  
HETATM    3  C   UNL     1      -9.324  12.512  65.565  1.00  0.00     0.141 C  
HETATM    4  C   UNL     1     -10.363  11.583  64.928  1.00  0.00    -0.340 C  
HETATM    5  C   UNL     1      -9.841  10.146  64.906  1.00  0.00    -0.390 C  
HETATM    6  C   UNL     1     -10.656  12.071  63.487  1.00  0.00    -0.514 C  
HETATM    7  C   UNL     1      -9.253   9.725  66.229  1.00  0.00    -0.164 C  
HETATM    8  C   UNL     1     -12.151  12.342  63.425  1.00  0.00    -0.620 C  
HETATM    9  N   UNL     1      -8.349  10.634  66.743  1.00  0.00    -0.129 N  
HETATM   10  C   UNL     1     -12.527  12.677  64.856  1.00  0.00    -0.564 C  
HETATM   11  O   UNL     1      -9.527   8.642  66.740  1.00  0.00    -0.162 OA 
HETATM   12  C   UNL     1     -11.717  11.677  65.666  1.00  0.00     0.032 C  
ENDROOT
BRANCH   9  13
HETATM   13  C   UNL     1      -7.383  10.150  67.710  1.00  0.00    -0.088 C  
BRANCH  13  14
HETATM   14  C   UNL     1      -6.776   8.828  67.223  1.00  0.00    -0.063 C  
BRANCH  14  15
HETATM   15  C   UNL     1      -6.436   7.880  68.365  1.00  0.00    -0.053 C  
BRANCH  15  16
HETATM   16  C   UNL     1      -7.434   6.726  68.521  1.00  0.00    -0.092 C  
BRANCH  16  17
HETATM   17  N   UNL     1      -7.868   6.501  69.914  1.00  0.00    -0.112 NA 
HETATM   18  C   UNL     1      -8.190   7.767  70.619  1.00  0.00    -0.115 C  
HETATM   19  C   UNL     1      -9.357   8.560  69.987  1.00  0.00    -0.163 C  
HETATM   20  N   UNL     1     -10.541   7.708  69.852  1.00  0.00    -0.232 NA 
HETATM   21  C   UNL     1      -9.099   5.669  69.943  1.00  0.00    -0.136 C  
HETATM   22  C   UNL     1     -10.352   6.347  69.343  1.00  0.00    -0.209 C  
BRANCH  20  23
HETATM   23  C   UNL     1     -11.615   7.996  70.660  1.00  0.00    -0.196 A  
HETATM   24  N   UNL     1     -11.921   9.290  70.871  1.00  0.00    -0.278 NA 
HETATM   25  C   UNL     1     -13.008   9.570  71.607  1.00  0.00    -0.396 A  
HETATM   26  C   UNL     1     -13.807   8.610  72.171  1.00  0.00    -0.482 A  
HETATM   27  C   UNL     1     -13.419   7.320  71.920  1.00  0.00    -0.219 A  
HETATM   28  N   UNL     1     -12.352   6.994  71.169  1.00  0.00    -0.376 NA 
ENDBRANCH  20  23
ENDBRANCH  16  17
ENDBRANCH  15  16
ENDBRANCH  14  15
ENDBRANCH  13  14
ENDBRANCH   9  13
TORSDOF 6
ENDMDL
MODEL      135
REMARK 921   NORMALIZED FREE ENERGY PREDICTED BY IDOCK:   -4.19 KCAL/MOL
REMARK 922        TOTAL FREE ENERGY PREDICTED BY IDOCK:   -6.64 KCAL/MOL
REMARK 923 INTER-LIGAND FREE ENERGY PREDICTED BY IDOCK:   -5.84 KCAL/MOL
REMARK 924 INTRA-LIGAND FREE ENERGY PREDICTED BY IDOCK:   -0.80 KCAL/MOL
REMARK 927      BINDING AFFINITY PREDICTED BY RF-SCORE:    0.00 PKD
ROOT
HETATM    1  O   UNL     1      -9.485  10.856  67.547  1.00  0.00    -0.154 OA 
HETATM    2  C   UNL     1     -10.512  11.524  67.632  1.00  0.00    -0.189 C  
HETATM    3  C   UNL     1     -11.263  11.967  66.404  1.00  0.00    -0.389 C  
HETATM    4  C   UNL     1     -11.749  13.418  66.484  1.00  0.00    -0.415 C  
HETATM    5  C   UNL     1     -12.389  13.685  67.846  1.00  0.00     0.008 C  
HETATM    6  C   UNL     1     -12.775  13.666  65.349  1.00  0.00    -0.500 C  
HETATM    7  C   UNL     1     -11.550  13.172  68.989  1.00  0.00    -0.312 C  
HETATM    8  C   UNL     1     -12.226  14.820  64.524  1.00  0.00    -0.443 C  
HETATM    9  N   UNL     1     -11.132  11.866  68.821  1.00  0.00    -0.229 N  
HETATM   10  C   UNL     1     -10.725  14.739  64.724  1.00  0.00    -0.380 C  
HETATM   11  O   UNL     1     -11.333  13.855  69.986  1.00  0.00    -0.187 OA 
HETATM   12  C   UNL     1     -10.595  14.406  66.203  1.00  0.00    -0.298 C  
ENDROOT
BRANCH   9  13
HETATM   13  C   UNL     1     -10.760  11.119  70.007  1.00  0.00     0.224 C  
BRANCH  13  14
HETATM   14  C   UNL     1     -11.897  10.169  70.402  1.00  0.00    -0.373 C  
BRANCH  14  15
HETATM   15  C   UNL     1     -11.473   9.147  71.449  1.00  0.00    -0.420 C  
BRANCH  15  16
HETATM   16  C   UNL     1     -10.629   8.001  70.879  1.00  0.00    -0.213 C  
BRANCH  16  17
HETATM   17  N   UNL     1     -11.163   7.436  69.624  1.00  0.00    -0.114 NA 
HETATM   18  C   UNL     1     -10.319   7.768  68.449  1.00  0.00    -0.196 C  
HETATM   19  C   UNL     1      -8.882   7.206  68.529  1.00  0.00    -0.125 C  
HETATM   20  N   UNL     1      -8.908   5.762  68.777  1.00  0.00    -0.110 NA 
HETATM   21  C   UNL     1     -11.220   5.954  69.707  1.00  0.00    -0.261 C  
HETATM   22  C   UNL     1      -9.842   5.258  69.788  1.00  0.00    -0.211 C  
BRANCH  20  23
HETATM   23  C   UNL     1      -8.496   4.944  67.753  1.00  0.00    -0.104 A  
HETATM   24  N   UNL     1      -7.408   4.176  67.952  1.00  0.00    -0.067 NA 
HETATM   25  C   UNL     1      -7.046   3.329  66.976  1.00  0.00    -0.058 A  
HETATM   26  C   UNL     1      -7.710   3.223  65.782  1.00  0.00    -0.081 A  
HETATM   27  C   UNL     1      -8.796   4.047  65.654  1.00  0.00    -0.123 A  
HETATM   28  N   UNL     1      -9.209   4.893  66.614  1.00  0.00    -0.122 NA 
ENDBRANCH  20  23
ENDBRANCH  16  17
ENDBRANCH  15  16
ENDBRANCH  14  15
ENDBRANCH  13  14
ENDBRANCH   9  13
TORSDOF 6
ENDMDL
MODEL      136
REMARK 921   NORMALIZED FREE ENERGY PREDICTED BY IDOCK:   -4.19 KCAL/MOL
REMARK 922        TOTAL FREE ENERGY PREDICTED BY IDOCK:   -6.64 KCAL/MOL
REMARK 923 INTER-LIGAND FREE ENERGY PREDICTED BY IDOCK:   -5.64 KCAL/MOL
REMARK 924 INTRA-LIGAND FREE ENERGY PREDICTED BY IDOCK:   -0.99 KCAL/MOL
REMARK 927      BINDING AFFINITY PREDICTED BY RF-SCORE:    0.00 PKD
ROOT
HETATM    1  O   UNL     1      -6.642   9.629  67.787  1.00  0.00    -0.064 OA 
HETATM    2  C   UNL     1      -7.698   9.020  67.632  1.00  0.00    -0.097 C  
HETATM    3  C   UNL     1      -7.772   7.525  67.800  1.00  0.00    -0.115 C  
HETATM    4  C   UNL     1      -8.614   6.837  66.720  1.00  0.00    -0.119 C  
HETATM    5  C   UNL     1      -9.924   7.598  66.511  1.00  0.00    -0.226 C  
HETATM    6  C   UNL     1      -8.903   5.380  67.162  1.00  0.00    -0.109 C  
HETATM    7  C   UNL     1      -9.714   9.085  66.382  1.00  0.00    -0.268 C  
HETATM    8  C   UNL     1      -8.354   4.485  66.062  1.00  0.00    -0.113 C  
HETATM    9  N   UNL     1      -8.920   9.616  67.379  1.00  0.00    -0.131 N  
HETATM   10  C   UNL     1      -7.238   5.303  65.440  1.00  0.00    -0.068 C  
HETATM   11  O   UNL     1     -10.263   9.739  65.499  1.00  0.00    -0.256 OA 
HETATM   12  C   UNL     1      -7.824   6.706  65.399  1.00  0.00    -0.111 C  
ENDROOT
BRANCH   9  13
HETATM   13  C   UNL     1      -9.040  11.035  67.652  1.00  0.00    -0.145 C  
BRANCH  13  14
HETATM   14  C   UNL     1     -10.178  11.280  68.650  1.00  0.00    -0.214 C  
BRANCH  14  15
HETATM   15  C   UNL     1     -10.064  10.414  69.898  1.00  0.00    -0.144 C  
BRANCH  15  16
HETATM   16  C   UNL     1     -11.393   9.784  70.330  1.00  0.00    -0.297 C  
BRANCH  16  17
HETATM   17  N   UNL     1     -11.387   9.278  71.717  1.00  0.00    -0.385 NA 
HETATM   18  C   UNL     1     -12.382   8.196  71.930  1.00  0.00    -0.332 C  
HETATM   19  C   UNL     1     -12.134   6.936  71.071  1.00  0.00    -0.380 C  
HETATM   20  N   UNL     1     -10.765   6.448  71.260  1.00  0.00    -0.233 NA 
HETATM   21  C   UNL     1     -10.056   8.709  72.054  1.00  0.00    -0.331 C  
HETATM   22  C   UNL     1      -9.680   7.433  71.266  1.00  0.00    -0.165 C  
BRANCH  20  23
HETATM   23  C   UNL     1     -10.612   5.255  71.925  1.00  0.00    -0.209 A  
HETATM   24  N   UNL     1     -11.113   5.154  73.171  1.00  0.00    -0.304 NA 
HETATM   25  C   UNL     1     -11.023   3.969  73.795  1.00  0.00    -0.244 A  
HETATM   26  C   UNL     1     -10.428   2.866  73.239  1.00  0.00    -0.248 A  
HETATM   27  C   UNL     1      -9.932   3.056  71.976  1.00  0.00    -0.154 A  
HETATM   28  N   UNL     1     -10.022   4.218  71.305  1.00  0.00    -0.182 NA 
ENDBRANCH  20  23
ENDBRANCH  16  17
ENDBRANCH  15  16
ENDBRANCH  14  15
ENDBRANCH  13  14
ENDBRANCH   9  13
TORSDOF 6
ENDMDL
MODEL      137
REMARK 921   NORMALIZED FREE ENERGY PREDICTED BY IDOCK:   -4.17 KCAL/MOL
REMARK 922        TOTAL FREE ENERGY PREDICTED BY IDOCK:   -6.60 KCAL/MOL
REMARK 923 INTER-LIGAND FREE ENERGY PREDICTED BY IDOCK:   -5.78 KCAL/MOL
REMARK 924 INTRA-LIGAND FREE ENERGY PREDICTED BY IDOCK:   -0.82 KCAL/MOL
REMARK 927      BINDING AFFINITY PREDICTED BY RF-SCORE:    0.00 PKD
ROOT
HETATM    1  O   UNL     1      -8.549   7.315  70.408  1.00  0.00    -0.141 OA 
HETATM    2  C   UNL     1      -9.179   6.264  70.505  1.00  0.00    -0.158 C  
HETATM    3  C   UNL     1      -9.931   5.915  71.763  1.00  0.00    -0.200 C  
HETATM    4  C   UNL     1      -9.766   4.449  72.178  1.00  0.00    -0.220 C  
HETATM    5  C   UNL     1      -9.941   3.536  70.965  1.00  0.00    -0.047 C  
HETATM    6  C   UNL     1     -10.821   4.114  73.262  1.00  0.00    -0.315 C  
HETATM    7  C   UNL     1      -9.158   4.009  69.768  1.00  0.00    -0.115 C  
HETATM    8  C   UNL     1     -10.044   3.630  74.477  1.00  0.00    -0.218 C  
HETATM    9  N   UNL     1      -9.343   5.347  69.483  1.00  0.00    -0.119 N  
HETATM   10  C   UNL     1      -8.696   4.313  74.352  1.00  0.00    -0.095 C  
HETATM   11  O   UNL     1      -8.479   3.236  69.096  1.00  0.00    -0.059 OA 
HETATM   12  C   UNL     1      -8.400   4.217  72.863  1.00  0.00    -0.094 C  
ENDROOT
BRANCH   9  13
HETATM   13  C   UNL     1      -9.059   5.795  68.133  1.00  0.00    -0.110 C  
BRANCH  13  14
HETATM   14  C   UNL     1     -10.265   6.560  67.574  1.00  0.00    -0.221 C  
BRANCH  14  15
HETATM   15  C   UNL     1      -9.927   7.997  67.195  1.00  0.00    -0.303 C  
BRANCH  15  16
HETATM   16  C   UNL     1     -10.780   9.040  67.927  1.00  0.00    -0.138 C  
BRANCH  16  17
HETATM   17  N   UNL     1      -9.988  10.092  68.594  1.00  0.00    -0.163 NA 
HETATM   18  C   UNL     1     -10.358  11.456  68.136  1.00  0.00    -0.188 C  
HETATM   19  C   UNL     1     -11.823  11.844  68.438  1.00  0.00    -0.289 C  
HETATM   20  N   UNL     1     -12.120  11.658  69.861  1.00  0.00    -0.310 NA 
HETATM   21  C   UNL     1     -10.212  10.057  70.062  1.00  0.00    -0.255 C  
HETATM   22  C   UNL     1     -11.645  10.432  70.506  1.00  0.00    -0.344 C  
BRANCH  20  23
HETATM   23  C   UNL     1     -12.328  12.792  70.609  1.00  0.00    -0.297 A  
HETATM   24  N   UNL     1     -12.294  13.982  69.980  1.00  0.00    -0.345 NA 
HETATM   25  C   UNL     1     -12.563  15.084  70.699  1.00  0.00    -0.374 A  
HETATM   26  C   UNL     1     -12.845  15.062  72.040  1.00  0.00    -0.410 A  
HETATM   27  C   UNL     1     -12.846  13.814  72.605  1.00  0.00    -0.214 A  
HETATM   28  N   UNL     1     -12.607  12.683  71.920  1.00  0.00    -0.035 NA 
ENDBRANCH  20  23
ENDBRANCH  16  17
ENDBRANCH  15  16
ENDBRANCH  14  15
ENDBRANCH  13  14
ENDBRANCH   9  13
TORSDOF 6
ENDMDL
MODEL      138
REMARK 921   NORMALIZED FREE ENERGY PREDICTED BY IDOCK:   -4.13 KCAL/MOL
REMARK 922        TOTAL FREE ENERGY PREDICTED BY IDOCK:   -6.55 KCAL/MOL
REMARK 923 INTER-LIGAND FREE ENERGY PREDICTED BY IDOCK:   -6.05 KCAL/MOL
REMARK 924 INTRA-LIGAND FREE ENERGY PREDICTED BY IDOCK:   -0.50 KCAL/MOL
REMARK 927      BINDING AFFINITY PREDICTED BY RF-SCORE:    0.00 PKD
ROOT
HETATM    1  O   UNL     1      -7.327   7.243  70.222  1.00  0.00    -0.078 OA 
HETATM    2  C   UNL     1      -8.375   6.711  69.863  1.00  0.00    -0.132 C  
HETATM    3  C   UNL     1      -8.496   5.214  69.756  1.00  0.00    -0.097 C  
HETATM    4  C   UNL     1      -9.242   4.757  68.498  1.00  0.00    -0.165 C  
HETATM    5  C   UNL     1     -10.508   5.592  68.304  1.00  0.00    -0.225 C  
HETATM    6  C   UNL     1      -9.603   3.258  68.646  1.00  0.00    -0.117 C  
HETATM    7  C   UNL     1     -10.255   7.069  68.461  1.00  0.00    -0.172 C  
HETATM    8  C   UNL     1      -8.967   2.547  67.461  1.00  0.00    -0.191 C  
HETATM    9  N   UNL     1      -9.553   7.389  69.606  1.00  0.00    -0.156 N  
HETATM   10  C   UNL     1      -7.778   3.417  67.101  1.00  0.00    -0.079 C  
HETATM   11  O   UNL     1     -10.700   7.887  67.660  1.00  0.00    -0.221 OA 
HETATM   12  C   UNL     1      -8.327   4.828  67.255  1.00  0.00    -0.105 C  
ENDROOT
BRANCH   9  13
HETATM   13  C   UNL     1      -9.669   8.742  70.113  1.00  0.00    -0.172 C  
BRANCH  13  14
HETATM   14  C   UNL     1     -10.805   8.818  71.141  1.00  0.00    -0.335 C  
BRANCH  14  15
HETATM   15  C   UNL     1     -11.601  10.112  71.045  1.00  0.00    -0.462 C  
BRANCH  15  16
HETATM   16  C   UNL     1     -11.776  10.619  69.609  1.00  0.00    -0.296 C  
BRANCH  16  17
HETATM   17  N   UNL     1     -10.612  11.371  69.099  1.00  0.00    -0.194 NA 
HETATM   18  C   UNL     1     -10.489  11.292  67.621  1.00  0.00    -0.193 C  
HETATM   19  C   UNL     1     -11.689  11.897  66.858  1.00  0.00    -0.212 C  
HETATM   20  N   UNL     1     -11.938  13.272  67.301  1.00  0.00    -0.364 NA 
HETATM   21  C   UNL     1     -10.735  12.811  69.443  1.00  0.00     0.197 C  
HETATM   22  C   UNL     1     -11.900  13.546  68.739  1.00  0.00    -0.355 C  
BRANCH  20  23
HETATM   23  C   UNL     1     -11.668  14.277  66.403  1.00  0.00    -0.391 A  
HETATM   24  N   UNL     1     -10.841  15.267  66.788  1.00  0.00    -0.312 NA 
HETATM   25  C   UNL     1     -10.526  16.213  65.888  1.00  0.00    -0.352 A  
HETATM   26  C   UNL     1     -11.019  16.234  64.610  1.00  0.00    -0.212 A  
HETATM   27  C   UNL     1     -11.862  15.199  64.302  1.00  0.00    -0.251 A  
HETATM   28  N   UNL     1     -12.186  14.219  65.164  1.00  0.00    -0.412 NA 
ENDBRANCH  20  23
ENDBRANCH  16  17
ENDBRANCH  15  16
ENDBRANCH  14  15
ENDBRANCH  13  14
ENDBRANCH   9  13
TORSDOF 6
ENDMDL
MODEL      139
REMARK 921   NORMALIZED FREE ENERGY PREDICTED BY IDOCK:   -4.12 KCAL/MOL
REMARK 922        TOTAL FREE ENERGY PREDICTED BY IDOCK:   -6.54 KCAL/MOL
REMARK 923 INTER-LIGAND FREE ENERGY PREDICTED BY IDOCK:   -6.43 KCAL/MOL
REMARK 924 INTRA-LIGAND FREE ENERGY PREDICTED BY IDOCK:   -0.11 KCAL/MOL
REMARK 927      BINDING AFFINITY PREDICTED BY RF-SCORE:    0.00 PKD
ROOT
HETATM    1  O   UNL     1      -7.351   7.852  69.580  1.00  0.00    -0.084 OA 
HETATM    2  C   UNL     1      -7.699   7.099  68.674  1.00  0.00    -0.120 C  
HETATM    3  C   UNL     1      -7.144   7.242  67.281  1.00  0.00    -0.091 C  
HETATM    4  C   UNL     1      -8.208   7.088  66.188  1.00  0.00    -0.125 C  
HETATM    5  C   UNL     1      -9.093   5.877  66.483  1.00  0.00    -0.149 C  
HETATM    6  C   UNL     1      -7.500   6.918  64.820  1.00  0.00    -0.096 C  
HETATM    7  C   UNL     1      -9.561   5.838  67.915  1.00  0.00    -0.115 C  
HETATM    8  C   UNL     1      -8.013   8.041  63.933  1.00  0.00    -0.128 C  
HETATM    9  N   UNL     1      -8.542   6.014  68.831  1.00  0.00    -0.115 N  
HETATM   10  C   UNL     1      -8.392   9.141  64.907  1.00  0.00    -0.169 C  
HETATM   11  O   UNL     1     -10.732   5.607  68.205  1.00  0.00    -0.217 OA 
HETATM   12  C   UNL     1      -9.049   8.377  66.047  1.00  0.00    -0.235 C  
ENDROOT
BRANCH   9  13
HETATM   13  C   UNL     1      -8.756   5.525  70.180  1.00  0.00    -0.129 C  
BRANCH  13  14
HETATM   14  C   UNL     1     -10.226   5.714  70.575  1.00  0.00    -0.297 C  
BRANCH  14  15
HETATM   15  C   UNL     1     -10.431   6.866  71.550  1.00  0.00    -0.231 C  
BRANCH  15  16
HETATM   16  C   UNL     1     -11.328   7.981  71.000  1.00  0.00    -0.273 C  
BRANCH  16  17
HETATM   17  N   UNL     1     -10.838   9.341  71.302  1.00  0.00    -0.320 NA 
HETATM   18  C   UNL     1      -9.936   9.866  70.246  1.00  0.00    -0.203 C  
HETATM   19  C   UNL     1     -10.606  10.009  68.861  1.00  0.00    -0.218 C  
HETATM   20  N   UNL     1     -11.830  10.809  68.964  1.00  0.00    -0.323 NA 
HETATM   21  C   UNL     1     -11.977  10.290  71.405  1.00  0.00    -0.327 C  
HETATM   22  C   UNL     1     -12.738  10.531  70.080  1.00  0.00    -0.127 C  
BRANCH  20  23
HETATM   23  C   UNL     1     -11.814  12.055  68.385  1.00  0.00    -0.300 A  
HETATM   24  N   UNL     1     -12.012  12.140  67.056  1.00  0.00    -0.598 NA 
HETATM   25  C   UNL     1     -12.061  13.362  66.502  1.00  0.00    -0.388 A  
HETATM   26  C   UNL     1     -11.898  14.522  67.213  1.00  0.00    -0.419 A  
HETATM   27  C   UNL     1     -11.688  14.347  68.556  1.00  0.00    -0.335 A  
HETATM   28  N   UNL     1     -11.655  13.144  69.156  1.00  0.00    -0.297 NA 
ENDBRANCH  20  23
ENDBRANCH  16  17
ENDBRANCH  15  16
ENDBRANCH  14  15
ENDBRANCH  13  14
ENDBRANCH   9  13
TORSDOF 6
ENDMDL
MODEL      140
REMARK 921   NORMALIZED FREE ENERGY PREDICTED BY IDOCK:   -4.10 KCAL/MOL
REMARK 922        TOTAL FREE ENERGY PREDICTED BY IDOCK:   -6.51 KCAL/MOL
REMARK 923 INTER-LIGAND FREE ENERGY PREDICTED BY IDOCK:   -5.27 KCAL/MOL
REMARK 924 INTRA-LIGAND FREE ENERGY PREDICTED BY IDOCK:   -1.24 KCAL/MOL
REMARK 927      BINDING AFFINITY PREDICTED BY RF-SCORE:    0.00 PKD
ROOT
HETATM    1  O   UNL     1     -11.377   6.355  68.955  1.00  0.00    -0.355 OA 
HETATM    2  C   UNL     1     -10.609   6.049  69.864  1.00  0.00    -0.279 C  
HETATM    3  C   UNL     1      -9.250   5.467  69.578  1.00  0.00    -0.152 C  
HETATM    4  C   UNL     1      -8.886   4.300  70.502  1.00  0.00    -0.132 C  
HETATM    5  C   UNL     1      -9.222   4.651  71.952  1.00  0.00    -0.175 C  
HETATM    6  C   UNL     1      -7.373   3.998  70.358  1.00  0.00    -0.042 C  
HETATM    7  C   UNL     1     -10.599   5.247  72.098  1.00  0.00    -0.221 C  
HETATM    8  C   UNL     1      -7.268   2.542  69.929  1.00  0.00    -0.040 C  
HETATM    9  N   UNL     1     -10.851   6.272  71.208  1.00  0.00    -0.254 N  
HETATM   10  C   UNL     1      -8.572   2.274  69.203  1.00  0.00    -0.111 C  
HETATM   11  O   UNL     1     -11.372   4.875  72.976  1.00  0.00    -0.291 OA 
HETATM   12  C   UNL     1      -9.598   3.001  70.061  1.00  0.00    -0.143 C  
ENDROOT
BRANCH   9  13
HETATM   13  C   UNL     1     -11.894   7.220  71.549  1.00  0.00    -0.304 C  
BRANCH  13  14
HETATM   14  C   UNL     1     -11.273   8.474  72.178  1.00  0.00    -0.432 C  
BRANCH  14  15
HETATM   15  C   UNL     1     -11.783   9.763  71.549  1.00  0.00    -0.450 C  
BRANCH  15  16
HETATM   16  C   UNL     1     -11.637   9.801  70.024  1.00  0.00    -0.130 C  
BRANCH  16  17
HETATM   17  N   UNL     1     -10.636  10.776  69.547  1.00  0.00    -0.219 NA 
HETATM   18  C   UNL     1      -9.254  10.234  69.581  1.00  0.00    -0.129 C  
HETATM   19  C   UNL     1      -9.040   9.003  68.671  1.00  0.00    -0.137 C  
HETATM   20  N   UNL     1      -9.464   9.299  67.300  1.00  0.00    -0.140 NA 
HETATM   21  C   UNL     1     -10.914  11.155  68.137  1.00  0.00    -0.238 C  
HETATM   22  C   UNL     1     -10.731  10.011  67.113  1.00  0.00    -0.212 C  
BRANCH  20  23
HETATM   23  C   UNL     1      -8.479   9.388  66.346  1.00  0.00    -0.126 A  
HETATM   24  N   UNL     1      -8.793   9.939  65.158  1.00  0.00    -0.166 NA 
HETATM   25  C   UNL     1      -7.814  10.086  64.251  1.00  0.00    -0.144 A  
HETATM   26  C   UNL     1      -6.521   9.683  64.463  1.00  0.00    -0.101 A  
HETATM   27  C   UNL     1      -6.288   9.121  65.690  1.00  0.00    -0.067 A  
HETATM   28  N   UNL     1      -7.232   8.976  66.637  1.00  0.00    -0.085 NA 
ENDBRANCH  20  23
ENDBRANCH  16  17
ENDBRANCH  15  16
ENDBRANCH  14  15
ENDBRANCH  13  14
ENDBRANCH   9  13
TORSDOF 6
ENDMDL
MODEL      141
REMARK 921   NORMALIZED FREE ENERGY PREDICTED BY IDOCK:   -4.08 KCAL/MOL
REMARK 922        TOTAL FREE ENERGY PREDICTED BY IDOCK:   -6.48 KCAL/MOL
REMARK 923 INTER-LIGAND FREE ENERGY PREDICTED BY IDOCK:   -6.35 KCAL/MOL
REMARK 924 INTRA-LIGAND FREE ENERGY PREDICTED BY IDOCK:   -0.13 KCAL/MOL
REMARK 927      BINDING AFFINITY PREDICTED BY RF-SCORE:    0.00 PKD
ROOT
HETATM    1  O   UNL     1     -10.845   6.595  70.295  1.00  0.00    -0.236 OA 
HETATM    2  C   UNL     1     -10.012   6.226  71.119  1.00  0.00    -0.181 C  
HETATM    3  C   UNL     1      -9.167   5.001  70.884  1.00  0.00    -0.192 C  
HETATM    4  C   UNL     1      -9.017   4.124  72.131  1.00  0.00    -0.143 C  
HETATM    5  C   UNL     1      -8.695   4.990  73.349  1.00  0.00    -0.111 C  
HETATM    6  C   UNL     1      -7.883   3.096  71.887  1.00  0.00    -0.054 C  
HETATM    7  C   UNL     1      -9.595   6.195  73.455  1.00  0.00    -0.148 C  
HETATM    8  C   UNL     1      -8.508   1.721  72.071  1.00  0.00    -0.060 C  
HETATM    9  N   UNL     1      -9.695   6.911  72.278  1.00  0.00    -0.148 N  
HETATM   10  C   UNL     1      -9.970   1.929  71.727  1.00  0.00    -0.219 C  
HETATM   11  O   UNL     1     -10.122   6.514  74.517  1.00  0.00    -0.344 OA 
HETATM   12  C   UNL     1     -10.285   3.273  72.367  1.00  0.00    -0.196 C  
ENDROOT
BRANCH   9  13
HETATM   13  C   UNL     1     -10.105   8.299  72.366  1.00  0.00    -0.312 C  
BRANCH  13  14
HETATM   14  C   UNL     1     -11.586   8.430  71.989  1.00  0.00    -0.418 C  
BRANCH  14  15
HETATM   15  C   UNL     1     -11.995   9.869  71.702  1.00  0.00    -0.427 C  
BRANCH  15  16
HETATM   16  C   UNL     1     -12.009  10.216  70.208  1.00  0.00    -0.233 C  
BRANCH  16  17
HETATM   17  N   UNL     1     -10.731  10.764  69.714  1.00  0.00    -0.225 NA 
HETATM   18  C   UNL     1      -9.978   9.789  68.885  1.00  0.00    -0.176 C  
HETATM   19  C   UNL     1     -10.718   9.351  67.602  1.00  0.00    -0.230 C  
HETATM   20  N   UNL     1     -11.120  10.522  66.816  1.00  0.00    -0.114 NA 
HETATM   21  C   UNL     1     -10.976  11.955  68.859  1.00  0.00    -0.238 C  
HETATM   22  C   UNL     1     -11.709  11.657  67.531  1.00  0.00    -0.214 C  
BRANCH  20  23
HETATM   23  C   UNL     1     -10.474  10.723  65.620  1.00  0.00    -0.186 A  
HETATM   24  N   UNL     1      -9.586   9.796  65.214  1.00  0.00    -0.288 NA 
HETATM   25  C   UNL     1      -9.005   9.961  64.015  1.00  0.00    -0.243 A  
HETATM   26  C   UNL     1      -9.251  11.032  63.197  1.00  0.00    -0.309 A  
HETATM   27  C   UNL     1     -10.156  11.935  63.689  1.00  0.00    -0.426 A  
HETATM   28  N   UNL     1     -10.779  11.798  64.872  1.00  0.00    -0.284 NA 
ENDBRANCH  20  23
ENDBRANCH  16  17
ENDBRANCH  15  16
ENDBRANCH  14  15
ENDBRANCH  13  14
ENDBRANCH   9  13
TORSDOF 6
ENDMDL
MODEL      142
REMARK 921   NORMALIZED FREE ENERGY PREDICTED BY IDOCK:   -4.06 KCAL/MOL
REMARK 922        TOTAL FREE ENERGY PREDICTED BY IDOCK:   -6.46 KCAL/MOL
REMARK 923 INTER-LIGAND FREE ENERGY PREDICTED BY IDOCK:   -6.04 KCAL/MOL
REMARK 924 INTRA-LIGAND FREE ENERGY PREDICTED BY IDOCK:   -0.42 KCAL/MOL
REMARK 927      BINDING AFFINITY PREDICTED BY RF-SCORE:    0.00 PKD
ROOT
HETATM    1  O   UNL     1     -12.507  13.156  66.888  1.00  0.00    -0.279 OA 
HETATM    2  C   UNL     1     -11.378  13.095  67.369  1.00  0.00    -0.306 C  
HETATM    3  C   UNL     1     -10.814  14.225  68.190  1.00  0.00    -0.253 C  
HETATM    4  C   UNL     1      -9.349  14.537  67.862  1.00  0.00    -0.201 C  
HETATM    5  C   UNL     1      -8.541  13.242  67.779  1.00  0.00    -0.184 C  
HETATM    6  C   UNL     1      -8.775  15.461  68.965  1.00  0.00    -0.231 C  
HETATM    7  C   UNL     1      -9.226  12.186  66.950  1.00  0.00    -0.203 C  
HETATM    8  C   UNL     1      -8.284  16.715  68.258  1.00  0.00    -0.200 C  
HETATM    9  N   UNL     1     -10.549  11.990  67.294  1.00  0.00    -0.217 N  
HETATM   10  C   UNL     1      -9.149  16.802  67.015  1.00  0.00    -0.239 C  
HETATM   11  O   UNL     1      -8.618  11.537  66.103  1.00  0.00    -0.170 OA 
HETATM   12  C   UNL     1      -9.236  15.354  66.556  1.00  0.00    -0.323 C  
ENDROOT
BRANCH   9  13
HETATM   13  C   UNL     1     -11.158  10.723  66.938  1.00  0.00    -0.133 C  
BRANCH  13  14
HETATM   14  C   UNL     1     -10.607   9.610  67.838  1.00  0.00    -0.308 C  
BRANCH  14  15
HETATM   15  C   UNL     1     -10.296   8.332  67.071  1.00  0.00    -0.393 C  
BRANCH  15  16
HETATM   16  C   UNL     1      -8.973   7.676  67.484  1.00  0.00    -0.126 C  
BRANCH  16  17
HETATM   17  N   UNL     1      -9.028   6.201  67.524  1.00  0.00    -0.113 NA 
HETATM   18  C   UNL     1      -8.101   5.626  68.532  1.00  0.00    -0.103 C  
HETATM   19  C   UNL     1      -8.410   6.051  69.985  1.00  0.00    -0.123 C  
HETATM   20  N   UNL     1      -9.808   5.762  70.318  1.00  0.00    -0.180 NA 
HETATM   21  C   UNL     1     -10.394   5.744  67.888  1.00  0.00    -0.214 C  
HETATM   22  C   UNL     1     -10.833   6.101  69.327  1.00  0.00    -0.351 C  
BRANCH  20  23
HETATM   23  C   UNL     1     -10.039   4.760  71.229  1.00  0.00    -0.188 A  
HETATM   24  N   UNL     1     -10.666   5.078  72.378  1.00  0.00    -0.215 NA 
HETATM   25  C   UNL     1     -10.950   4.087  73.238  1.00  0.00    -0.219 A  
HETATM   26  C   UNL     1     -10.614   2.776  73.019  1.00  0.00    -0.246 A  
HETATM   27  C   UNL     1      -9.968   2.540  71.834  1.00  0.00    -0.148 A  
HETATM   28  N   UNL     1      -9.685   3.497  70.933  1.00  0.00    -0.172 NA 
ENDBRANCH  20  23
ENDBRANCH  16  17
ENDBRANCH  15  16
ENDBRANCH  14  15
ENDBRANCH  13  14
ENDBRANCH   9  13
TORSDOF 6
ENDMDL
MODEL      143
REMARK 921   NORMALIZED FREE ENERGY PREDICTED BY IDOCK:   -4.02 KCAL/MOL
REMARK 922        TOTAL FREE ENERGY PREDICTED BY IDOCK:   -6.41 KCAL/MOL
REMARK 923 INTER-LIGAND FREE ENERGY PREDICTED BY IDOCK:   -5.54 KCAL/MOL
REMARK 924 INTRA-LIGAND FREE ENERGY PREDICTED BY IDOCK:   -0.87 KCAL/MOL
REMARK 927      BINDING AFFINITY PREDICTED BY RF-SCORE:    0.00 PKD
ROOT
HETATM    1  O   UNL     1     -10.884  12.742  69.312  1.00  0.00    -0.133 OA 
HETATM    2  C   UNL     1     -10.497  12.314  68.227  1.00  0.00    -0.226 C  
HETATM    3  C   UNL     1     -10.479  13.188  67.001  1.00  0.00    -0.248 C  
HETATM    4  C   UNL     1     -10.982  12.473  65.742  1.00  0.00    -0.327 C  
HETATM    5  C   UNL     1     -10.352  11.085  65.638  1.00  0.00    -0.311 C  
HETATM    6  C   UNL     1     -10.616  13.326  64.501  1.00  0.00    -0.437 C  
HETATM    7  C   UNL     1     -10.412  10.323  66.937  1.00  0.00    -0.229 C  
HETATM    8  C   UNL     1     -11.926  13.626  63.789  1.00  0.00    -0.425 C  
HETATM    9  N   UNL     1      -9.967  11.052  68.022  1.00  0.00    -0.169 N  
HETATM   10  C   UNL     1     -12.967  13.581  64.891  1.00  0.00    -0.151 C  
HETATM   11  O   UNL     1     -10.769   9.149  66.980  1.00  0.00    -0.234 OA 
HETATM   12  C   UNL     1     -12.526  12.391  65.731  1.00  0.00     0.114 C  
ENDROOT
BRANCH   9  13
HETATM   13  C   UNL     1      -9.522  10.318  69.191  1.00  0.00    -0.215 C  
BRANCH  13  14
HETATM   14  C   UNL     1      -8.118   9.752  68.946  1.00  0.00    -0.101 C  
BRANCH  14  15
HETATM   15  C   UNL     1      -7.238  10.690  68.130  1.00  0.00    -0.086 C  
BRANCH  15  16
HETATM   16  C   UNL     1      -6.742  11.907  68.921  1.00  0.00    -0.095 C  
BRANCH  16  17
HETATM   17  N   UNL     1      -6.012  12.892  68.099  1.00  0.00    -0.076 NA 
HETATM   18  C   UNL     1      -6.925  13.810  67.370  1.00  0.00    -0.047 C  
HETATM   19  C   UNL     1      -7.813  14.676  68.291  1.00  0.00    -0.128 C  
HETATM   20  N   UNL     1      -6.990  15.402  69.263  1.00  0.00    -0.154 NA 
HETATM   21  C   UNL     1      -5.146  13.742  68.958  1.00  0.00    -0.070 C  
HETATM   22  C   UNL     1      -5.911  14.668  69.931  1.00  0.00    -0.132 C  
BRANCH  20  23
HETATM   23  C   UNL     1      -6.905  16.765  69.115  1.00  0.00    -0.227 A  
HETATM   24  N   UNL     1      -7.933  17.406  68.528  1.00  0.00    -0.258 NA 
HETATM   25  C   UNL     1      -7.878  18.745  68.444  1.00  0.00    -0.322 A  
HETATM   26  C   UNL     1      -6.822  19.488  68.902  1.00  0.00    -0.376 A  
HETATM   27  C   UNL     1      -5.813  18.760  69.473  1.00  0.00    -0.248 A  
HETATM   28  N   UNL     1      -5.836  17.422  69.600  1.00  0.00    -0.231 NA 
ENDBRANCH  20  23
ENDBRANCH  16  17
ENDBRANCH  15  16
ENDBRANCH  14  15
ENDBRANCH  13  14
ENDBRANCH   9  13
TORSDOF 6
ENDMDL
MODEL      144
REMARK 921   NORMALIZED FREE ENERGY PREDICTED BY IDOCK:   -4.01 KCAL/MOL
REMARK 922        TOTAL FREE ENERGY PREDICTED BY IDOCK:   -6.39 KCAL/MOL
REMARK 923 INTER-LIGAND FREE ENERGY PREDICTED BY IDOCK:   -5.86 KCAL/MOL
REMARK 924 INTRA-LIGAND FREE ENERGY PREDICTED BY IDOCK:   -0.53 KCAL/MOL
REMARK 927      BINDING AFFINITY PREDICTED BY RF-SCORE:    0.00 PKD
ROOT
HETATM    1  O   UNL     1      -9.061  10.321  69.588  1.00  0.00    -0.196 OA 
HETATM    2  C   UNL     1      -9.547   9.195  69.515  1.00  0.00    -0.168 C  
HETATM    3  C   UNL     1     -10.016   8.462  70.744  1.00  0.00    -0.222 C  
HETATM    4  C   UNL     1      -9.623   6.981  70.751  1.00  0.00    -0.164 C  
HETATM    5  C   UNL     1      -9.918   6.352  69.389  1.00  0.00    -0.184 C  
HETATM    6  C   UNL     1     -10.421   6.255  71.863  1.00  0.00    -0.244 C  
HETATM    7  C   UNL     1      -9.421   7.195  68.243  1.00  0.00    -0.133 C  
HETATM    8  C   UNL     1      -9.389   5.627  72.787  1.00  0.00    -0.144 C  
HETATM    9  N   UNL     1      -9.796   8.521  68.333  1.00  0.00    -0.167 N  
HETATM   10  C   UNL     1      -8.166   6.512  72.634  1.00  0.00    -0.110 C  
HETATM   11  O   UNL     1      -8.797   6.705  67.305  1.00  0.00    -0.117 OA 
HETATM   12  C   UNL     1      -8.139   6.802  71.141  1.00  0.00    -0.111 C  
ENDROOT
BRANCH   9  13
HETATM   13  C   UNL     1      -9.813   9.301  67.110  1.00  0.00    -0.195 C  
BRANCH  13  14
HETATM   14  C   UNL     1     -11.186   9.961  66.932  1.00  0.00     0.349 C  
BRANCH  14  15
HETATM   15  C   UNL     1     -11.198  11.421  67.365  1.00  0.00    -0.370 C  
BRANCH  15  16
HETATM   16  C   UNL     1     -11.576  12.391  66.239  1.00  0.00    -0.393 C  
BRANCH  16  17
HETATM   17  N   UNL     1     -10.413  12.945  65.517  1.00  0.00    -0.285 NA 
HETATM   18  C   UNL     1     -10.761  14.148  64.720  1.00  0.00    -0.419 C  
HETATM   19  C   UNL     1     -11.276  15.335  65.565  1.00  0.00    -0.277 C  
HETATM   20  N   UNL     1     -10.323  15.657  66.630  1.00  0.00    -0.282 NA 
HETATM   21  C   UNL     1      -9.357  13.357  66.477  1.00  0.00    -0.215 C  
HETATM   22  C   UNL     1      -9.740  14.547  67.388  1.00  0.00    -0.222 C  
BRANCH  20  23
HETATM   23  C   UNL     1      -9.643  16.846  66.521  1.00  0.00    -0.278 A  
HETATM   24  N   UNL     1     -10.106  17.908  67.208  1.00  0.00    -0.329 NA 
HETATM   25  C   UNL     1      -9.404  19.052  67.153  1.00  0.00    -0.307 A  
HETATM   26  C   UNL     1      -8.257  19.199  66.418  1.00  0.00    -0.323 A  
HETATM   27  C   UNL     1      -7.861  18.077  65.740  1.00  0.00     0.077 A  
HETATM   28  N   UNL     1      -8.519  16.906  65.785  1.00  0.00    -0.432 NA 
ENDBRANCH  20  23
ENDBRANCH  16  17
ENDBRANCH  15  16
ENDBRANCH  14  15
ENDBRANCH  13  14
ENDBRANCH   9  13
TORSDOF 6
ENDMDL
MODEL      145
REMARK 921   NORMALIZED FREE ENERGY PREDICTED BY IDOCK:   -4.01 KCAL/MOL
REMARK 922        TOTAL FREE ENERGY PREDICTED BY IDOCK:   -6.39 KCAL/MOL
REMARK 923 INTER-LIGAND FREE ENERGY PREDICTED BY IDOCK:   -6.23 KCAL/MOL
REMARK 924 INTRA-LIGAND FREE ENERGY PREDICTED BY IDOCK:   -0.15 KCAL/MOL
REMARK 927      BINDING AFFINITY PREDICTED BY RF-SCORE:    0.00 PKD
ROOT
HETATM    1  O   UNL     1     -11.001   7.526  70.201  1.00  0.00    -0.257 OA 
HETATM    2  C   UNL     1     -10.837   6.308  70.217  1.00  0.00    -0.304 C  
HETATM    3  C   UNL     1     -10.922   5.523  71.499  1.00  0.00    -0.220 C  
HETATM    4  C   UNL     1      -9.825   4.460  71.630  1.00  0.00    -0.255 C  
HETATM    5  C   UNL     1      -9.690   3.680  70.323  1.00  0.00    -0.193 C  
HETATM    6  C   UNL     1     -10.191   3.504  72.793  1.00  0.00    -0.242 C  
HETATM    7  C   UNL     1      -9.640   4.580  69.115  1.00  0.00    -0.180 C  
HETATM    8  C   UNL     1      -9.029   3.561  73.773  1.00  0.00    -0.087 C  
HETATM    9  N   UNL     1     -10.647   5.525  69.092  1.00  0.00    -0.252 N  
HETATM   10  C   UNL     1      -8.428   4.936  73.556  1.00  0.00    -0.106 C  
HETATM   11  O   UNL     1      -8.809   4.419  68.225  1.00  0.00    -0.098 OA 
HETATM   12  C   UNL     1      -8.480   5.099  72.044  1.00  0.00    -0.126 C  
ENDROOT
BRANCH   9  13
HETATM   13  C   UNL     1     -11.002   6.102  67.810  1.00  0.00    -0.303 C  
BRANCH  13  14
HETATM   14  C   UNL     1      -9.985   7.184  67.426  1.00  0.00    -0.224 C  
BRANCH  14  15
HETATM   15  C   UNL     1     -10.646   8.473  66.956  1.00  0.00    -0.305 C  
BRANCH  15  16
HETATM   16  C   UNL     1      -9.657   9.624  66.738  1.00  0.00    -0.173 C  
BRANCH  16  17
HETATM   17  N   UNL     1      -9.192  10.253  67.990  1.00  0.00    -0.134 NA 
HETATM   18  C   UNL     1      -8.447  11.514  67.748  1.00  0.00    -0.137 C  
HETATM   19  C   UNL     1      -9.284  12.618  67.064  1.00  0.00    -0.212 C  
HETATM   20  N   UNL     1     -10.519  12.863  67.814  1.00  0.00    -0.217 NA 
HETATM   21  C   UNL     1     -10.349  10.598  68.856  1.00  0.00    -0.207 C  
HETATM   22  C   UNL     1     -11.273  11.701  68.291  1.00  0.00    -0.260 C  
BRANCH  20  23
HETATM   23  C   UNL     1     -10.625  14.067  68.468  1.00  0.00    -0.254 A  
HETATM   24  N   UNL     1      -9.502  14.784  68.663  1.00  0.00    -0.209 NA 
HETATM   25  C   UNL     1      -9.616  15.990  69.244  1.00  0.00    -0.255 A  
HETATM   26  C   UNL     1     -10.808  16.515  69.668  1.00  0.00    -0.322 A  
HETATM   27  C   UNL     1     -11.899  15.717  69.445  1.00  0.00    -0.375 A  
HETATM   28  N   UNL     1     -11.835  14.515  68.846  1.00  0.00    -0.324 NA 
ENDBRANCH  20  23
ENDBRANCH  16  17
ENDBRANCH  15  16
ENDBRANCH  14  15
ENDBRANCH  13  14
ENDBRANCH   9  13
TORSDOF 6
ENDMDL
MODEL      146
REMARK 921   NORMALIZED FREE ENERGY PREDICTED BY IDOCK:   -3.99 KCAL/MOL
REMARK 922        TOTAL FREE ENERGY PREDICTED BY IDOCK:   -6.37 KCAL/MOL
REMARK 923 INTER-LIGAND FREE ENERGY PREDICTED BY IDOCK:   -5.76 KCAL/MOL
REMARK 924 INTRA-LIGAND FREE ENERGY PREDICTED BY IDOCK:   -0.61 KCAL/MOL
REMARK 927      BINDING AFFINITY PREDICTED BY RF-SCORE:    0.00 PKD
ROOT
HETATM    1  O   UNL     1      -9.328   5.443  70.011  1.00  0.00    -0.139 OA 
HETATM    2  C   UNL     1      -9.129   6.615  70.324  1.00  0.00    -0.156 C  
HETATM    3  C   UNL     1      -8.038   6.992  71.291  1.00  0.00    -0.108 C  
HETATM    4  C   UNL     1      -8.472   8.056  72.306  1.00  0.00    -0.206 C  
HETATM    5  C   UNL     1      -9.219   9.185  71.596  1.00  0.00    -0.088 C  
HETATM    6  C   UNL     1      -7.214   8.609  73.021  1.00  0.00     0.038 C  
HETATM    7  C   UNL     1     -10.265   8.674  70.638  1.00  0.00    -0.198 C  
HETATM    8  C   UNL     1      -7.429   8.366  74.508  1.00  0.00    -0.266 C  
HETATM    9  N   UNL     1      -9.795   7.698  69.781  1.00  0.00    -0.179 N  
HETATM   10  C   UNL     1      -8.349   7.161  74.558  1.00  0.00    -0.215 C  
HETATM   11  O   UNL     1     -11.398   9.147  70.609  1.00  0.00    -0.260 OA 
HETATM   12  C   UNL     1      -9.331   7.434  73.429  1.00  0.00    -0.260 C  
ENDROOT
BRANCH   9  13
HETATM   13  C   UNL     1     -10.517   7.486  68.541  1.00  0.00    -0.180 C  
BRANCH  13  14
HETATM   14  C   UNL     1      -9.538   7.493  67.361  1.00  0.00    -0.187 C  
BRANCH  14  15
HETATM   15  C   UNL     1      -9.233   8.898  66.857  1.00  0.00    -0.185 C  
BRANCH  15  16
HETATM   16  C   UNL     1     -10.084   9.986  67.524  1.00  0.00    -0.198 C  
BRANCH  16  17
HETATM   17  N   UNL     1     -10.733  10.903  66.567  1.00  0.00    -0.238 NA 
HETATM   18  C   UNL     1     -11.592  11.910  67.240  1.00  0.00    -0.293 C  
HETATM   19  C   UNL     1     -10.827  12.850  68.198  1.00  0.00    -0.236 C  
HETATM   20  N   UNL     1      -9.703  13.485  67.503  1.00  0.00    -0.222 NA 
HETATM   21  C   UNL     1      -9.709  11.657  65.798  1.00  0.00    -0.236 C  
HETATM   22  C   UNL     1      -8.868  12.646  66.640  1.00  0.00    -0.126 C  
BRANCH  20  23
HETATM   23  C   UNL     1      -9.797  14.835  67.266  1.00  0.00    -0.230 A  
HETATM   24  N   UNL     1      -8.920  15.392  66.409  1.00  0.00    -0.303 NA 
HETATM   25  C   UNL     1      -9.055  16.698  66.127  1.00  0.00    -0.283 A  
HETATM   26  C   UNL     1     -10.021  17.495  66.682  1.00  0.00    -0.314 A  
HETATM   27  C   UNL     1     -10.864  16.855  67.552  1.00  0.00    -0.207 A  
HETATM   28  N   UNL     1     -10.781  15.545  67.845  1.00  0.00    -0.285 NA 
ENDBRANCH  20  23
ENDBRANCH  16  17
ENDBRANCH  15  16
ENDBRANCH  14  15
ENDBRANCH  13  14
ENDBRANCH   9  13
TORSDOF 6
ENDMDL
MODEL      147
REMARK 921   NORMALIZED FREE ENERGY PREDICTED BY IDOCK:   -3.98 KCAL/MOL
REMARK 922        TOTAL FREE ENERGY PREDICTED BY IDOCK:   -6.36 KCAL/MOL
REMARK 923 INTER-LIGAND FREE ENERGY PREDICTED BY IDOCK:   -6.54 KCAL/MOL
REMARK 924 INTRA-LIGAND FREE ENERGY PREDICTED BY IDOCK:    0.19 KCAL/MOL
REMARK 927      BINDING AFFINITY PREDICTED BY RF-SCORE:    0.00 PKD
ROOT
HETATM    1  O   UNL     1      -9.784   7.958  70.648  1.00  0.00    -0.173 OA 
HETATM    2  C   UNL     1      -9.986   6.787  70.960  1.00  0.00    -0.182 C  
HETATM    3  C   UNL     1      -9.703   6.288  72.353  1.00  0.00    -0.162 C  
HETATM    4  C   UNL     1      -9.021   4.915  72.375  1.00  0.00    -0.140 C  
HETATM    5  C   UNL     1      -9.721   3.964  71.404  1.00  0.00    -0.246 C  
HETATM    6  C   UNL     1      -9.078   4.351  73.817  1.00  0.00    -0.104 C  
HETATM    7  C   UNL     1      -9.968   4.592  70.057  1.00  0.00    -0.232 C  
HETATM    8  C   UNL     1      -7.637   4.095  74.232  1.00  0.00    -0.076 C  
HETATM    9  N   UNL     1     -10.558   5.839  70.131  1.00  0.00    -0.282 N  
HETATM   10  C   UNL     1      -6.834   5.087  73.412  1.00  0.00    -0.074 C  
HETATM   11  O   UNL     1      -9.714   3.998  69.012  1.00  0.00    -0.169 OA 
HETATM   12  C   UNL     1      -7.515   5.038  72.052  1.00  0.00    -0.091 C  
ENDROOT
BRANCH   9  13
HETATM   13  C   UNL     1     -11.273   6.317  68.964  1.00  0.00    -0.343 C  
BRANCH  13  14
HETATM   14  C   UNL     1     -10.274   6.749  67.883  1.00  0.00    -0.207 C  
BRANCH  14  15
HETATM   15  C   UNL     1     -10.447   8.205  67.469  1.00  0.00    -0.326 C  
BRANCH  15  16
HETATM   16  C   UNL     1      -9.758   8.551  66.143  1.00  0.00    -0.189 C  
BRANCH  16  17
HETATM   17  N   UNL     1      -8.978   9.803  66.189  1.00  0.00    -0.147 NA 
HETATM   18  C   UNL     1      -8.941  10.496  64.876  1.00  0.00    -0.199 C  
HETATM   19  C   UNL     1     -10.328  10.939  64.359  1.00  0.00    -0.361 C  
HETATM   20  N   UNL     1     -11.018  11.746  65.370  1.00  0.00    -0.305 NA 
HETATM   21  C   UNL     1      -9.581  10.754  67.158  1.00  0.00    -0.161 C  
HETATM   22  C   UNL     1     -10.977  11.284  66.760  1.00  0.00    -0.281 C  
BRANCH  20  23
HETATM   23  C   UNL     1     -11.187  13.081  65.095  1.00  0.00    -0.293 A  
HETATM   24  N   UNL     1     -10.197  13.930  65.430  1.00  0.00    -0.335 NA 
HETATM   25  C   UNL     1     -10.335  15.224  65.100  1.00  0.00    -0.381 A  
HETATM   26  C   UNL     1     -11.439  15.728  64.464  1.00  0.00    -0.292 A  
HETATM   27  C   UNL     1     -12.405  14.803  64.171  1.00  0.00    -0.231 A  
HETATM   28  N   UNL     1     -12.299  13.494  64.460  1.00  0.00    -0.560 NA 
ENDBRANCH  20  23
ENDBRANCH  16  17
ENDBRANCH  15  16
ENDBRANCH  14  15
ENDBRANCH  13  14
ENDBRANCH   9  13
TORSDOF 6
ENDMDL
MODEL      148
REMARK 921   NORMALIZED FREE ENERGY PREDICTED BY IDOCK:   -3.98 KCAL/MOL
REMARK 922        TOTAL FREE ENERGY PREDICTED BY IDOCK:   -6.35 KCAL/MOL
REMARK 923 INTER-LIGAND FREE ENERGY PREDICTED BY IDOCK:   -5.62 KCAL/MOL
REMARK 924 INTRA-LIGAND FREE ENERGY PREDICTED BY IDOCK:   -0.73 KCAL/MOL
REMARK 927      BINDING AFFINITY PREDICTED BY RF-SCORE:    0.00 PKD
ROOT
HETATM    1  O   UNL     1     -11.371  14.779  66.089  1.00  0.00    -0.341 OA 
HETATM    2  C   UNL     1     -10.586  15.260  66.903  1.00  0.00    -0.304 C  
HETATM    3  C   UNL     1     -10.911  16.527  67.650  1.00  0.00    -0.207 C  
HETATM    4  C   UNL     1      -9.723  17.490  67.749  1.00  0.00    -0.274 C  
HETATM    5  C   UNL     1      -8.460  16.728  68.152  1.00  0.00    -0.213 C  
HETATM    6  C   UNL     1     -10.050  18.582  68.798  1.00  0.00    -0.394 C  
HETATM    7  C   UNL     1      -8.265  15.468  67.347  1.00  0.00    -0.177 C  
HETATM    8  C   UNL     1      -9.940  19.915  68.074  1.00  0.00    -0.556 C  
HETATM    9  N   UNL     1      -9.393  14.674  67.286  1.00  0.00    -0.201 N  
HETATM   10  C   UNL     1     -10.245  19.577  66.627  1.00  0.00    -0.553 C  
HETATM   11  O   UNL     1      -7.175  15.177  66.861  1.00  0.00    -0.141 OA 
HETATM   12  C   UNL     1      -9.517  18.257  66.424  1.00  0.00    -0.290 C  
ENDROOT
BRANCH   9  13
HETATM   13  C   UNL     1      -9.212  13.268  66.984  1.00  0.00    -0.237 C  
BRANCH  13  14
HETATM   14  C   UNL     1      -9.796  12.413  68.116  1.00  0.00    -0.213 C  
BRANCH  14  15
HETATM   15  C   UNL     1     -10.800  11.382  67.618  1.00  0.00    -0.286 C  
BRANCH  15  16
HETATM   16  C   UNL     1     -10.251   9.951  67.599  1.00  0.00    -0.208 C  
BRANCH  16  17
HETATM   17  N   UNL     1      -8.784   9.879  67.450  1.00  0.00    -0.128 NA 
HETATM   18  C   UNL     1      -8.198   8.712  68.157  1.00  0.00    -0.115 C  
HETATM   19  C   UNL     1      -8.694   7.346  67.631  1.00  0.00    -0.125 C  
HETATM   20  N   UNL     1      -8.493   7.250  66.182  1.00  0.00    -0.135 NA 
HETATM   21  C   UNL     1      -8.415   9.743  66.017  1.00  0.00    -0.124 C  
HETATM   22  C   UNL     1      -8.849   8.411  65.363  1.00  0.00    -0.103 C  
BRANCH  20  23
HETATM   23  C   UNL     1      -7.539   6.364  65.741  1.00  0.00    -0.085 A  
HETATM   24  N   UNL     1      -7.568   5.993  64.447  1.00  0.00    -0.086 NA 
HETATM   25  C   UNL     1      -6.597   5.180  64.002  1.00  0.00    -0.038 A  
HETATM   26  C   UNL     1      -5.596   4.690  64.799  1.00  0.00    -0.014 A  
HETATM   27  C   UNL     1      -5.647   5.105  66.104  1.00  0.00    -0.017 A  
HETATM   28  N   UNL     1      -6.586   5.937  66.587  1.00  0.00    -0.054 NA 
ENDBRANCH  20  23
ENDBRANCH  16  17
ENDBRANCH  15  16
ENDBRANCH  14  15
ENDBRANCH  13  14
ENDBRANCH   9  13
TORSDOF 6
ENDMDL
MODEL      149
REMARK 921   NORMALIZED FREE ENERGY PREDICTED BY IDOCK:   -3.97 KCAL/MOL
REMARK 922        TOTAL FREE ENERGY PREDICTED BY IDOCK:   -6.34 KCAL/MOL
REMARK 923 INTER-LIGAND FREE ENERGY PREDICTED BY IDOCK:   -5.95 KCAL/MOL
REMARK 924 INTRA-LIGAND FREE ENERGY PREDICTED BY IDOCK:   -0.39 KCAL/MOL
REMARK 927      BINDING AFFINITY PREDICTED BY RF-SCORE:    0.00 PKD
ROOT
HETATM    1  O   UNL     1     -12.430   7.974  70.974  1.00  0.00    -0.239 OA 
HETATM    2  C   UNL     1     -11.431   7.280  70.800  1.00  0.00    -0.299 C  
HETATM    3  C   UNL     1     -11.391   5.840  71.238  1.00  0.00    -0.154 C  
HETATM    4  C   UNL     1     -10.068   5.449  71.906  1.00  0.00    -0.246 C  
HETATM    5  C   UNL     1      -8.889   5.980  71.091  1.00  0.00    -0.139 C  
HETATM    6  C   UNL     1      -9.997   3.905  72.012  1.00  0.00    -0.241 C  
HETATM    7  C   UNL     1      -9.064   7.424  70.695  1.00  0.00    -0.156 C  
HETATM    8  C   UNL     1      -9.823   3.586  73.489  1.00  0.00    -0.158 C  
HETATM    9  N   UNL     1     -10.294   7.693  70.128  1.00  0.00    -0.212 N  
HETATM   10  C   UNL     1     -10.463   4.763  74.200  1.00  0.00    -0.335 C  
HETATM   11  O   UNL     1      -8.157   8.242  70.821  1.00  0.00    -0.098 OA 
HETATM   12  C   UNL     1     -10.014   5.953  73.366  1.00  0.00    -0.182 C  
ENDROOT
BRANCH   9  13
HETATM   13  C   UNL     1     -10.406   8.869  69.287  1.00  0.00    -0.213 C  
BRANCH  13  14
HETATM   14  C   UNL     1     -10.484   8.450  67.813  1.00  0.00    -0.284 C  
BRANCH  14  15
HETATM   15  C   UNL     1      -9.884   9.488  66.873  1.00  0.00    -0.262 C  
BRANCH  15  16
HETATM   16  C   UNL     1     -10.868   9.994  65.812  1.00  0.00     0.478 C  
BRANCH  16  17
HETATM   17  N   UNL     1     -10.291  11.000  64.898  1.00  0.00    -0.305 NA 
HETATM   18  C   UNL     1     -11.302  11.975  64.417  1.00  0.00    -0.345 C  
HETATM   19  C   UNL     1     -11.947  12.818  65.541  1.00  0.00    -0.449 C  
HETATM   20  N   UNL     1     -10.913  13.473  66.348  1.00  0.00    -0.292 NA 
HETATM   21  C   UNL     1      -9.235  11.782  65.591  1.00  0.00    -0.100 C  
HETATM   22  C   UNL     1      -9.746  12.680  66.742  1.00  0.00    -0.240 C  
BRANCH  20  23
HETATM   23  C   UNL     1     -10.812  14.839  66.244  1.00  0.00    -0.322 A  
HETATM   24  N   UNL     1     -10.880  15.569  67.374  1.00  0.00    -0.309 NA 
HETATM   25  C   UNL     1     -10.715  16.898  67.279  1.00  0.00    -0.208 A  
HETATM   26  C   UNL     1     -10.505  17.550  66.093  1.00  0.00    -0.288 A  
HETATM   27  C   UNL     1     -10.463  16.738  64.990  1.00  0.00     0.077 A  
HETATM   28  N   UNL     1     -10.599  15.401  65.042  1.00  0.00    -0.431 NA 
ENDBRANCH  20  23
ENDBRANCH  16  17
ENDBRANCH  15  16
ENDBRANCH  14  15
ENDBRANCH  13  14
ENDBRANCH   9  13
TORSDOF 6
ENDMDL
MODEL      150
REMARK 921   NORMALIZED FREE ENERGY PREDICTED BY IDOCK:   -3.97 KCAL/MOL
REMARK 922        TOTAL FREE ENERGY PREDICTED BY IDOCK:   -6.34 KCAL/MOL
REMARK 923 INTER-LIGAND FREE ENERGY PREDICTED BY IDOCK:   -6.04 KCAL/MOL
REMARK 924 INTRA-LIGAND FREE ENERGY PREDICTED BY IDOCK:   -0.30 KCAL/MOL
REMARK 927      BINDING AFFINITY PREDICTED BY RF-SCORE:    0.00 PKD
ROOT
HETATM    1  O   UNL     1      -9.158  10.044  70.185  1.00  0.00    -0.181 OA 
HETATM    2  C   UNL     1      -9.351   9.768  69.003  1.00  0.00    -0.161 C  
HETATM    3  C   UNL     1      -8.233   9.283  68.119  1.00  0.00    -0.119 C  
HETATM    4  C   UNL     1      -8.247   9.918  66.724  1.00  0.00    -0.124 C  
HETATM    5  C   UNL     1      -9.666   9.904  66.154  1.00  0.00    -0.297 C  
HETATM    6  C   UNL     1      -7.289   9.123  65.802  1.00  0.00    -0.090 C  
HETATM    7  C   UNL     1     -10.692  10.388  67.146  1.00  0.00    -0.256 C  
HETATM    8  C   UNL     1      -6.267  10.125  65.285  1.00  0.00    -0.118 C  
HETATM    9  N   UNL     1     -10.588   9.785  68.384  1.00  0.00    -0.218 N  
HETATM   10  C   UNL     1      -6.212  11.189  66.365  1.00  0.00    -0.127 C  
HETATM   11  O   UNL     1     -11.561  11.196  66.830  1.00  0.00    -0.428 OA 
HETATM   12  C   UNL     1      -7.672  11.351  66.761  1.00  0.00    -0.150 C  
ENDROOT
BRANCH   9  13
HETATM   13  C   UNL     1     -11.761   9.787  69.236  1.00  0.00     0.274 C  
BRANCH  13  14
HETATM   14  C   UNL     1     -12.401  11.181  69.237  1.00  0.00    -0.170 C  
BRANCH  14  15
HETATM   15  C   UNL     1     -12.076  11.977  70.494  1.00  0.00    -0.402 C  
BRANCH  15  16
HETATM   16  C   UNL     1     -11.539  13.384  70.206  1.00  0.00    -0.042 C  
BRANCH  16  17
HETATM   17  N   UNL     1     -11.130  13.588  68.802  1.00  0.00    -0.255 NA 
HETATM   18  C   UNL     1     -11.864  14.705  68.155  1.00  0.00    -0.298 C  
HETATM   19  C   UNL     1     -11.626  16.081  68.817  1.00  0.00    -0.351 C  
HETATM   20  N   UNL     1     -10.191  16.365  68.907  1.00  0.00    -0.242 NA 
HETATM   21  C   UNL     1      -9.685  13.924  68.728  1.00  0.00    -0.093 C  
HETATM   22  C   UNL     1      -9.305  15.287  69.353  1.00  0.00    -0.228 C  
BRANCH  20  23
HETATM   23  C   UNL     1      -9.701  17.370  68.108  1.00  0.00    -0.291 A  
HETATM   24  N   UNL     1     -10.523  17.905  67.185  1.00  0.00    -0.366 NA 
HETATM   25  C   UNL     1     -10.065  18.931  66.450  1.00  0.00    -0.409 A  
HETATM   26  C   UNL     1      -8.800  19.444  66.574  1.00  0.00    -0.382 A  
HETATM   27  C   UNL     1      -8.024  18.835  67.524  1.00  0.00    -0.244 A  
HETATM   28  N   UNL     1      -8.449  17.822  68.299  1.00  0.00    -0.269 NA 
ENDBRANCH  20  23
ENDBRANCH  16  17
ENDBRANCH  15  16
ENDBRANCH  14  15
ENDBRANCH  13  14
ENDBRANCH   9  13
TORSDOF 6
ENDMDL
MODEL      151
REMARK 921   NORMALIZED FREE ENERGY PREDICTED BY IDOCK:   -3.96 KCAL/MOL
REMARK 922        TOTAL FREE ENERGY PREDICTED BY IDOCK:   -6.33 KCAL/MOL
REMARK 923 INTER-LIGAND FREE ENERGY PREDICTED BY IDOCK:   -5.65 KCAL/MOL
REMARK 924 INTRA-LIGAND FREE ENERGY PREDICTED BY IDOCK:   -0.68 KCAL/MOL
REMARK 927      BINDING AFFINITY PREDICTED BY RF-SCORE:    0.00 PKD
ROOT
HETATM    1  O   UNL     1     -11.193   7.089  68.216  1.00  0.00    -0.058 OA 
HETATM    2  C   UNL     1     -10.157   7.667  67.897  1.00  0.00    -0.185 C  
HETATM    3  C   UNL     1      -9.624   7.600  66.490  1.00  0.00    -0.254 C  
HETATM    4  C   UNL     1      -8.106   7.399  66.428  1.00  0.00    -0.118 C  
HETATM    5  C   UNL     1      -7.410   8.340  67.410  1.00  0.00    -0.092 C  
HETATM    6  C   UNL     1      -7.622   7.675  64.982  1.00  0.00    -0.097 C  
HETATM    7  C   UNL     1      -8.054   8.333  68.773  1.00  0.00    -0.115 C  
HETATM    8  C   UNL     1      -6.925   6.406  64.516  1.00  0.00    -0.048 C  
HETATM    9  N   UNL     1      -9.426   8.491  68.733  1.00  0.00    -0.143 N  
HETATM   10  C   UNL     1      -7.586   5.303  65.320  1.00  0.00    -0.082 C  
HETATM   11  O   UNL     1      -7.387   8.255  69.801  1.00  0.00    -0.062 OA 
HETATM   12  C   UNL     1      -7.730   5.925  66.701  1.00  0.00    -0.100 C  
ENDROOT
BRANCH   9  13
HETATM   13  C   UNL     1     -10.083   8.980  69.930  1.00  0.00    -0.201 C  
BRANCH  13  14
HETATM   14  C   UNL     1     -10.561  10.420  69.710  1.00  0.00    -0.302 C  
BRANCH  14  15
HETATM   15  C   UNL     1     -10.119  10.989  68.368  1.00  0.00    -0.194 C  
BRANCH  15  16
HETATM   16  C   UNL     1      -9.628  12.439  68.449  1.00  0.00    -0.180 C  
BRANCH  16  17
HETATM   17  N   UNL     1      -9.824  13.204  67.202  1.00  0.00    -0.231 NA 
HETATM   18  C   UNL     1     -10.934  14.185  67.308  1.00  0.00    -0.297 C  
HETATM   19  C   UNL     1     -10.711  15.273  68.382  1.00  0.00    -0.250 C  
HETATM   20  N   UNL     1      -9.423  15.943  68.174  1.00  0.00    -0.202 NA 
HETATM   21  C   UNL     1      -8.599  13.976  66.870  1.00  0.00    -0.125 C  
HETATM   22  C   UNL     1      -8.259  15.108  67.867  1.00  0.00    -0.146 C  
BRANCH  20  23
HETATM   23  C   UNL     1      -9.459  17.252  67.758  1.00  0.00    -0.255 A  
HETATM   24  N   UNL     1     -10.659  17.857  67.670  1.00  0.00    -0.401 NA 
HETATM   25  C   UNL     1     -10.688  19.155  67.328  1.00  0.00    -0.488 A  
HETATM   26  C   UNL     1      -9.565  19.886  67.041  1.00  0.00    -0.515 A  
HETATM   27  C   UNL     1      -8.388  19.193  67.140  1.00  0.00    -0.279 A  
HETATM   28  N   UNL     1      -8.310  17.901  67.503  1.00  0.00    -0.226 NA 
ENDBRANCH  20  23
ENDBRANCH  16  17
ENDBRANCH  15  16
ENDBRANCH  14  15
ENDBRANCH  13  14
ENDBRANCH   9  13
TORSDOF 6
ENDMDL
MODEL      152
REMARK 921   NORMALIZED FREE ENERGY PREDICTED BY IDOCK:   -3.95 KCAL/MOL
REMARK 922        TOTAL FREE ENERGY PREDICTED BY IDOCK:   -6.32 KCAL/MOL
REMARK 923 INTER-LIGAND FREE ENERGY PREDICTED BY IDOCK:   -6.30 KCAL/MOL
REMARK 924 INTRA-LIGAND FREE ENERGY PREDICTED BY IDOCK:   -0.02 KCAL/MOL
REMARK 927      BINDING AFFINITY PREDICTED BY RF-SCORE:    0.00 PKD
ROOT
HETATM    1  O   UNL     1     -10.000  14.586  65.424  1.00  0.00    -0.352 OA 
HETATM    2  C   UNL     1     -10.570  15.298  66.248  1.00  0.00    -0.309 C  
HETATM    3  C   UNL     1     -10.455  16.799  66.199  1.00  0.00    -0.282 C  
HETATM    4  C   UNL     1     -10.257  17.435  67.579  1.00  0.00    -0.332 C  
HETATM    5  C   UNL     1     -11.234  16.825  68.584  1.00  0.00    -0.170 C  
HETATM    6  C   UNL     1     -10.485  18.963  67.464  1.00  0.00    -0.522 C  
HETATM    7  C   UNL     1     -11.272  15.320  68.514  1.00  0.00    -0.303 C  
HETATM    8  C   UNL     1      -9.203  19.623  67.948  1.00  0.00    -0.410 C  
HETATM    9  N   UNL     1     -11.424  14.833  67.231  1.00  0.00    -0.361 N  
HETATM   10  C   UNL     1      -8.126  18.592  67.665  1.00  0.00    -0.262 C  
HETATM   11  O   UNL     1     -11.231  14.627  69.527  1.00  0.00    -0.251 OA 
HETATM   12  C   UNL     1      -8.795  17.282  68.055  1.00  0.00    -0.238 C  
ENDROOT
BRANCH   9  13
HETATM   13  C   UNL     1     -11.952  13.491  67.077  1.00  0.00    -0.394 C  
BRANCH  13  14
HETATM   14  C   UNL     1     -11.053  12.491  67.814  1.00  0.00    -0.291 C  
BRANCH  14  15
HETATM   15  C   UNL     1     -10.480  11.422  66.891  1.00  0.00    -0.278 C  
BRANCH  15  16
HETATM   16  C   UNL     1     -10.310  10.057  67.567  1.00  0.00    -0.232 C  
BRANCH  16  17
HETATM   17  N   UNL     1      -8.950   9.497  67.440  1.00  0.00    -0.131 NA 
HETATM   18  C   UNL     1      -8.248   9.410  68.746  1.00  0.00    -0.108 C  
HETATM   19  C   UNL     1      -8.939   8.484  69.771  1.00  0.00    -0.145 C  
HETATM   20  N   UNL     1      -9.159   7.154  69.194  1.00  0.00    -0.137 NA 
HETATM   21  C   UNL     1      -9.007   8.117  66.892  1.00  0.00    -0.140 C  
HETATM   22  C   UNL     1      -9.674   7.079  67.824  1.00  0.00    -0.135 C  
BRANCH  20  23
HETATM   23  C   UNL     1      -8.415   6.119  69.706  1.00  0.00    -0.128 A  
HETATM   24  N   UNL     1      -8.616   5.767  70.990  1.00  0.00    -0.129 NA 
HETATM   25  C   UNL     1      -7.936   4.714  71.470  1.00  0.00    -0.100 A  
HETATM   26  C   UNL     1      -7.033   3.996  70.729  1.00  0.00    -0.033 A  
HETATM   27  C   UNL     1      -6.878   4.427  69.438  1.00  0.00    -0.046 A  
HETATM   28  N   UNL     1      -7.555   5.461  68.909  1.00  0.00    -0.078 NA 
ENDBRANCH  20  23
ENDBRANCH  16  17
ENDBRANCH  15  16
ENDBRANCH  14  15
ENDBRANCH  13  14
ENDBRANCH   9  13
TORSDOF 6
ENDMDL
MODEL      153
REMARK 921   NORMALIZED FREE ENERGY PREDICTED BY IDOCK:   -3.94 KCAL/MOL
REMARK 922        TOTAL FREE ENERGY PREDICTED BY IDOCK:   -6.30 KCAL/MOL
REMARK 923 INTER-LIGAND FREE ENERGY PREDICTED BY IDOCK:   -6.02 KCAL/MOL
REMARK 924 INTRA-LIGAND FREE ENERGY PREDICTED BY IDOCK:   -0.28 KCAL/MOL
REMARK 927      BINDING AFFINITY PREDICTED BY RF-SCORE:    0.00 PKD
ROOT
HETATM    1  O   UNL     1     -10.672   7.399  69.299  1.00  0.00    -0.223 OA 
HETATM    2  C   UNL     1      -9.900   6.593  69.811  1.00  0.00    -0.162 C  
HETATM    3  C   UNL     1     -10.376   5.245  70.285  1.00  0.00    -0.350 C  
HETATM    4  C   UNL     1      -9.789   4.838  71.640  1.00  0.00    -0.248 C  
HETATM    5  C   UNL     1      -8.285   5.113  71.666  1.00  0.00    -0.116 C  
HETATM    6  C   UNL     1     -10.065   3.332  71.875  1.00  0.00    -0.153 C  
HETATM    7  C   UNL     1      -7.940   6.485  71.145  1.00  0.00    -0.112 C  
HETATM    8  C   UNL     1     -10.847   3.240  73.176  1.00  0.00    -0.241 C  
HETATM    9  N   UNL     1      -8.534   6.778  69.934  1.00  0.00    -0.138 N  
HETATM   10  C   UNL     1     -11.565   4.573  73.273  1.00  0.00    -0.254 C  
HETATM   11  O   UNL     1      -7.152   7.219  71.736  1.00  0.00    -0.066 OA 
HETATM   12  C   UNL     1     -10.512   5.563  72.798  1.00  0.00    -0.251 C  
ENDROOT
BRANCH   9  13
HETATM   13  C   UNL     1      -7.925   7.809  69.115  1.00  0.00    -0.119 C  
BRANCH  13  14
HETATM   14  C   UNL     1      -8.052   9.169  69.812  1.00  0.00    -0.111 C  
BRANCH  14  15
HETATM   15  C   UNL     1      -6.994  10.166  69.355  1.00  0.00    -0.076 C  
BRANCH  15  16
HETATM   16  C   UNL     1      -7.554  11.562  69.060  1.00  0.00    -0.058 C  
BRANCH  16  17
HETATM   17  N   UNL     1      -7.287  12.031  67.686  1.00  0.00    -0.111 NA 
HETATM   18  C   UNL     1      -7.881  11.140  66.657  1.00  0.00    -0.155 C  
HETATM   19  C   UNL     1      -9.421  11.041  66.725  1.00  0.00    -0.182 C  
HETATM   20  N   UNL     1     -10.023  12.377  66.687  1.00  0.00    -0.221 NA 
HETATM   21  C   UNL     1      -7.874  13.380  67.477  1.00  0.00    -0.176 C  
HETATM   22  C   UNL     1      -9.420  13.425  67.515  1.00  0.00    -0.219 C  
BRANCH  20  23
HETATM   23  C   UNL     1     -10.724  12.715  65.554  1.00  0.00    -0.274 A  
HETATM   24  N   UNL     1     -10.855  11.787  64.588  1.00  0.00    -0.295 NA 
HETATM   25  C   UNL     1     -11.595  12.095  63.511  1.00  0.00    -0.474 A  
HETATM   26  C   UNL     1     -12.203  13.311  63.335  1.00  0.00    -0.476 A  
HETATM   27  C   UNL     1     -12.010  14.203  64.357  1.00  0.00    -0.457 A  
HETATM   28  N   UNL     1     -11.297  13.928  65.463  1.00  0.00    -0.304 NA 
ENDBRANCH  20  23
ENDBRANCH  16  17
ENDBRANCH  15  16
ENDBRANCH  14  15
ENDBRANCH  13  14
ENDBRANCH   9  13
TORSDOF 6
ENDMDL
MODEL      154
REMARK 921   NORMALIZED FREE ENERGY PREDICTED BY IDOCK:   -3.91 KCAL/MOL
REMARK 922        TOTAL FREE ENERGY PREDICTED BY IDOCK:   -6.26 KCAL/MOL
REMARK 923 INTER-LIGAND FREE ENERGY PREDICTED BY IDOCK:   -6.33 KCAL/MOL
REMARK 924 INTRA-LIGAND FREE ENERGY PREDICTED BY IDOCK:    0.08 KCAL/MOL
REMARK 927      BINDING AFFINITY PREDICTED BY RF-SCORE:    0.00 PKD
ROOT
HETATM    1  O   UNL     1     -10.878   8.708  69.338  1.00  0.00    -0.197 OA 
HETATM    2  C   UNL     1      -9.765   8.253  69.594  1.00  0.00    -0.173 C  
HETATM    3  C   UNL     1      -9.575   7.202  70.656  1.00  0.00    -0.165 C  
HETATM    4  C   UNL     1      -8.349   7.453  71.541  1.00  0.00    -0.109 C  
HETATM    5  C   UNL     1      -7.143   7.822  70.677  1.00  0.00    -0.049 C  
HETATM    6  C   UNL     1      -8.052   6.173  72.361  1.00  0.00    -0.105 C  
HETATM    7  C   UNL     1      -7.473   8.864  69.639  1.00  0.00    -0.071 C  
HETATM    8  C   UNL     1      -8.098   6.585  73.825  1.00  0.00    -0.108 C  
HETATM    9  N   UNL     1      -8.607   8.572  68.908  1.00  0.00    -0.127 N  
HETATM   10  C   UNL     1      -9.036   7.777  73.846  1.00  0.00    -0.317 C  
HETATM   11  O   UNL     1      -6.745   9.834  69.446  1.00  0.00    -0.050 OA 
HETATM   12  C   UNL     1      -8.639   8.546  72.594  1.00  0.00    -0.185 C  
ENDROOT
BRANCH   9  13
HETATM   13  C   UNL     1      -8.753   9.199  67.609  1.00  0.00    -0.120 C  
BRANCH  13  14
HETATM   14  C   UNL     1      -9.017  10.700  67.782  1.00  0.00    -0.140 C  
BRANCH  14  15
HETATM   15  C   UNL     1     -10.093  11.222  66.838  1.00  0.00    -0.246 C  
BRANCH  15  16
HETATM   16  C   UNL     1      -9.943  12.710  66.502  1.00  0.00    -0.251 C  
BRANCH  16  17
HETATM   17  N   UNL     1     -11.204  13.471  66.600  1.00  0.00    -0.306 NA 
HETATM   18  C   UNL     1     -12.159  12.865  67.563  1.00  0.00    -0.192 C  
HETATM   19  C   UNL     1     -11.638  12.814  69.017  1.00  0.00    -0.316 C  
HETATM   20  N   UNL     1     -11.211  14.145  69.455  1.00  0.00    -0.243 NA 
HETATM   21  C   UNL     1     -10.938  14.854  67.074  1.00  0.00    -0.327 C  
HETATM   22  C   UNL     1     -10.414  14.950  68.526  1.00  0.00    -0.242 C  
BRANCH  20  23
HETATM   23  C   UNL     1     -11.975  14.762  70.417  1.00  0.00    -0.309 A  
HETATM   24  N   UNL     1     -13.286  14.461  70.476  1.00  0.00    -0.170 NA 
HETATM   25  C   UNL     1     -14.018  15.013  71.457  1.00  0.00    -0.501 A  
HETATM   26  C   UNL     1     -13.505  15.882  72.384  1.00  0.00    -0.440 A  
HETATM   27  C   UNL     1     -12.168  16.146  72.246  1.00  0.00    -0.496 A  
HETATM   28  N   UNL     1     -11.392  15.598  71.295  1.00  0.00    -0.377 NA 
ENDBRANCH  20  23
ENDBRANCH  16  17
ENDBRANCH  15  16
ENDBRANCH  14  15
ENDBRANCH  13  14
ENDBRANCH   9  13
TORSDOF 6
ENDMDL
MODEL      155
REMARK 921   NORMALIZED FREE ENERGY PREDICTED BY IDOCK:   -3.90 KCAL/MOL
REMARK 922        TOTAL FREE ENERGY PREDICTED BY IDOCK:   -6.24 KCAL/MOL
REMARK 923 INTER-LIGAND FREE ENERGY PREDICTED BY IDOCK:   -5.32 KCAL/MOL
REMARK 924 INTRA-LIGAND FREE ENERGY PREDICTED BY IDOCK:   -0.92 KCAL/MOL
REMARK 927      BINDING AFFINITY PREDICTED BY RF-SCORE:    0.00 PKD
ROOT
HETATM    1  O   UNL     1      -9.880   6.030  67.540  1.00  0.00    -0.115 OA 
HETATM    2  C   UNL     1      -9.203   5.075  67.168  1.00  0.00    -0.120 C  
HETATM    3  C   UNL     1      -8.524   5.073  65.823  1.00  0.00    -0.124 C  
HETATM    4  C   UNL     1      -8.638   3.731  65.091  1.00  0.00    -0.113 C  
HETATM    5  C   UNL     1      -8.329   2.581  66.049  1.00  0.00    -0.093 C  
HETATM    6  C   UNL     1      -7.645   3.723  63.902  1.00  0.00    -0.074 C  
HETATM    7  C   UNL     1      -9.050   2.715  67.366  1.00  0.00    -0.174 C  
HETATM    8  C   UNL     1      -8.478   3.475  62.653  1.00  0.00    -0.081 C  
HETATM    9  N   UNL     1      -8.918   3.963  67.941  1.00  0.00    -0.115 N  
HETATM   10  C   UNL     1      -9.850   4.018  63.008  1.00  0.00    -0.144 C  
HETATM   11  O   UNL     1      -9.637   1.765  67.878  1.00  0.00    -0.156 OA 
HETATM   12  C   UNL     1     -10.034   3.567  64.450  1.00  0.00    -0.185 C  
ENDROOT
BRANCH   9  13
HETATM   13  C   UNL     1      -9.130   4.073  69.371  1.00  0.00    -0.127 C  
BRANCH  13  14
HETATM   14  C   UNL     1      -7.827   4.498  70.059  1.00  0.00    -0.057 C  
BRANCH  14  15
HETATM   15  C   UNL     1      -8.029   4.876  71.521  1.00  0.00    -0.110 C  
BRANCH  15  16
HETATM   16  C   UNL     1      -9.448   5.363  71.837  1.00  0.00    -0.149 C  
BRANCH  16  17
HETATM   17  N   UNL     1      -9.486   6.586  72.663  1.00  0.00    -0.148 NA 
HETATM   18  C   UNL     1      -9.019   7.785  71.923  1.00  0.00    -0.128 C  
HETATM   19  C   UNL     1      -9.882   8.139  70.691  1.00  0.00    -0.181 C  
HETATM   20  N   UNL     1     -11.293   8.261  71.071  1.00  0.00    -0.265 NA 
HETATM   21  C   UNL     1     -10.877   6.868  73.104  1.00  0.00    -0.296 C  
HETATM   22  C   UNL     1     -11.852   7.244  71.965  1.00  0.00    -0.296 C  
BRANCH  20  23
HETATM   23  C   UNL     1     -11.844   9.519  71.032  1.00  0.00    -0.330 A  
HETATM   24  N   UNL     1     -12.776   9.833  71.951  1.00  0.00    -0.404 NA 
HETATM   25  C   UNL     1     -13.266  11.084  71.953  1.00  0.00    -0.398 A  
HETATM   26  C   UNL     1     -12.884  12.046  71.055  1.00  0.00    -0.279 A  
HETATM   27  C   UNL     1     -11.942  11.642  70.146  1.00  0.00    -0.359 A  
HETATM   28  N   UNL     1     -11.407  10.409  70.123  1.00  0.00    -0.300 NA 
ENDBRANCH  20  23
ENDBRANCH  16  17
ENDBRANCH  15  16
ENDBRANCH  14  15
ENDBRANCH  13  14
ENDBRANCH   9  13
TORSDOF 6
ENDMDL
MODEL      156
REMARK 921   NORMALIZED FREE ENERGY PREDICTED BY IDOCK:   -3.87 KCAL/MOL
REMARK 922        TOTAL FREE ENERGY PREDICTED BY IDOCK:   -6.20 KCAL/MOL
REMARK 923 INTER-LIGAND FREE ENERGY PREDICTED BY IDOCK:   -5.24 KCAL/MOL
REMARK 924 INTRA-LIGAND FREE ENERGY PREDICTED BY IDOCK:   -0.96 KCAL/MOL
REMARK 927      BINDING AFFINITY PREDICTED BY RF-SCORE:    0.00 PKD
ROOT
HETATM    1  O   UNL     1      -9.472   7.952  66.411  1.00  0.00    -0.200 OA 
HETATM    2  C   UNL     1      -8.812   7.072  66.958  1.00  0.00    -0.124 C  
HETATM    3  C   UNL     1      -8.102   6.013  66.155  1.00  0.00    -0.110 C  
HETATM    4  C   UNL     1      -8.235   4.609  66.757  1.00  0.00    -0.106 C  
HETATM    5  C   UNL     1      -7.979   4.655  68.263  1.00  0.00    -0.084 C  
HETATM    6  C   UNL     1      -7.216   3.669  66.066  1.00  0.00    -0.068 C  
HETATM    7  C   UNL     1      -8.727   5.774  68.943  1.00  0.00    -0.111 C  
HETATM    8  C   UNL     1      -8.027   2.531  65.463  1.00  0.00    -0.082 C  
HETATM    9  N   UNL     1      -8.575   6.996  68.318  1.00  0.00    -0.129 N  
HETATM   10  C   UNL     1      -9.391   3.143  65.206  1.00  0.00    -0.135 C  
HETATM   11  O   UNL     1      -9.351   5.592  69.985  1.00  0.00    -0.141 OA 
HETATM   12  C   UNL     1      -9.620   4.000  66.442  1.00  0.00    -0.217 C  
ENDROOT
BRANCH   9  13
HETATM   13  C   UNL     1      -8.816   8.190  69.105  1.00  0.00    -0.144 C  
BRANCH  13  14
HETATM   14  C   UNL     1      -7.544   8.577  69.868  1.00  0.00    -0.071 C  
BRANCH  14  15
HETATM   15  C   UNL     1      -6.701   9.606  69.125  1.00  0.00    -0.049 C  
BRANCH  15  16
HETATM   16  C   UNL     1      -7.348  10.995  69.060  1.00  0.00    -0.123 C  
BRANCH  16  17
HETATM   17  N   UNL     1      -7.162  11.676  67.764  1.00  0.00    -0.094 NA 
HETATM   18  C   UNL     1      -7.992  11.080  66.686  1.00  0.00    -0.156 C  
HETATM   19  C   UNL     1      -9.513  11.169  66.941  1.00  0.00    -0.185 C  
HETATM   20  N   UNL     1      -9.907  12.554  67.213  1.00  0.00    -0.202 NA 
HETATM   21  C   UNL     1      -7.559  13.105  67.869  1.00  0.00    -0.147 C  
HETATM   22  C   UNL     1      -9.066  13.340  68.120  1.00  0.00    -0.207 C  
BRANCH  20  23
HETATM   23  C   UNL     1     -10.667  13.187  66.259  1.00  0.00    -0.284 A  
HETATM   24  N   UNL     1     -11.823  12.609  65.882  1.00  0.00    -0.429 NA 
HETATM   25  C   UNL     1     -12.597  13.260  64.999  1.00  0.00    -0.423 A  
HETATM   26  C   UNL     1     -12.260  14.468  64.445  1.00  0.00    -0.480 A  
HETATM   27  C   UNL     1     -11.063  14.981  64.871  1.00  0.00    -0.415 A  
HETATM   28  N   UNL     1     -10.269  14.375  65.771  1.00  0.00    -0.320 NA 
ENDBRANCH  20  23
ENDBRANCH  16  17
ENDBRANCH  15  16
ENDBRANCH  14  15
ENDBRANCH  13  14
ENDBRANCH   9  13
TORSDOF 6
ENDMDL
MODEL      157
REMARK 921   NORMALIZED FREE ENERGY PREDICTED BY IDOCK:   -3.82 KCAL/MOL
REMARK 922        TOTAL FREE ENERGY PREDICTED BY IDOCK:   -6.14 KCAL/MOL
REMARK 923 INTER-LIGAND FREE ENERGY PREDICTED BY IDOCK:   -5.05 KCAL/MOL
REMARK 924 INTRA-LIGAND FREE ENERGY PREDICTED BY IDOCK:   -1.08 KCAL/MOL
REMARK 927      BINDING AFFINITY PREDICTED BY RF-SCORE:    0.00 PKD
ROOT
HETATM    1  O   UNL     1      -7.711   3.750  68.239  1.00  0.00    -0.064 OA 
HETATM    2  C   UNL     1      -7.975   4.909  68.550  1.00  0.00    -0.085 C  
HETATM    3  C   UNL     1      -8.776   5.801  67.638  1.00  0.00    -0.107 C  
HETATM    4  C   UNL     1      -8.219   7.226  67.547  1.00  0.00    -0.113 C  
HETATM    5  C   UNL     1      -7.882   7.750  68.942  1.00  0.00    -0.122 C  
HETATM    6  C   UNL     1      -9.277   8.135  66.871  1.00  0.00    -0.198 C  
HETATM    7  C   UNL     1      -7.102   6.753  69.761  1.00  0.00    -0.068 C  
HETATM    8  C   UNL     1      -8.603   8.735  65.646  1.00  0.00    -0.195 C  
HETATM    9  N   UNL     1      -7.658   5.489  69.765  1.00  0.00    -0.073 N  
HETATM   10  C   UNL     1      -7.547   7.714  65.266  1.00  0.00    -0.089 C  
HETATM   11  O   UNL     1      -6.106   7.083  70.401  1.00  0.00    -0.027 OA 
HETATM   12  C   UNL     1      -6.988   7.282  66.614  1.00  0.00    -0.073 C  
ENDROOT
BRANCH   9  13
HETATM   13  C   UNL     1      -7.310   4.602  70.858  1.00  0.00    -0.055 C  
BRANCH  13  14
HETATM   14  C   UNL     1      -8.555   4.303  71.702  1.00  0.00    -0.124 C  
BRANCH  14  15
HETATM   15  C   UNL     1      -9.207   5.563  72.257  1.00  0.00    -0.153 C  
BRANCH  15  16
HETATM   16  C   UNL     1     -10.671   5.732  71.834  1.00  0.00    -0.242 C  
BRANCH  16  17
HETATM   17  N   UNL     1     -11.415   6.714  72.648  1.00  0.00    -0.225 NA 
HETATM   18  C   UNL     1     -10.629   7.946  72.908  1.00  0.00    -0.368 C  
HETATM   19  C   UNL     1     -10.248   8.730  71.633  1.00  0.00    -0.324 C  
HETATM   20  N   UNL     1     -11.442   9.017  70.832  1.00  0.00    -0.281 NA 
HETATM   21  C   UNL     1     -12.654   7.136  71.944  1.00  0.00    -0.293 C  
HETATM   22  C   UNL     1     -12.417   7.940  70.645  1.00  0.00     0.206 C  
BRANCH  20  23
HETATM   23  C   UNL     1     -11.845  10.329  70.758  1.00  0.00    -0.365 A  
HETATM   24  N   UNL     1     -12.674  10.793  71.712  1.00  0.00    -0.403 NA 
HETATM   25  C   UNL     1     -13.014  12.091  71.677  1.00  0.00    -0.334 A  
HETATM   26  C   UNL     1     -12.581  12.960  70.709  1.00  0.00    -0.314 A  
HETATM   27  C   UNL     1     -11.753  12.406  69.769  1.00  0.00    -0.291 A  
HETATM   28  N   UNL     1     -11.367  11.118  69.779  1.00  0.00    -0.274 NA 
ENDBRANCH  20  23
ENDBRANCH  16  17
ENDBRANCH  15  16
ENDBRANCH  14  15
ENDBRANCH  13  14
ENDBRANCH   9  13
TORSDOF 6
ENDMDL
MODEL      158
REMARK 921   NORMALIZED FREE ENERGY PREDICTED BY IDOCK:   -3.81 KCAL/MOL
REMARK 922        TOTAL FREE ENERGY PREDICTED BY IDOCK:   -6.13 KCAL/MOL
REMARK 923 INTER-LIGAND FREE ENERGY PREDICTED BY IDOCK:   -6.00 KCAL/MOL
REMARK 924 INTRA-LIGAND FREE ENERGY PREDICTED BY IDOCK:   -0.12 KCAL/MOL
REMARK 927      BINDING AFFINITY PREDICTED BY RF-SCORE:    0.00 PKD
ROOT
HETATM    1  O   UNL     1     -11.359   5.560  73.292  1.00  0.00    -0.265 OA 
HETATM    2  C   UNL     1     -10.817   4.999  72.343  1.00  0.00    -0.169 C  
HETATM    3  C   UNL     1     -10.342   3.573  72.443  1.00  0.00    -0.160 C  
HETATM    4  C   UNL     1      -8.966   3.349  71.806  1.00  0.00    -0.155 C  
HETATM    5  C   UNL     1      -8.903   4.028  70.438  1.00  0.00    -0.137 C  
HETATM    6  C   UNL     1      -8.722   1.826  71.663  1.00  0.00    -0.092 C  
HETATM    7  C   UNL     1      -9.431   5.440  70.468  1.00  0.00    -0.165 C  
HETATM    8  C   UNL     1      -7.441   1.526  72.427  1.00  0.00    -0.035 C  
HETATM    9  N   UNL     1     -10.661   5.554  71.086  1.00  0.00    -0.245 N  
HETATM   10  C   UNL     1      -7.379   2.610  73.486  1.00  0.00    -0.045 C  
HETATM   11  O   UNL     1      -8.827   6.365  69.931  1.00  0.00    -0.140 OA 
HETATM   12  C   UNL     1      -7.837   3.851  72.734  1.00  0.00    -0.075 C  
ENDROOT
BRANCH   9  13
HETATM   13  C   UNL     1     -11.474   6.710  70.761  1.00  0.00    -0.353 C  
BRANCH  13  14
HETATM   14  C   UNL     1     -10.874   7.966  71.404  1.00  0.00    -0.259 C  
BRANCH  14  15
HETATM   15  C   UNL     1     -11.927   9.011  71.749  1.00  0.00    -0.438 C  
BRANCH  15  16
HETATM   16  C   UNL     1     -12.203  10.002  70.612  1.00  0.00    -0.269 C  
BRANCH  16  17
HETATM   17  N   UNL     1     -11.016  10.778  70.200  1.00  0.00    -0.228 NA 
HETATM   18  C   UNL     1     -10.516  10.379  68.860  1.00  0.00    -0.212 C  
HETATM   19  C   UNL     1     -11.529  10.608  67.716  1.00  0.00    -0.137 C  
HETATM   20  N   UNL     1     -11.999  11.996  67.719  1.00  0.00    -0.553 NA 
HETATM   21  C   UNL     1     -11.347  12.224  70.120  1.00  0.00     0.215 C  
HETATM   22  C   UNL     1     -12.353  12.597  69.007  1.00  0.00     0.211 C  
BRANCH  20  23
HETATM   23  C   UNL     1     -11.597  12.794  66.675  1.00  0.00    -0.370 A  
HETATM   24  N   UNL     1     -10.567  13.637  66.880  1.00  0.00    -0.271 NA 
HETATM   25  C   UNL     1     -10.132  14.368  65.842  1.00  0.00    -0.325 A  
HETATM   26  C   UNL     1     -10.696  14.319  64.594  1.00  0.00    -0.384 A  
HETATM   27  C   UNL     1     -11.747  13.448  64.473  1.00  0.00    -0.384 A  
HETATM   28  N   UNL     1     -12.200  12.679  65.479  1.00  0.00    -0.564 NA 
ENDBRANCH  20  23
ENDBRANCH  16  17
ENDBRANCH  15  16
ENDBRANCH  14  15
ENDBRANCH  13  14
ENDBRANCH   9  13
TORSDOF 6
ENDMDL
MODEL      159
REMARK 921   NORMALIZED FREE ENERGY PREDICTED BY IDOCK:   -3.78 KCAL/MOL
REMARK 922        TOTAL FREE ENERGY PREDICTED BY IDOCK:   -6.07 KCAL/MOL
REMARK 923 INTER-LIGAND FREE ENERGY PREDICTED BY IDOCK:   -6.08 KCAL/MOL
REMARK 924 INTRA-LIGAND FREE ENERGY PREDICTED BY IDOCK:    0.00 KCAL/MOL
REMARK 927      BINDING AFFINITY PREDICTED BY RF-SCORE:    0.00 PKD
ROOT
HETATM    1  O   UNL     1      -8.883  15.313  69.875  1.00  0.00    -0.124 OA 
HETATM    2  C   UNL     1     -10.073  15.508  69.637  1.00  0.00    -0.293 C  
HETATM    3  C   UNL     1     -11.042  15.868  70.732  1.00  0.00    -0.352 C  
HETATM    4  C   UNL     1     -12.381  15.132  70.620  1.00  0.00    -0.420 C  
HETATM    5  C   UNL     1     -12.885  15.174  69.178  1.00  0.00     0.543 C  
HETATM    6  C   UNL     1     -13.404  15.805  71.568  1.00  0.00    -0.384 C  
HETATM    7  C   UNL     1     -11.813  14.818  68.180  1.00  0.00    -0.287 C  
HETATM    8  C   UNL     1     -13.887  14.717  72.516  1.00  0.00    -0.561 C  
HETATM    9  N   UNL     1     -10.632  15.507  68.372  1.00  0.00    -0.245 N  
HETATM   10  C   UNL     1     -12.732  13.736  72.574  1.00  0.00    -0.234 C  
HETATM   11  O   UNL     1     -12.025  14.033  67.259  1.00  0.00    -0.390 OA 
HETATM   12  C   UNL     1     -12.259  13.678  71.129  1.00  0.00    -0.326 C  
ENDROOT
BRANCH   9  13
HETATM   13  C   UNL     1      -9.730  15.628  67.243  1.00  0.00    -0.219 C  
BRANCH  13  14
HETATM   14  C   UNL     1      -9.625  14.282  66.514  1.00  0.00    -0.313 C  
BRANCH  14  15
HETATM   15  C   UNL     1      -8.541  13.382  67.093  1.00  0.00    -0.201 C  
BRANCH  15  16
HETATM   16  C   UNL     1      -9.055  12.003  67.522  1.00  0.00    -0.177 C  
BRANCH  16  17
HETATM   17  N   UNL     1      -8.039  10.936  67.431  1.00  0.00    -0.112 NA 
HETATM   18  C   UNL     1      -8.336   9.792  68.330  1.00  0.00    -0.106 C  
HETATM   19  C   UNL     1      -9.665   9.071  68.012  1.00  0.00    -0.155 C  
HETATM   20  N   UNL     1      -9.705   8.668  66.603  1.00  0.00    -0.224 NA 
HETATM   21  C   UNL     1      -7.983  10.392  66.049  1.00  0.00    -0.144 C  
HETATM   22  C   UNL     1      -9.255   9.636  65.600  1.00  0.00    -0.215 C  
BRANCH  20  23
HETATM   23  C   UNL     1      -9.640   7.322  66.336  1.00  0.00    -0.104 A  
HETATM   24  N   UNL     1     -10.628   6.533  66.802  1.00  0.00    -0.265 NA 
HETATM   25  C   UNL     1     -10.598   5.229  66.485  1.00  0.00    -0.285 A  
HETATM   26  C   UNL     1      -9.606   4.657  65.733  1.00  0.00    -0.190 A  
HETATM   27  C   UNL     1      -8.634   5.524  65.309  1.00  0.00    -0.149 A  
HETATM   28  N   UNL     1      -8.636   6.840  65.583  1.00  0.00    -0.144 NA 
ENDBRANCH  20  23
ENDBRANCH  16  17
ENDBRANCH  15  16
ENDBRANCH  14  15
ENDBRANCH  13  14
ENDBRANCH   9  13
TORSDOF 6
ENDMDL
MODEL      160
REMARK 921   NORMALIZED FREE ENERGY PREDICTED BY IDOCK:   -3.75 KCAL/MOL
REMARK 922        TOTAL FREE ENERGY PREDICTED BY IDOCK:   -6.04 KCAL/MOL
REMARK 923 INTER-LIGAND FREE ENERGY PREDICTED BY IDOCK:   -5.76 KCAL/MOL
REMARK 924 INTRA-LIGAND FREE ENERGY PREDICTED BY IDOCK:   -0.27 KCAL/MOL
REMARK 927      BINDING AFFINITY PREDICTED BY RF-SCORE:    0.00 PKD
ROOT
HETATM    1  O   UNL     1     -10.183   8.835  68.221  1.00  0.00    -0.189 OA 
HETATM    2  C   UNL     1     -10.390   9.521  67.223  1.00  0.00    -0.255 C  
HETATM    3  C   UNL     1      -9.856   9.121  65.873  1.00  0.00    -0.305 C  
HETATM    4  C   UNL     1      -9.273  10.296  65.081  1.00  0.00    -0.252 C  
HETATM    5  C   UNL     1     -10.218  11.496  65.148  1.00  0.00    -0.322 C  
HETATM    6  C   UNL     1      -9.066   9.856  63.610  1.00  0.00    -0.294 C  
HETATM    7  C   UNL     1     -10.699  11.775  66.549  1.00  0.00    -0.265 C  
HETATM    8  C   UNL     1      -7.589  10.062  63.308  1.00  0.00    -0.140 C  
HETATM    9  N   UNL     1     -11.181  10.656  67.199  1.00  0.00    -0.197 N  
HETATM   10  C   UNL     1      -6.912   9.929  64.659  1.00  0.00    -0.133 C  
HETATM   11  O   UNL     1     -10.705  12.912  67.014  1.00  0.00    -0.253 OA 
HETATM   12  C   UNL     1      -7.862  10.664  65.593  1.00  0.00    -0.123 C  
ENDROOT
BRANCH   9  13
HETATM   13  C   UNL     1     -12.090  10.860  68.310  1.00  0.00     0.237 C  
BRANCH  13  14
HETATM   14  C   UNL     1     -11.335  11.474  69.495  1.00  0.00    -0.342 C  
BRANCH  14  15
HETATM   15  C   UNL     1     -11.540  10.698  70.790  1.00  0.00    -0.388 C  
BRANCH  15  16
HETATM   16  C   UNL     1     -12.389   9.433  70.618  1.00  0.00    -0.034 C  
BRANCH  16  17
HETATM   17  N   UNL     1     -12.392   8.554  71.804  1.00  0.00    -0.319 NA 
HETATM   18  C   UNL     1     -12.700   7.142  71.463  1.00  0.00    -0.393 C  
HETATM   19  C   UNL     1     -11.672   6.486  70.515  1.00  0.00    -0.375 C  
HETATM   20  N   UNL     1     -10.317   6.621  71.055  1.00  0.00    -0.206 NA 
HETATM   21  C   UNL     1     -11.055   8.557  72.453  1.00  0.00    -0.327 C  
HETATM   22  C   UNL     1      -9.926   7.920  71.610  1.00  0.00    -0.181 C  
BRANCH  20  23
HETATM   23  C   UNL     1      -9.701   5.474  71.495  1.00  0.00    -0.156 A  
HETATM   24  N   UNL     1     -10.259   4.291  71.173  1.00  0.00    -0.091 NA 
HETATM   25  C   UNL     1      -9.622   3.169  71.546  1.00  0.00    -0.157 A  
HETATM   26  C   UNL     1      -8.450   3.167  72.255  1.00  0.00    -0.081 A  
HETATM   27  C   UNL     1      -7.956   4.409  72.553  1.00  0.00    -0.093 A  
HETATM   28  N   UNL     1      -8.548   5.558  72.179  1.00  0.00    -0.126 NA 
ENDBRANCH  20  23
ENDBRANCH  16  17
ENDBRANCH  15  16
ENDBRANCH  14  15
ENDBRANCH  13  14
ENDBRANCH   9  13
TORSDOF 6
ENDMDL
MODEL      161
REMARK 921   NORMALIZED FREE ENERGY PREDICTED BY IDOCK:   -3.73 KCAL/MOL
REMARK 922        TOTAL FREE ENERGY PREDICTED BY IDOCK:   -6.01 KCAL/MOL
REMARK 923 INTER-LIGAND FREE ENERGY PREDICTED BY IDOCK:   -5.83 KCAL/MOL
REMARK 924 INTRA-LIGAND FREE ENERGY PREDICTED BY IDOCK:   -0.18 KCAL/MOL
REMARK 927      BINDING AFFINITY PREDICTED BY RF-SCORE:    0.00 PKD
ROOT
HETATM    1  O   UNL     1     -11.050   6.019  69.266  1.00  0.00    -0.364 OA 
HETATM    2  C   UNL     1     -10.014   5.501  69.675  1.00  0.00    -0.214 C  
HETATM    3  C   UNL     1      -9.068   4.797  68.739  1.00  0.00    -0.151 C  
HETATM    4  C   UNL     1      -8.525   3.481  69.306  1.00  0.00    -0.097 C  
HETATM    5  C   UNL     1      -8.081   3.675  70.755  1.00  0.00    -0.064 C  
HETATM    6  C   UNL     1      -7.331   3.014  68.435  1.00  0.00    -0.049 C  
HETATM    7  C   UNL     1      -9.105   4.414  71.579  1.00  0.00    -0.131 C  
HETATM    8  C   UNL     1      -7.691   1.627  67.926  1.00  0.00    -0.058 C  
HETATM    9  N   UNL     1      -9.560   5.572  70.980  1.00  0.00    -0.166 N  
HETATM   10  C   UNL     1      -9.208   1.623  67.902  1.00  0.00    -0.204 C  
HETATM   11  O   UNL     1      -9.432   4.027  72.698  1.00  0.00    -0.121 OA 
HETATM   12  C   UNL     1      -9.573   2.351  69.187  1.00  0.00    -0.045 C  
ENDROOT
BRANCH   9  13
HETATM   13  C   UNL     1     -10.142   6.589  71.835  1.00  0.00    -0.182 C  
BRANCH  13  14
HETATM   14  C   UNL     1     -11.671   6.472  71.817  1.00  0.00    -0.373 C  
BRANCH  14  15
HETATM   15  C   UNL     1     -12.365   7.751  72.267  1.00  0.00    -0.260 C  
BRANCH  15  16
HETATM   16  C   UNL     1     -12.511   8.793  71.152  1.00  0.00    -0.193 C  
BRANCH  16  17
HETATM   17  N   UNL     1     -11.501   9.868  71.207  1.00  0.00    -0.375 NA 
HETATM   18  C   UNL     1     -10.494   9.755  70.121  1.00  0.00    -0.286 C  
HETATM   19  C   UNL     1     -11.087   9.872  68.699  1.00  0.00    -0.134 C  
HETATM   20  N   UNL     1     -11.875  11.102  68.572  1.00  0.00    -0.525 NA 
HETATM   21  C   UNL     1     -12.149  11.196  71.054  1.00  0.00    -0.275 C  
HETATM   22  C   UNL     1     -12.784  11.450  69.667  1.00  0.00     0.223 C  
BRANCH  20  23
HETATM   23  C   UNL     1     -11.368  12.088  67.760  1.00  0.00    -0.303 A  
HETATM   24  N   UNL     1     -10.367  11.765  66.919  1.00  0.00    -0.212 NA 
HETATM   25  C   UNL     1      -9.918  12.712  66.079  1.00  0.00    -0.258 A  
HETATM   26  C   UNL     1     -10.408  13.992  66.052  1.00  0.00    -0.312 A  
HETATM   27  C   UNL     1     -11.414  14.241  66.947  1.00  0.00    -0.363 A  
HETATM   28  N   UNL     1     -11.911  13.317  67.788  1.00  0.00    -0.341 NA 
ENDBRANCH  20  23
ENDBRANCH  16  17
ENDBRANCH  15  16
ENDBRANCH  14  15
ENDBRANCH  13  14
ENDBRANCH   9  13
TORSDOF 6
ENDMDL
MODEL      162
REMARK 921   NORMALIZED FREE ENERGY PREDICTED BY IDOCK:   -3.71 KCAL/MOL
REMARK 922        TOTAL FREE ENERGY PREDICTED BY IDOCK:   -5.98 KCAL/MOL
REMARK 923 INTER-LIGAND FREE ENERGY PREDICTED BY IDOCK:   -4.77 KCAL/MOL
REMARK 924 INTRA-LIGAND FREE ENERGY PREDICTED BY IDOCK:   -1.21 KCAL/MOL
REMARK 927      BINDING AFFINITY PREDICTED BY RF-SCORE:    0.00 PKD
ROOT
HETATM    1  O   UNL     1      -8.478   9.036  64.318  1.00  0.00    -0.176 OA 
HETATM    2  C   UNL     1      -8.474   8.304  65.305  1.00  0.00    -0.162 C  
HETATM    3  C   UNL     1      -7.444   7.217  65.470  1.00  0.00    -0.085 C  
HETATM    4  C   UNL     1      -8.032   5.903  65.994  1.00  0.00    -0.108 C  
HETATM    5  C   UNL     1      -8.975   6.178  67.166  1.00  0.00    -0.111 C  
HETATM    6  C   UNL     1      -6.873   4.978  66.441  1.00  0.00    -0.062 C  
HETATM    7  C   UNL     1      -9.937   7.302  66.882  1.00  0.00    -0.232 C  
HETATM    8  C   UNL     1      -7.013   3.697  65.632  1.00  0.00    -0.058 C  
HETATM    9  N   UNL     1      -9.326   8.437  66.387  1.00  0.00    -0.199 N  
HETATM   10  C   UNL     1      -7.714   4.137  64.360  1.00  0.00    -0.084 C  
HETATM   11  O   UNL     1     -11.134   7.206  67.138  1.00  0.00    -0.326 OA 
HETATM   12  C   UNL     1      -8.751   5.128  64.866  1.00  0.00    -0.140 C  
ENDROOT
BRANCH   9  13
HETATM   13  C   UNL     1     -10.025   9.699  66.534  1.00  0.00    -0.246 C  
BRANCH  13  14
HETATM   14  C   UNL     1      -9.263  10.607  67.507  1.00  0.00    -0.151 C  
BRANCH  14  15
HETATM   15  C   UNL     1      -9.666  10.384  68.959  1.00  0.00    -0.216 C  
BRANCH  15  16
HETATM   16  C   UNL     1      -8.697   9.483  69.733  1.00  0.00    -0.194 C  
BRANCH  16  17
HETATM   17  N   UNL     1      -8.990   9.398  71.177  1.00  0.00    -0.270 NA 
HETATM   18  C   UNL     1     -10.334   8.829  71.451  1.00  0.00    -0.278 C  
HETATM   19  C   UNL     1     -10.518   7.380  70.946  1.00  0.00    -0.217 C  
HETATM   20  N   UNL     1      -9.456   6.517  71.469  1.00  0.00    -0.158 NA 
HETATM   21  C   UNL     1      -8.005   8.515  71.854  1.00  0.00    -0.120 C  
HETATM   22  C   UNL     1      -8.082   7.027  71.443  1.00  0.00    -0.108 C  
BRANCH  20  23
HETATM   23  C   UNL     1      -9.819   5.571  72.397  1.00  0.00    -0.162 A  
HETATM   24  N   UNL     1      -8.851   5.010  73.146  1.00  0.00    -0.112 NA 
HETATM   25  C   UNL     1      -9.214   4.135  74.097  1.00  0.00    -0.102 A  
HETATM   26  C   UNL     1     -10.513   3.766  74.328  1.00  0.00    -0.270 A  
HETATM   27  C   UNL     1     -11.435   4.372  73.516  1.00  0.00    -0.184 A  
HETATM   28  N   UNL     1     -11.119   5.271  72.568  1.00  0.00    -0.245 NA 
ENDBRANCH  20  23
ENDBRANCH  16  17
ENDBRANCH  15  16
ENDBRANCH  14  15
ENDBRANCH  13  14
ENDBRANCH   9  13
TORSDOF 6
ENDMDL
MODEL      163
REMARK 921   NORMALIZED FREE ENERGY PREDICTED BY IDOCK:   -3.71 KCAL/MOL
REMARK 922        TOTAL FREE ENERGY PREDICTED BY IDOCK:   -5.98 KCAL/MOL
REMARK 923 INTER-LIGAND FREE ENERGY PREDICTED BY IDOCK:   -6.15 KCAL/MOL
REMARK 924 INTRA-LIGAND FREE ENERGY PREDICTED BY IDOCK:    0.17 KCAL/MOL
REMARK 927      BINDING AFFINITY PREDICTED BY RF-SCORE:    0.00 PKD
ROOT
HETATM    1  O   UNL     1      -9.804  14.201  65.089  1.00  0.00    -0.276 OA 
HETATM    2  C   UNL     1     -10.504  14.880  65.836  1.00  0.00    -0.315 C  
HETATM    3  C   UNL     1     -10.332  16.374  65.927  1.00  0.00    -0.378 C  
HETATM    4  C   UNL     1     -10.395  16.903  67.364  1.00  0.00    -0.309 C  
HETATM    5  C   UNL     1     -11.575  16.273  68.105  1.00  0.00    -0.072 C  
HETATM    6  C   UNL     1     -10.545  18.444  67.325  1.00  0.00    -0.435 C  
HETATM    7  C   UNL     1     -11.648  14.780  67.913  1.00  0.00    -0.351 C  
HETATM    8  C   UNL     1      -9.365  19.007  68.104  1.00  0.00    -0.385 C  
HETATM    9  N   UNL     1     -11.554  14.391  66.591  1.00  0.00    -0.371 N  
HETATM   10  C   UNL     1      -8.288  17.948  67.961  1.00  0.00    -0.258 C  
HETATM   11  O   UNL     1     -11.836  14.017  68.857  1.00  0.00    -0.315 OA 
HETATM   12  C   UNL     1      -9.065  16.647  68.108  1.00  0.00    -0.213 C  
ENDROOT
BRANCH   9  13
HETATM   13  C   UNL     1     -12.085  13.090  66.232  1.00  0.00    -0.386 C  
BRANCH  13  14
HETATM   14  C   UNL     1     -11.476  12.012  67.138  1.00  0.00    -0.401 C  
BRANCH  14  15
HETATM   15  C   UNL     1     -10.261  11.336  66.515  1.00  0.00    -0.269 C  
BRANCH  15  16
HETATM   16  C   UNL     1     -10.332   9.805  66.540  1.00  0.00    -0.192 C  
BRANCH  16  17
HETATM   17  N   UNL     1      -9.827   9.208  67.793  1.00  0.00    -0.165 NA 
HETATM   18  C   UNL     1     -10.304   7.816  67.990  1.00  0.00    -0.209 C  
HETATM   19  C   UNL     1      -9.841   6.831  66.893  1.00  0.00    -0.175 C  
HETATM   20  N   UNL     1      -8.384   6.879  66.742  1.00  0.00    -0.113 NA 
HETATM   21  C   UNL     1      -8.342   9.154  67.778  1.00  0.00    -0.117 C  
HETATM   22  C   UNL     1      -7.741   8.195  66.723  1.00  0.00    -0.095 C  
BRANCH  20  23
HETATM   23  C   UNL     1      -7.677   5.774  67.150  1.00  0.00    -0.101 A  
HETATM   24  N   UNL     1      -6.714   5.301  66.336  1.00  0.00    -0.056 NA 
HETATM   25  C   UNL     1      -5.978   4.262  66.764  1.00  0.00    -0.024 A  
HETATM   26  C   UNL     1      -6.173   3.646  67.972  1.00  0.00    -0.032 A  
HETATM   27  C   UNL     1      -7.180   4.179  68.733  1.00  0.00    -0.055 A  
HETATM   28  N   UNL     1      -7.924   5.232  68.355  1.00  0.00    -0.087 NA 
ENDBRANCH  20  23
ENDBRANCH  16  17
ENDBRANCH  15  16
ENDBRANCH  14  15
ENDBRANCH  13  14
ENDBRANCH   9  13
TORSDOF 6
ENDMDL
MODEL      164
REMARK 921   NORMALIZED FREE ENERGY PREDICTED BY IDOCK:   -3.70 KCAL/MOL
REMARK 922        TOTAL FREE ENERGY PREDICTED BY IDOCK:   -5.97 KCAL/MOL
REMARK 923 INTER-LIGAND FREE ENERGY PREDICTED BY IDOCK:   -5.69 KCAL/MOL
REMARK 924 INTRA-LIGAND FREE ENERGY PREDICTED BY IDOCK:   -0.28 KCAL/MOL
REMARK 927      BINDING AFFINITY PREDICTED BY RF-SCORE:    0.00 PKD
ROOT
HETATM    1  O   UNL     1      -8.453  12.445  68.604  1.00  0.00    -0.102 OA 
HETATM    2  C   UNL     1      -8.855  13.391  67.929  1.00  0.00    -0.194 C  
HETATM    3  C   UNL     1      -7.896  14.366  67.298  1.00  0.00    -0.188 C  
HETATM    4  C   UNL     1      -8.350  15.825  67.423  1.00  0.00    -0.189 C  
HETATM    5  C   UNL     1      -9.831  15.948  67.067  1.00  0.00    -0.236 C  
HETATM    6  C   UNL     1      -7.494  16.699  66.473  1.00  0.00    -0.306 C  
HETATM    7  C   UNL     1     -10.677  14.899  67.744  1.00  0.00    -0.271 C  
HETATM    8  C   UNL     1      -6.828  17.751  67.347  1.00  0.00    -0.185 C  
HETATM    9  N   UNL     1     -10.180  13.618  67.605  1.00  0.00    -0.236 N  
HETATM   10  C   UNL     1      -6.731  17.094  68.711  1.00  0.00    -0.200 C  
HETATM   11  O   UNL     1     -11.733  15.185  68.302  1.00  0.00    -0.338 OA 
HETATM   12  C   UNL     1      -8.066  16.374  68.839  1.00  0.00    -0.236 C  
ENDROOT
BRANCH   9  13
HETATM   13  C   UNL     1     -11.106  12.514  67.767  1.00  0.00    -0.249 C  
BRANCH  13  14
HETATM   14  C   UNL     1     -11.470  12.353  69.248  1.00  0.00    -0.349 C  
BRANCH  14  15
HETATM   15  C   UNL     1     -12.183  11.039  69.540  1.00  0.00    -0.352 C  
BRANCH  15  16
HETATM   16  C   UNL     1     -11.693  10.348  70.818  1.00  0.00    -0.368 C  
BRANCH  16  17
HETATM   17  N   UNL     1     -11.596   8.879  70.699  1.00  0.00    -0.252 NA 
HETATM   18  C   UNL     1     -10.721   8.458  69.576  1.00  0.00    -0.175 C  
HETATM   19  C   UNL     1      -9.253   8.920  69.715  1.00  0.00    -0.165 C  
HETATM   20  N   UNL     1      -8.704   8.499  71.008  1.00  0.00    -0.157 NA 
HETATM   21  C   UNL     1     -11.015   8.297  71.937  1.00  0.00    -0.287 C  
HETATM   22  C   UNL     1      -9.539   8.677  72.198  1.00  0.00    -0.307 C  
BRANCH  20  23
HETATM   23  C   UNL     1      -7.735   7.524  70.987  1.00  0.00    -0.089 A  
HETATM   24  N   UNL     1      -8.001   6.352  71.595  1.00  0.00    -0.101 NA 
HETATM   25  C   UNL     1      -7.080   5.378  71.518  1.00  0.00    -0.068 A  
HETATM   26  C   UNL     1      -5.879   5.523  70.875  1.00  0.00    -0.024 A  
HETATM   27  C   UNL     1      -5.681   6.748  70.295  1.00  0.00    -0.023 A  
HETATM   28  N   UNL     1      -6.585   7.743  70.327  1.00  0.00    -0.038 NA 
ENDBRANCH  20  23
ENDBRANCH  16  17
ENDBRANCH  15  16
ENDBRANCH  14  15
ENDBRANCH  13  14
ENDBRANCH   9  13
TORSDOF 6
ENDMDL
MODEL      165
REMARK 921   NORMALIZED FREE ENERGY PREDICTED BY IDOCK:   -3.69 KCAL/MOL
REMARK 922        TOTAL FREE ENERGY PREDICTED BY IDOCK:   -5.95 KCAL/MOL
REMARK 923 INTER-LIGAND FREE ENERGY PREDICTED BY IDOCK:   -4.59 KCAL/MOL
REMARK 924 INTRA-LIGAND FREE ENERGY PREDICTED BY IDOCK:   -1.36 KCAL/MOL
REMARK 927      BINDING AFFINITY PREDICTED BY RF-SCORE:    0.00 PKD
ROOT
HETATM    1  O   UNL     1      -8.137   8.811  72.679  1.00  0.00    -0.390 OA 
HETATM    2  C   UNL     1      -8.310   8.908  71.467  1.00  0.00    -0.098 C  
HETATM    3  C   UNL     1      -7.162   8.785  70.500  1.00  0.00    -0.059 C  
HETATM    4  C   UNL     1      -7.208   9.822  69.372  1.00  0.00    -0.076 C  
HETATM    5  C   UNL     1      -8.621   9.909  68.795  1.00  0.00    -0.130 C  
HETATM    6  C   UNL     1      -6.201   9.409  68.270  1.00  0.00    -0.053 C  
HETATM    7  C   UNL     1      -9.678  10.003  69.866  1.00  0.00    -0.203 C  
HETATM    8  C   UNL     1      -5.238  10.577  68.113  1.00  0.00    -0.033 C  
HETATM    9  N   UNL     1      -9.543   9.050  70.856  1.00  0.00    -0.239 N  
HETATM   10  C   UNL     1      -5.249  11.251  69.472  1.00  0.00    -0.045 C  
HETATM   11  O   UNL     1     -10.592  10.821  69.800  1.00  0.00    -0.226 OA 
HETATM   12  C   UNL     1      -6.718  11.202  69.867  1.00  0.00    -0.098 C  
ENDROOT
BRANCH   9  13
HETATM   13  C   UNL     1     -10.717   8.722  71.641  1.00  0.00    -0.327 C  
BRANCH  13  14
HETATM   14  C   UNL     1     -11.580   7.704  70.886  1.00  0.00    -0.299 C  
BRANCH  14  15
HETATM   15  C   UNL     1     -10.949   6.318  70.837  1.00  0.00    -0.344 C  
BRANCH  15  16
HETATM   16  C   UNL     1     -10.825   5.752  69.417  1.00  0.00    -0.323 C  
BRANCH  16  17
HETATM   17  N   UNL     1     -10.036   6.604  68.505  1.00  0.00    -0.153 NA 
HETATM   18  C   UNL     1      -8.649   6.107  68.322  1.00  0.00    -0.116 C  
HETATM   19  C   UNL     1      -8.563   4.700  67.688  1.00  0.00    -0.103 C  
HETATM   20  N   UNL     1      -9.316   4.658  66.431  1.00  0.00    -0.138 NA 
HETATM   21  C   UNL     1     -10.661   6.635  67.157  1.00  0.00    -0.370 C  
HETATM   22  C   UNL     1     -10.639   5.286  66.403  1.00  0.00    -0.276 C  
BRANCH  20  23
HETATM   23  C   UNL     1      -8.589   4.536  65.271  1.00  0.00    -0.128 A  
HETATM   24  N   UNL     1      -7.419   5.197  65.183  1.00  0.00    -0.072 NA 
HETATM   25  C   UNL     1      -6.678   5.024  64.076  1.00  0.00    -0.046 A  
HETATM   26  C   UNL     1      -7.062   4.233  63.026  1.00  0.00    -0.044 A  
HETATM   27  C   UNL     1      -8.270   3.607  63.189  1.00  0.00    -0.084 A  
HETATM   28  N   UNL     1      -9.033   3.732  64.289  1.00  0.00    -0.119 NA 
ENDBRANCH  20  23
ENDBRANCH  16  17
ENDBRANCH  15  16
ENDBRANCH  14  15
ENDBRANCH  13  14
ENDBRANCH   9  13
TORSDOF 6
ENDMDL
MODEL      166
REMARK 921   NORMALIZED FREE ENERGY PREDICTED BY IDOCK:   -3.68 KCAL/MOL
REMARK 922        TOTAL FREE ENERGY PREDICTED BY IDOCK:   -5.94 KCAL/MOL
REMARK 923 INTER-LIGAND FREE ENERGY PREDICTED BY IDOCK:   -5.13 KCAL/MOL
REMARK 924 INTRA-LIGAND FREE ENERGY PREDICTED BY IDOCK:   -0.81 KCAL/MOL
REMARK 927      BINDING AFFINITY PREDICTED BY RF-SCORE:    0.00 PKD
ROOT
HETATM    1  O   UNL     1     -12.051  14.728  64.063  1.00  0.00    -0.494 OA 
HETATM    2  C   UNL     1     -11.707  14.066  65.040  1.00  0.00    -0.364 C  
HETATM    3  C   UNL     1     -12.410  14.201  66.365  1.00  0.00    -0.431 C  
HETATM    4  C   UNL     1     -11.449  14.231  67.558  1.00  0.00    -0.368 C  
HETATM    5  C   UNL     1     -10.399  13.129  67.416  1.00  0.00    -0.239 C  
HETATM    6  C   UNL     1     -12.262  14.036  68.862  1.00  0.00    -0.261 C  
HETATM    7  C   UNL     1      -9.791  13.085  66.038  1.00  0.00    -0.255 C  
HETATM    8  C   UNL     1     -11.979  15.254  69.728  1.00  0.00    -0.374 C  
HETATM    9  N   UNL     1     -10.727  13.090  65.023  1.00  0.00    -0.303 N  
HETATM   10  C   UNL     1     -11.642  16.347  68.731  1.00  0.00    -0.144 C  
HETATM   11  O   UNL     1      -8.577  12.990  65.872  1.00  0.00     0.586 OA 
HETATM   12  C   UNL     1     -10.788  15.620  67.703  1.00  0.00    -0.307 C  
ENDROOT
BRANCH   9  13
HETATM   13  C   UNL     1     -10.324  12.571  63.730  1.00  0.00    -0.388 C  
BRANCH  13  14
HETATM   14  C   UNL     1     -10.749  11.104  63.601  1.00  0.00    -0.381 C  
BRANCH  14  15
HETATM   15  C   UNL     1      -9.696  10.137  64.126  1.00  0.00    -0.301 C  
BRANCH  15  16
HETATM   16  C   UNL     1     -10.047   9.529  65.489  1.00  0.00    -0.002 C  
BRANCH  16  17
HETATM   17  N   UNL     1      -8.879   9.000  66.222  1.00  0.00    -0.143 NA 
HETATM   18  C   UNL     1      -9.267   8.265  67.452  1.00  0.00    -0.141 C  
HETATM   19  C   UNL     1     -10.139   7.017  67.189  1.00  0.00    -0.217 C  
HETATM   20  N   UNL     1      -9.489   6.131  66.220  1.00  0.00    -0.145 NA 
HETATM   21  C   UNL     1      -8.124   8.045  65.371  1.00  0.00    -0.135 C  
HETATM   22  C   UNL     1      -8.883   6.741  65.033  1.00  0.00     0.324 C  
BRANCH  20  23
HETATM   23  C   UNL     1      -9.020   4.928  66.689  1.00  0.00    -0.111 A  
HETATM   24  N   UNL     1      -8.368   4.916  67.867  1.00  0.00    -0.103 NA 
HETATM   25  C   UNL     1      -7.968   3.731  68.357  1.00  0.00    -0.071 A  
HETATM   26  C   UNL     1      -8.169   2.540  67.710  1.00  0.00    -0.077 A  
HETATM   27  C   UNL     1      -8.827   2.640  66.512  1.00  0.00    -0.132 A  
HETATM   28  N   UNL     1      -9.266   3.802  65.996  1.00  0.00    -0.153 NA 
ENDBRANCH  20  23
ENDBRANCH  16  17
ENDBRANCH  15  16
ENDBRANCH  14  15
ENDBRANCH  13  14
ENDBRANCH   9  13
TORSDOF 6
ENDMDL
MODEL      167
REMARK 921   NORMALIZED FREE ENERGY PREDICTED BY IDOCK:   -3.68 KCAL/MOL
REMARK 922        TOTAL FREE ENERGY PREDICTED BY IDOCK:   -5.94 KCAL/MOL
REMARK 923 INTER-LIGAND FREE ENERGY PREDICTED BY IDOCK:   -5.03 KCAL/MOL
REMARK 924 INTRA-LIGAND FREE ENERGY PREDICTED BY IDOCK:   -0.91 KCAL/MOL
REMARK 927      BINDING AFFINITY PREDICTED BY RF-SCORE:    0.00 PKD
ROOT
HETATM    1  O   UNL     1      -7.653   7.803  73.303  1.00  0.00    -0.101 OA 
HETATM    2  C   UNL     1      -8.346   8.089  72.330  1.00  0.00    -0.144 C  
HETATM    3  C   UNL     1      -9.825   8.339  72.468  1.00  0.00    -0.368 C  
HETATM    4  C   UNL     1     -10.653   7.694  71.351  1.00  0.00    -0.236 C  
HETATM    5  C   UNL     1     -10.007   7.967  69.992  1.00  0.00    -0.191 C  
HETATM    6  C   UNL     1     -12.088   8.277  71.391  1.00  0.00    -0.331 C  
HETATM    7  C   UNL     1      -8.523   7.702  69.995  1.00  0.00    -0.136 C  
HETATM    8  C   UNL     1     -13.025   7.091  71.568  1.00  0.00    -0.411 C  
HETATM    9  N   UNL     1      -7.861   8.296  71.051  1.00  0.00    -0.088 N  
HETATM   10  C   UNL     1     -12.179   6.055  72.284  1.00  0.00    -0.125 C  
HETATM   11  O   UNL     1      -7.980   7.068  69.094  1.00  0.00    -0.115 OA 
HETATM   12  C   UNL     1     -10.829   6.178  71.595  1.00  0.00    -0.308 C  
ENDROOT
BRANCH   9  13
HETATM   13  C   UNL     1      -6.437   8.531  70.908  1.00  0.00    -0.042 C  
BRANCH  13  14
HETATM   14  C   UNL     1      -6.167  10.035  70.785  1.00  0.00    -0.084 C  
BRANCH  14  15
HETATM   15  C   UNL     1      -6.202  10.524  69.342  1.00  0.00    -0.048 C  
BRANCH  15  16
HETATM   16  C   UNL     1      -7.355  11.491  69.051  1.00  0.00    -0.094 C  
BRANCH  16  17
HETATM   17  N   UNL     1      -7.351  12.023  67.674  1.00  0.00    -0.111 NA 
HETATM   18  C   UNL     1      -8.643  12.655  67.307  1.00  0.00    -0.196 C  
HETATM   19  C   UNL     1      -9.016  13.876  68.177  1.00  0.00    -0.185 C  
HETATM   20  N   UNL     1      -7.925  14.855  68.183  1.00  0.00    -0.123 NA 
HETATM   21  C   UNL     1      -6.305  13.068  67.527  1.00  0.00    -0.149 C  
HETATM   22  C   UNL     1      -6.557  14.355  68.346  1.00  0.00    -0.104 C  
BRANCH  20  23
HETATM   23  C   UNL     1      -8.149  16.044  67.533  1.00  0.00    -0.148 A  
HETATM   24  N   UNL     1      -9.424  16.428  67.332  1.00  0.00    -0.226 NA 
HETATM   25  C   UNL     1      -9.642  17.621  66.756  1.00  0.00    -0.294 A  
HETATM   26  C   UNL     1      -8.637  18.455  66.342  1.00  0.00    -0.264 A  
HETATM   27  C   UNL     1      -7.370  17.985  66.571  1.00  0.00    -0.238 A  
HETATM   28  N   UNL     1      -7.106  16.809  67.166  1.00  0.00    -0.167 NA 
ENDBRANCH  20  23
ENDBRANCH  16  17
ENDBRANCH  15  16
ENDBRANCH  14  15
ENDBRANCH  13  14
ENDBRANCH   9  13
TORSDOF 6
ENDMDL
MODEL      168
REMARK 921   NORMALIZED FREE ENERGY PREDICTED BY IDOCK:   -3.63 KCAL/MOL
REMARK 922        TOTAL FREE ENERGY PREDICTED BY IDOCK:   -5.87 KCAL/MOL
REMARK 923 INTER-LIGAND FREE ENERGY PREDICTED BY IDOCK:   -5.23 KCAL/MOL
REMARK 924 INTRA-LIGAND FREE ENERGY PREDICTED BY IDOCK:   -0.64 KCAL/MOL
REMARK 927      BINDING AFFINITY PREDICTED BY RF-SCORE:    0.00 PKD
ROOT
HETATM    1  O   UNL     1     -10.305  10.050  66.506  1.00  0.00    -0.232 OA 
HETATM    2  C   UNL     1      -9.096   9.991  66.296  1.00  0.00    -0.151 C  
HETATM    3  C   UNL     1      -8.537  10.106  64.902  1.00  0.00    -0.188 C  
HETATM    4  C   UNL     1      -7.414   9.102  64.618  1.00  0.00    -0.104 C  
HETATM    5  C   UNL     1      -6.426   9.073  65.784  1.00  0.00    -0.064 C  
HETATM    6  C   UNL     1      -6.692   9.514  63.311  1.00  0.00    -0.101 C  
HETATM    7  C   UNL     1      -7.114   8.982  67.122  1.00  0.00    -0.079 C  
HETATM    8  C   UNL     1      -6.800   8.323  62.371  1.00  0.00    -0.090 C  
HETATM    9  N   UNL     1      -8.130   9.903  67.282  1.00  0.00    -0.113 N  
HETATM   10  C   UNL     1      -8.064   7.612  62.816  1.00  0.00    -0.097 C  
HETATM   11  O   UNL     1      -6.739   8.195  67.987  1.00  0.00    -0.061 OA 
HETATM   12  C   UNL     1      -7.987   7.695  64.333  1.00  0.00    -0.123 C  
ENDROOT
BRANCH   9  13
HETATM   13  C   UNL     1      -8.524  10.245  68.635  1.00  0.00    -0.127 C  
BRANCH  13  14
HETATM   14  C   UNL     1      -7.324  10.820  69.397  1.00  0.00    -0.128 C  
BRANCH  14  15
HETATM   15  C   UNL     1      -6.946  12.221  68.931  1.00  0.00    -0.098 C  
BRANCH  15  16
HETATM   16  C   UNL     1      -8.156  13.126  68.670  1.00  0.00    -0.014 C  
BRANCH  16  17
HETATM   17  N   UNL     1      -8.054  13.908  67.421  1.00  0.00    -0.180 NA 
HETATM   18  C   UNL     1      -9.373  14.408  66.957  1.00  0.00    -0.242 C  
HETATM   19  C   UNL     1     -10.063  15.373  67.946  1.00  0.00    -0.226 C  
HETATM   20  N   UNL     1      -9.166  16.477  68.297  1.00  0.00    -0.208 NA 
HETATM   21  C   UNL     1      -7.191  15.099  67.627  1.00  0.00    -0.185 C  
HETATM   22  C   UNL     1      -7.768  16.156  68.598  1.00  0.00    -0.186 C  
BRANCH  20  23
HETATM   23  C   UNL     1      -9.498  17.726  67.828  1.00  0.00    -0.262 A  
HETATM   24  N   UNL     1      -9.907  18.650  68.717  1.00  0.00    -0.383 NA 
HETATM   25  C   UNL     1     -10.168  19.888  68.268  1.00  0.00    -0.434 A  
HETATM   26  C   UNL     1     -10.062  20.251  66.950  1.00  0.00    -0.565 A  
HETATM   27  C   UNL     1      -9.653  19.250  66.110  1.00  0.00    -0.306 A  
HETATM   28  N   UNL     1      -9.358  18.004  66.520  1.00  0.00    -0.287 NA 
ENDBRANCH  20  23
ENDBRANCH  16  17
ENDBRANCH  15  16
ENDBRANCH  14  15
ENDBRANCH  13  14
ENDBRANCH   9  13
TORSDOF 6
ENDMDL
MODEL      169
REMARK 921   NORMALIZED FREE ENERGY PREDICTED BY IDOCK:   -3.62 KCAL/MOL
REMARK 922        TOTAL FREE ENERGY PREDICTED BY IDOCK:   -5.86 KCAL/MOL
REMARK 923 INTER-LIGAND FREE ENERGY PREDICTED BY IDOCK:   -5.73 KCAL/MOL
REMARK 924 INTRA-LIGAND FREE ENERGY PREDICTED BY IDOCK:   -0.13 KCAL/MOL
REMARK 927      BINDING AFFINITY PREDICTED BY RF-SCORE:    0.00 PKD
ROOT
HETATM    1  O   UNL     1     -10.727  10.021  67.699  1.00  0.00    -0.249 OA 
HETATM    2  C   UNL     1     -10.142   9.238  68.444  1.00  0.00    -0.191 C  
HETATM    3  C   UNL     1     -10.819   7.995  68.959  1.00  0.00    -0.020 C  
HETATM    4  C   UNL     1     -10.541   7.727  70.443  1.00  0.00    -0.227 C  
HETATM    5  C   UNL     1      -9.052   7.905  70.740  1.00  0.00    -0.154 C  
HETATM    6  C   UNL     1     -10.990   6.284  70.784  1.00  0.00    -0.357 C  
HETATM    7  C   UNL     1      -8.492   9.173  70.148  1.00  0.00    -0.176 C  
HETATM    8  C   UNL     1     -12.013   6.410  71.903  1.00  0.00    -0.381 C  
HETATM    9  N   UNL     1      -8.815   9.348  68.817  1.00  0.00    -0.131 N  
HETATM   10  C   UNL     1     -12.614   7.788  71.703  1.00  0.00    -0.357 C  
HETATM   11  O   UNL     1      -7.771   9.924  70.800  1.00  0.00    -0.293 OA 
HETATM   12  C   UNL     1     -11.406   8.639  71.342  1.00  0.00    -0.350 C  
ENDROOT
BRANCH   9  13
HETATM   13  C   UNL     1      -7.971  10.224  68.028  1.00  0.00    -0.101 C  
BRANCH  13  14
HETATM   14  C   UNL     1      -8.365  11.686  68.273  1.00  0.00    -0.159 C  
BRANCH  14  15
HETATM   15  C   UNL     1      -7.167  12.627  68.272  1.00  0.00    -0.113 C  
BRANCH  15  16
HETATM   16  C   UNL     1      -7.445  13.973  68.953  1.00  0.00    -0.095 C  
BRANCH  16  17
HETATM   17  N   UNL     1      -6.288  14.890  68.950  1.00  0.00    -0.085 NA 
HETATM   18  C   UNL     1      -5.922  15.336  67.582  1.00  0.00    -0.094 C  
HETATM   19  C   UNL     1      -7.033  16.133  66.862  1.00  0.00    -0.152 C  
HETATM   20  N   UNL     1      -7.476  17.258  67.690  1.00  0.00    -0.171 NA 
HETATM   21  C   UNL     1      -6.598  16.115  69.732  1.00  0.00    -0.137 C  
HETATM   22  C   UNL     1      -7.696  17.013  69.117  1.00  0.00    -0.114 C  
BRANCH  20  23
HETATM   23  C   UNL     1      -7.158  18.520  67.250  1.00  0.00    -0.204 A  
HETATM   24  N   UNL     1      -7.540  18.876  66.009  1.00  0.00    -0.391 NA 
HETATM   25  C   UNL     1      -7.287  20.131  65.605  1.00  0.00    -0.263 A  
HETATM   26  C   UNL     1      -6.642  21.058  66.380  1.00  0.00    -0.273 A  
HETATM   27  C   UNL     1      -6.275  20.614  67.622  1.00  0.00    -0.270 A  
HETATM   28  N   UNL     1      -6.529  19.374  68.077  1.00  0.00    -0.222 NA 
ENDBRANCH  20  23
ENDBRANCH  16  17
ENDBRANCH  15  16
ENDBRANCH  14  15
ENDBRANCH  13  14
ENDBRANCH   9  13
TORSDOF 6
ENDMDL
MODEL      170
REMARK 921   NORMALIZED FREE ENERGY PREDICTED BY IDOCK:   -3.61 KCAL/MOL
REMARK 922        TOTAL FREE ENERGY PREDICTED BY IDOCK:   -5.85 KCAL/MOL
REMARK 923 INTER-LIGAND FREE ENERGY PREDICTED BY IDOCK:   -5.37 KCAL/MOL
REMARK 924 INTRA-LIGAND FREE ENERGY PREDICTED BY IDOCK:   -0.48 KCAL/MOL
REMARK 927      BINDING AFFINITY PREDICTED BY RF-SCORE:    0.00 PKD
ROOT
HETATM    1  O   UNL     1      -8.202   9.734  70.518  1.00  0.00    -0.209 OA 
HETATM    2  C   UNL     1      -8.229   9.408  69.334  1.00  0.00    -0.119 C  
HETATM    3  C   UNL     1      -9.519   9.025  68.657  1.00  0.00    -0.149 C  
HETATM    4  C   UNL     1      -9.382   7.802  67.743  1.00  0.00    -0.155 C  
HETATM    5  C   UNL     1      -8.131   7.932  66.875  1.00  0.00    -0.115 C  
HETATM    6  C   UNL     1     -10.647   7.696  66.854  1.00  0.00    -0.359 C  
HETATM    7  C   UNL     1      -6.917   8.343  67.668  1.00  0.00    -0.075 C  
HETATM    8  C   UNL     1     -11.248   6.326  67.129  1.00  0.00    -0.260 C  
HETATM    9  N   UNL     1      -7.138   9.435  68.484  1.00  0.00    -0.070 N  
HETATM   10  C   UNL     1     -10.800   6.002  68.542  1.00  0.00    -0.363 C  
HETATM   11  O   UNL     1      -5.835   7.779  67.529  1.00  0.00    -0.035 OA 
HETATM   12  C   UNL     1      -9.361   6.495  68.567  1.00  0.00    -0.123 C  
ENDROOT
BRANCH   9  13
HETATM   13  C   UNL     1      -5.985  10.207  68.904  1.00  0.00    -0.037 C  
BRANCH  13  14
HETATM   14  C   UNL     1      -6.380  11.679  69.078  1.00  0.00    -0.072 C  
BRANCH  14  15
HETATM   15  C   UNL     1      -6.282  12.472  67.781  1.00  0.00    -0.119 C  
BRANCH  15  16
HETATM   16  C   UNL     1      -5.973  13.959  67.995  1.00  0.00    -0.139 C  
BRANCH  16  17
HETATM   17  N   UNL     1      -6.884  14.625  68.946  1.00  0.00    -0.097 NA 
HETATM   18  C   UNL     1      -6.460  16.012  69.261  1.00  0.00    -0.169 C  
HETATM   19  C   UNL     1      -6.441  16.957  68.038  1.00  0.00    -0.144 C  
HETATM   20  N   UNL     1      -7.738  16.937  67.354  1.00  0.00    -0.165 NA 
HETATM   21  C   UNL     1      -8.253  14.714  68.374  1.00  0.00    -0.154 C  
HETATM   22  C   UNL     1      -8.379  15.637  67.140  1.00  0.00    -0.208 C  
BRANCH  20  23
HETATM   23  C   UNL     1      -8.502  18.076  67.430  1.00  0.00    -0.240 A  
HETATM   24  N   UNL     1      -8.163  19.121  66.651  1.00  0.00    -0.281 NA 
HETATM   25  C   UNL     1      -8.949  20.209  66.676  1.00  0.00    -0.314 A  
HETATM   26  C   UNL     1     -10.061  20.320  67.470  1.00  0.00    -0.519 A  
HETATM   27  C   UNL     1     -10.328  19.219  68.241  1.00  0.00    -0.380 A  
HETATM   28  N   UNL     1      -9.583  18.100  68.229  1.00  0.00    -0.303 NA 
ENDBRANCH  20  23
ENDBRANCH  16  17
ENDBRANCH  15  16
ENDBRANCH  14  15
ENDBRANCH  13  14
ENDBRANCH   9  13
TORSDOF 6
ENDMDL
MODEL      171
REMARK 921   NORMALIZED FREE ENERGY PREDICTED BY IDOCK:   -3.60 KCAL/MOL
REMARK 922        TOTAL FREE ENERGY PREDICTED BY IDOCK:   -5.84 KCAL/MOL
REMARK 923 INTER-LIGAND FREE ENERGY PREDICTED BY IDOCK:   -5.71 KCAL/MOL
REMARK 924 INTRA-LIGAND FREE ENERGY PREDICTED BY IDOCK:   -0.13 KCAL/MOL
REMARK 927      BINDING AFFINITY PREDICTED BY RF-SCORE:    0.00 PKD
ROOT
HETATM    1  O   UNL     1      -8.347  12.820  68.299  1.00  0.00    -0.162 OA 
HETATM    2  C   UNL     1      -8.929  13.660  67.617  1.00  0.00    -0.202 C  
HETATM    3  C   UNL     1      -8.207  14.868  67.079  1.00  0.00    -0.228 C  
HETATM    4  C   UNL     1      -9.021  16.161  67.201  1.00  0.00    -0.218 C  
HETATM    5  C   UNL     1     -10.459  15.923  66.738  1.00  0.00    -0.309 C  
HETATM    6  C   UNL     1      -8.352  17.258  66.335  1.00  0.00    -0.315 C  
HETATM    7  C   UNL     1     -11.056  14.671  67.328  1.00  0.00    -0.328 C  
HETATM    8  C   UNL     1      -8.033  18.409  67.278  1.00  0.00    -0.239 C  
HETATM    9  N   UNL     1     -10.244  13.562  67.200  1.00  0.00    -0.245 N  
HETATM   10  C   UNL     1      -7.865  17.744  68.631  1.00  0.00    -0.278 C  
HETATM   11  O   UNL     1     -12.185  14.662  67.811  1.00  0.00    -0.254 OA 
HETATM   12  C   UNL     1      -8.980  16.709  68.645  1.00  0.00    -0.246 C  
ENDROOT
BRANCH   9  13
HETATM   13  C   UNL     1     -10.870  12.256  67.269  1.00  0.00    -0.245 C  
BRANCH  13  14
HETATM   14  C   UNL     1     -10.959  11.799  68.731  1.00  0.00    -0.281 C  
BRANCH  14  15
HETATM   15  C   UNL     1     -11.071  10.286  68.869  1.00  0.00    -0.278 C  
BRANCH  15  16
HETATM   16  C   UNL     1      -9.734   9.555  68.700  1.00  0.00    -0.155 C  
BRANCH  16  17
HETATM   17  N   UNL     1      -9.728   8.190  69.262  1.00  0.00    -0.168 NA 
HETATM   18  C   UNL     1     -10.768   7.322  68.653  1.00  0.00    -0.138 C  
HETATM   19  C   UNL     1     -10.593   7.102  67.134  1.00  0.00    -0.347 C  
HETATM   20  N   UNL     1      -9.245   6.607  66.839  1.00  0.00    -0.137 NA 
HETATM   21  C   UNL     1      -8.420   7.532  69.010  1.00  0.00    -0.133 C  
HETATM   22  C   UNL     1      -8.116   7.247  67.521  1.00  0.00    -0.114 C  
BRANCH  20  23
HETATM   23  C   UNL     1      -9.137   5.309  66.402  1.00  0.00    -0.137 A  
HETATM   24  N   UNL     1      -8.384   4.457  67.122  1.00  0.00    -0.101 NA 
HETATM   25  C   UNL     1      -8.333   3.173  66.731  1.00  0.00    -0.092 A  
HETATM   26  C   UNL     1      -8.986   2.694  65.626  1.00  0.00    -0.134 A  
HETATM   27  C   UNL     1      -9.719   3.627  64.942  1.00  0.00    -0.172 A  
HETATM   28  N   UNL     1      -9.818   4.916  65.311  1.00  0.00    -0.058 NA 
ENDBRANCH  20  23
ENDBRANCH  16  17
ENDBRANCH  15  16
ENDBRANCH  14  15
ENDBRANCH  13  14
ENDBRANCH   9  13
TORSDOF 6
ENDMDL
MODEL      172
REMARK 921   NORMALIZED FREE ENERGY PREDICTED BY IDOCK:   -3.58 KCAL/MOL
REMARK 922        TOTAL FREE ENERGY PREDICTED BY IDOCK:   -5.81 KCAL/MOL
REMARK 923 INTER-LIGAND FREE ENERGY PREDICTED BY IDOCK:   -5.71 KCAL/MOL
REMARK 924 INTRA-LIGAND FREE ENERGY PREDICTED BY IDOCK:   -0.10 KCAL/MOL
REMARK 927      BINDING AFFINITY PREDICTED BY RF-SCORE:    0.00 PKD
ROOT
HETATM    1  O   UNL     1     -12.600   7.658  71.186  1.00  0.00    -0.301 OA 
HETATM    2  C   UNL     1     -11.626   7.456  70.464  1.00  0.00    -0.229 C  
HETATM    3  C   UNL     1     -11.216   6.060  70.076  1.00  0.00    -0.425 C  
HETATM    4  C   UNL     1      -9.701   5.837  70.137  1.00  0.00    -0.219 C  
HETATM    5  C   UNL     1      -8.970   7.006  69.477  1.00  0.00    -0.143 C  
HETATM    6  C   UNL     1      -9.360   4.510  69.413  1.00  0.00    -0.217 C  
HETATM    7  C   UNL     1      -9.491   8.345  69.932  1.00  0.00    -0.166 C  
HETATM    8  C   UNL     1      -8.643   3.639  70.434  1.00  0.00    -0.109 C  
HETATM    9  N   UNL     1     -10.867   8.448  69.871  1.00  0.00    -0.233 N  
HETATM   10  C   UNL     1      -9.175   4.121  71.770  1.00  0.00    -0.181 C  
HETATM   11  O   UNL     1      -8.734   9.254  70.258  1.00  0.00    -0.178 OA 
HETATM   12  C   UNL     1      -9.229   5.631  71.594  1.00  0.00    -0.157 C  
ENDROOT
BRANCH   9  13
HETATM   13  C   UNL     1     -11.441   9.778  69.805  1.00  0.00    -0.098 C  
BRANCH  13  14
HETATM   14  C   UNL     1     -10.713  10.608  68.741  1.00  0.00    -0.249 C  
BRANCH  14  15
HETATM   15  C   UNL     1     -11.114  12.077  68.763  1.00  0.00    -0.298 C  
BRANCH  15  16
HETATM   16  C   UNL     1     -10.106  12.998  68.065  1.00  0.00    -0.235 C  
BRANCH  16  17
HETATM   17  N   UNL     1     -10.399  14.435  68.233  1.00  0.00    -0.234 NA 
HETATM   18  C   UNL     1      -9.528  15.076  69.251  1.00  0.00    -0.170 C  
HETATM   19  C   UNL     1      -8.023  15.039  68.903  1.00  0.00    -0.169 C  
HETATM   20  N   UNL     1      -7.790  15.602  67.570  1.00  0.00    -0.147 NA 
HETATM   21  C   UNL     1     -10.172  15.161  66.956  1.00  0.00    -0.262 C  
HETATM   22  C   UNL     1      -8.699  15.207  66.491  1.00  0.00    -0.245 C  
BRANCH  20  23
HETATM   23  C   UNL     1      -7.132  16.807  67.507  1.00  0.00    -0.147 A  
HETATM   24  N   UNL     1      -7.869  17.933  67.474  1.00  0.00    -0.211 NA 
HETATM   25  C   UNL     1      -7.224  19.111  67.479  1.00  0.00    -0.217 A  
HETATM   26  C   UNL     1      -5.859  19.225  67.491  1.00  0.00    -0.190 A  
HETATM   27  C   UNL     1      -5.183  18.033  67.510  1.00  0.00    -0.137 A  
HETATM   28  N   UNL     1      -5.788  16.832  67.531  1.00  0.00    -0.140 NA 
ENDBRANCH  20  23
ENDBRANCH  16  17
ENDBRANCH  15  16
ENDBRANCH  14  15
ENDBRANCH  13  14
ENDBRANCH   9  13
TORSDOF 6
ENDMDL
MODEL      173
REMARK 921   NORMALIZED FREE ENERGY PREDICTED BY IDOCK:   -3.58 KCAL/MOL
REMARK 922        TOTAL FREE ENERGY PREDICTED BY IDOCK:   -5.80 KCAL/MOL
REMARK 923 INTER-LIGAND FREE ENERGY PREDICTED BY IDOCK:   -5.24 KCAL/MOL
REMARK 924 INTRA-LIGAND FREE ENERGY PREDICTED BY IDOCK:   -0.56 KCAL/MOL
REMARK 927      BINDING AFFINITY PREDICTED BY RF-SCORE:    0.00 PKD
ROOT
HETATM    1  O   UNL     1      -7.310   7.392  69.077  1.00  0.00    -0.086 OA 
HETATM    2  C   UNL     1      -8.262   7.039  69.769  1.00  0.00    -0.131 C  
HETATM    3  C   UNL     1      -8.329   7.368  71.237  1.00  0.00    -0.110 C  
HETATM    4  C   UNL     1      -8.822   6.198  72.096  1.00  0.00    -0.138 C  
HETATM    5  C   UNL     1     -10.049   5.553  71.452  1.00  0.00    -0.258 C  
HETATM    6  C   UNL     1      -9.170   6.727  73.510  1.00  0.00    -0.163 C  
HETATM    7  C   UNL     1      -9.862   5.298  69.979  1.00  0.00    -0.218 C  
HETATM    8  C   UNL     1      -8.313   5.935  74.485  1.00  0.00    -0.112 C  
HETATM    9  N   UNL     1      -9.389   6.396  69.287  1.00  0.00    -0.137 N  
HETATM   10  C   UNL     1      -7.097   5.535  73.670  1.00  0.00    -0.086 C  
HETATM   11  O   UNL     1     -10.171   4.226  69.466  1.00  0.00    -0.047 OA 
HETATM   12  C   UNL     1      -7.697   5.163  72.321  1.00  0.00    -0.100 C  
ENDROOT
BRANCH   9  13
HETATM   13  C   UNL     1      -9.626   6.446  67.857  1.00  0.00    -0.121 C  
BRANCH  13  14
HETATM   14  C   UNL     1     -10.516   7.648  67.519  1.00  0.00    -0.336 C  
BRANCH  14  15
HETATM   15  C   UNL     1     -10.597   8.660  68.655  1.00  0.00    -0.165 C  
BRANCH  15  16
HETATM   16  C   UNL     1      -9.938  10.004  68.325  1.00  0.00    -0.153 C  
BRANCH  16  17
HETATM   17  N   UNL     1     -10.771  10.883  67.480  1.00  0.00    -0.234 NA 
HETATM   18  C   UNL     1     -11.641  11.781  68.280  1.00  0.00    -0.308 C  
HETATM   19  C   UNL     1     -10.866  12.762  69.189  1.00  0.00    -0.075 C  
HETATM   20  N   UNL     1      -9.889  13.523  68.406  1.00  0.00    -0.235 NA 
HETATM   21  C   UNL     1      -9.912  11.756  66.638  1.00  0.00    -0.200 C  
HETATM   22  C   UNL     1      -9.080  12.795  67.425  1.00  0.00    -0.192 C  
BRANCH  20  23
HETATM   23  C   UNL     1     -10.134  14.864  68.234  1.00  0.00    -0.221 A  
HETATM   24  N   UNL     1     -10.073  15.366  66.986  1.00  0.00    -0.246 NA 
HETATM   25  C   UNL     1     -10.378  16.662  66.811  1.00  0.00    -0.295 A  
HETATM   26  C   UNL     1     -10.722  17.503  67.837  1.00  0.00    -0.340 A  
HETATM   27  C   UNL     1     -10.748  16.917  69.075  1.00  0.00    -0.308 A  
HETATM   28  N   UNL     1     -10.474  15.619  69.294  1.00  0.00    -0.229 NA 
ENDBRANCH  20  23
ENDBRANCH  16  17
ENDBRANCH  15  16
ENDBRANCH  14  15
ENDBRANCH  13  14
ENDBRANCH   9  13
TORSDOF 6
ENDMDL
MODEL      174
REMARK 921   NORMALIZED FREE ENERGY PREDICTED BY IDOCK:   -3.54 KCAL/MOL
REMARK 922        TOTAL FREE ENERGY PREDICTED BY IDOCK:   -5.75 KCAL/MOL
REMARK 923 INTER-LIGAND FREE ENERGY PREDICTED BY IDOCK:   -5.50 KCAL/MOL
REMARK 924 INTRA-LIGAND FREE ENERGY PREDICTED BY IDOCK:   -0.25 KCAL/MOL
REMARK 927      BINDING AFFINITY PREDICTED BY RF-SCORE:    0.00 PKD
ROOT
HETATM    1  O   UNL     1     -10.080  12.171  67.427  1.00  0.00    -0.197 OA 
HETATM    2  C   UNL     1     -10.860  13.013  67.865  1.00  0.00    -0.242 C  
HETATM    3  C   UNL     1     -10.826  14.439  67.381  1.00  0.00    -0.293 C  
HETATM    4  C   UNL     1     -10.978  15.464  68.510  1.00  0.00    -0.278 C  
HETATM    5  C   UNL     1     -12.117  15.054  69.444  1.00  0.00    -0.290 C  
HETATM    6  C   UNL     1     -11.264  16.855  67.889  1.00  0.00    -0.031 C  
HETATM    7  C   UNL     1     -12.050  13.600  69.833  1.00  0.00    -0.341 C  
HETATM    8  C   UNL     1     -10.162  17.778  68.387  1.00  0.00    -0.384 C  
HETATM    9  N   UNL     1     -11.883  12.750  68.758  1.00  0.00    -0.315 N  
HETATM   10  C   UNL     1      -8.991  16.851  68.650  1.00  0.00    -0.266 C  
HETATM   11  O   UNL     1     -12.195  13.238  70.998  1.00  0.00    -0.340 OA 
HETATM   12  C   UNL     1      -9.652  15.636  69.285  1.00  0.00    -0.268 C  
ENDROOT
BRANCH   9  13
HETATM   13  C   UNL     1     -12.284  11.366  68.924  1.00  0.00    -0.087 C  
BRANCH  13  14
HETATM   14  C   UNL     1     -11.350  10.670  69.922  1.00  0.00    -0.386 C  
BRANCH  14  15
HETATM   15  C   UNL     1     -11.645   9.182  70.065  1.00  0.00     0.036 C  
BRANCH  15  16
HETATM   16  C   UNL     1     -10.521   8.282  69.537  1.00  0.00    -0.227 C  
BRANCH  16  17
HETATM   17  N   UNL     1     -10.024   8.673  68.203  1.00  0.00    -0.171 NA 
HETATM   18  C   UNL     1      -8.619   8.249  67.975  1.00  0.00    -0.132 C  
HETATM   19  C   UNL     1      -8.409   6.719  68.018  1.00  0.00    -0.120 C  
HETATM   20  N   UNL     1      -9.327   6.049  67.092  1.00  0.00    -0.115 NA 
HETATM   21  C   UNL     1     -10.842   8.036  67.139  1.00  0.00    -0.080 C  
HETATM   22  C   UNL     1     -10.722   6.496  67.066  1.00  0.00    -0.364 C  
BRANCH  20  23
HETATM   23  C   UNL     1      -8.773   5.460  65.981  1.00  0.00    -0.137 A  
HETATM   24  N   UNL     1      -9.122   4.192  65.694  1.00  0.00    -0.129 NA 
HETATM   25  C   UNL     1      -8.632   3.640  64.572  1.00  0.00    -0.097 A  
HETATM   26  C   UNL     1      -7.779   4.291  63.720  1.00  0.00    -0.074 A  
HETATM   27  C   UNL     1      -7.464   5.571  64.090  1.00  0.00    -0.062 A  
HETATM   28  N   UNL     1      -7.950   6.172  65.191  1.00  0.00    -0.111 NA 
ENDBRANCH  20  23
ENDBRANCH  16  17
ENDBRANCH  15  16
ENDBRANCH  14  15
ENDBRANCH  13  14
ENDBRANCH   9  13
TORSDOF 6
ENDMDL
MODEL      175
REMARK 921   NORMALIZED FREE ENERGY PREDICTED BY IDOCK:   -3.47 KCAL/MOL
REMARK 922        TOTAL FREE ENERGY PREDICTED BY IDOCK:   -5.67 KCAL/MOL
REMARK 923 INTER-LIGAND FREE ENERGY PREDICTED BY IDOCK:   -5.53 KCAL/MOL
REMARK 924 INTRA-LIGAND FREE ENERGY PREDICTED BY IDOCK:   -0.13 KCAL/MOL
REMARK 927      BINDING AFFINITY PREDICTED BY RF-SCORE:    0.00 PKD
ROOT
HETATM    1  O   UNL     1      -8.936   8.580  73.031  1.00  0.00    -0.291 OA 
HETATM    2  C   UNL     1      -8.986   7.580  72.318  1.00  0.00    -0.133 C  
HETATM    3  C   UNL     1      -7.743   6.806  71.966  1.00  0.00    -0.095 C  
HETATM    4  C   UNL     1      -7.695   6.375  70.496  1.00  0.00    -0.105 C  
HETATM    5  C   UNL     1      -9.043   5.791  70.075  1.00  0.00    -0.157 C  
HETATM    6  C   UNL     1      -6.572   5.322  70.319  1.00  0.00    -0.035 C  
HETATM    7  C   UNL     1     -10.205   6.647  70.508  1.00  0.00    -0.189 C  
HETATM    8  C   UNL     1      -5.622   5.885  69.272  1.00  0.00    -0.008 C  
HETATM    9  N   UNL     1     -10.153   7.013  71.839  1.00  0.00    -0.183 N  
HETATM   10  C   UNL     1      -5.786   7.388  69.392  1.00  0.00    -0.023 C  
HETATM   11  O   UNL     1     -11.124   6.922  69.741  1.00  0.00    -0.263 OA 
HETATM   12  C   UNL     1      -7.286   7.555  69.586  1.00  0.00    -0.077 C  
ENDROOT
BRANCH   9  13
HETATM   13  C   UNL     1     -11.394   7.397  72.482  1.00  0.00    -0.313 C  
BRANCH  13  14
HETATM   14  C   UNL     1     -11.659   8.890  72.253  1.00  0.00    -0.332 C  
BRANCH  14  15
HETATM   15  C   UNL     1     -12.818   9.144  71.297  1.00  0.00    -0.323 C  
BRANCH  15  16
HETATM   16  C   UNL     1     -12.936  10.606  70.852  1.00  0.00    -0.340 C  
BRANCH  16  17
HETATM   17  N   UNL     1     -11.637  11.245  70.560  1.00  0.00    -0.242 NA 
HETATM   18  C   UNL     1     -11.019  10.728  69.312  1.00  0.00    -0.241 C  
HETATM   19  C   UNL     1     -11.858  10.989  68.041  1.00  0.00    -0.072 C  
HETATM   20  N   UNL     1     -12.186  12.413  67.925  1.00  0.00    -0.296 NA 
HETATM   21  C   UNL     1     -11.810  12.709  70.378  1.00  0.00    -0.154 C  
HETATM   22  C   UNL     1     -12.632  13.113  69.132  1.00  0.00     0.520 C  
BRANCH  20  23
HETATM   23  C   UNL     1     -11.583  13.112  66.908  1.00  0.00    -0.368 A  
HETATM   24  N   UNL     1     -10.443  13.775  67.181  1.00  0.00    -0.271 NA 
HETATM   25  C   UNL     1      -9.820  14.403  66.172  1.00  0.00    -0.320 A  
HETATM   26  C   UNL     1     -10.295  14.424  64.887  1.00  0.00    -0.419 A  
HETATM   27  C   UNL     1     -11.465  13.739  64.696  1.00  0.00    -0.371 A  
HETATM   28  N   UNL     1     -12.111  13.076  65.672  1.00  0.00    -0.431 NA 
ENDBRANCH  20  23
ENDBRANCH  16  17
ENDBRANCH  15  16
ENDBRANCH  14  15
ENDBRANCH  13  14
ENDBRANCH   9  13
TORSDOF 6
ENDMDL
MODEL      176
REMARK 921   NORMALIZED FREE ENERGY PREDICTED BY IDOCK:   -3.47 KCAL/MOL
REMARK 922        TOTAL FREE ENERGY PREDICTED BY IDOCK:   -5.66 KCAL/MOL
REMARK 923 INTER-LIGAND FREE ENERGY PREDICTED BY IDOCK:   -5.59 KCAL/MOL
REMARK 924 INTRA-LIGAND FREE ENERGY PREDICTED BY IDOCK:   -0.07 KCAL/MOL
REMARK 927      BINDING AFFINITY PREDICTED BY RF-SCORE:    0.00 PKD
ROOT
HETATM    1  O   UNL     1      -8.703  15.776  65.466  1.00  0.00     0.149 OA 
HETATM    2  C   UNL     1      -9.069  16.663  66.234  1.00  0.00    -0.298 C  
HETATM    3  C   UNL     1      -8.138  17.772  66.649  1.00  0.00    -0.288 C  
HETATM    4  C   UNL     1      -8.227  18.108  68.142  1.00  0.00    -0.284 C  
HETATM    5  C   UNL     1      -9.690  18.205  68.573  1.00  0.00    -0.372 C  
HETATM    6  C   UNL     1      -7.500  19.452  68.397  1.00  0.00    -0.355 C  
HETATM    7  C   UNL     1     -10.518  17.049  68.073  1.00  0.00    -0.353 C  
HETATM    8  C   UNL     1      -6.418  19.162  69.426  1.00  0.00    -0.337 C  
HETATM    9  N   UNL     1     -10.355  16.799  66.724  1.00  0.00    -0.300 N  
HETATM   10  C   UNL     1      -6.092  17.695  69.219  1.00  0.00    -0.233 C  
HETATM   11  O   UNL     1     -11.299  16.451  68.808  1.00  0.00    -0.336 OA 
HETATM   12  C   UNL     1      -7.460  17.069  68.991  1.00  0.00    -0.211 C  
ENDROOT
BRANCH   9  13
HETATM   13  C   UNL     1     -11.410  16.076  66.040  1.00  0.00     0.285 C  
BRANCH  13  14
HETATM   14  C   UNL     1     -11.140  14.568  66.112  1.00  0.00    -0.334 C  
BRANCH  14  15
HETATM   15  C   UNL     1     -12.192  13.820  66.921  1.00  0.00    -0.408 C  
BRANCH  15  16
HETATM   16  C   UNL     1     -11.738  12.427  67.376  1.00  0.00    -0.347 C  
BRANCH  16  17
HETATM   17  N   UNL     1     -10.445  12.007  66.801  1.00  0.00    -0.210 NA 
HETATM   18  C   UNL     1      -9.329  12.118  67.775  1.00  0.00    -0.193 C  
HETATM   19  C   UNL     1      -9.493  11.222  69.023  1.00  0.00    -0.013 C  
HETATM   20  N   UNL     1      -9.720   9.829  68.628  1.00  0.00    -0.152 NA 
HETATM   21  C   UNL     1     -10.504  10.584  66.378  1.00  0.00    -0.192 C  
HETATM   22  C   UNL     1     -10.663   9.572  67.536  1.00  0.00    -0.245 C  
BRANCH  20  23
HETATM   23  C   UNL     1      -8.714   8.932  68.892  1.00  0.00    -0.136 A  
HETATM   24  N   UNL     1      -7.675   8.873  68.037  1.00  0.00    -0.100 NA 
HETATM   25  C   UNL     1      -6.661   8.043  68.332  1.00  0.00    -0.059 A  
HETATM   26  C   UNL     1      -6.640   7.240  69.441  1.00  0.00    -0.041 A  
HETATM   27  C   UNL     1      -7.739   7.350  70.252  1.00  0.00    -0.093 A  
HETATM   28  N   UNL     1      -8.765   8.184  70.009  1.00  0.00    -0.130 NA 
ENDBRANCH  20  23
ENDBRANCH  16  17
ENDBRANCH  15  16
ENDBRANCH  14  15
ENDBRANCH  13  14
ENDBRANCH   9  13
TORSDOF 6
ENDMDL
MODEL      177
REMARK 921   NORMALIZED FREE ENERGY PREDICTED BY IDOCK:   -3.43 KCAL/MOL
REMARK 922        TOTAL FREE ENERGY PREDICTED BY IDOCK:   -5.61 KCAL/MOL
REMARK 923 INTER-LIGAND FREE ENERGY PREDICTED BY IDOCK:   -5.12 KCAL/MOL
REMARK 924 INTRA-LIGAND FREE ENERGY PREDICTED BY IDOCK:   -0.49 KCAL/MOL
REMARK 927      BINDING AFFINITY PREDICTED BY RF-SCORE:    0.00 PKD
ROOT
HETATM    1  O   UNL     1     -11.121  14.401  65.194  1.00  0.00    -0.325 OA 
HETATM    2  C   UNL     1     -10.563  14.613  66.269  1.00  0.00    -0.306 C  
HETATM    3  C   UNL     1     -10.853  15.856  67.069  1.00  0.00    -0.252 C  
HETATM    4  C   UNL     1      -9.595  16.497  67.664  1.00  0.00    -0.235 C  
HETATM    5  C   UNL     1      -8.709  15.427  68.302  1.00  0.00    -0.164 C  
HETATM    6  C   UNL     1     -10.019  17.546  68.722  1.00  0.00    -0.342 C  
HETATM    7  C   UNL     1      -8.519  14.227  67.410  1.00  0.00    -0.203 C  
HETATM    8  C   UNL     1      -9.417  18.870  68.277  1.00  0.00    -0.395 C  
HETATM    9  N   UNL     1      -9.701  13.732  66.895  1.00  0.00    -0.257 N  
HETATM   10  C   UNL     1      -9.297  18.734  66.770  1.00  0.00    -0.330 C  
HETATM   11  O   UNL     1      -7.412  13.727  67.231  1.00  0.00    -0.150 OA 
HETATM   12  C   UNL     1      -8.822  17.299  66.593  1.00  0.00    -0.280 C  
ENDROOT
BRANCH   9  13
HETATM   13  C   UNL     1      -9.716  12.352  66.449  1.00  0.00    -0.240 C  
BRANCH  13  14
HETATM   14  C   UNL     1      -9.601  11.413  67.656  1.00  0.00    -0.176 C  
BRANCH  14  15
HETATM   15  C   UNL     1      -8.678  10.230  67.396  1.00  0.00    -0.128 C  
BRANCH  15  16
HETATM   16  C   UNL     1      -9.381   8.871  67.497  1.00  0.00    -0.136 C  
BRANCH  16  17
HETATM   17  N   UNL     1      -8.972   8.077  68.672  1.00  0.00    -0.134 NA 
HETATM   18  C   UNL     1      -9.919   6.972  68.968  1.00  0.00    -0.164 C  
HETATM   19  C   UNL     1     -10.040   5.928  67.835  1.00  0.00    -0.162 C  
HETATM   20  N   UNL     1      -8.718   5.414  67.467  1.00  0.00    -0.108 NA 
HETATM   21  C   UNL     1      -7.644   7.452  68.437  1.00  0.00    -0.114 C  
HETATM   22  C   UNL     1      -7.623   6.378  67.325  1.00  0.00    -0.096 C  
BRANCH  20  23
HETATM   23  C   UNL     1      -8.444   4.106  67.787  1.00  0.00    -0.098 A  
HETATM   24  N   UNL     1      -8.356   3.776  69.090  1.00  0.00    -0.067 NA 
HETATM   25  C   UNL     1      -8.154   2.486  69.403  1.00  0.00    -0.044 A  
HETATM   26  C   UNL     1      -8.011   1.495  68.467  1.00  0.00    -0.055 A  
HETATM   27  C   UNL     1      -8.101   1.916  67.167  1.00  0.00    -0.068 A  
HETATM   28  N   UNL     1      -8.326   3.192  66.808  1.00  0.00    -0.089 NA 
ENDBRANCH  20  23
ENDBRANCH  16  17
ENDBRANCH  15  16
ENDBRANCH  14  15
ENDBRANCH  13  14
ENDBRANCH   9  13
TORSDOF 6
ENDMDL
MODEL      178
REMARK 921   NORMALIZED FREE ENERGY PREDICTED BY IDOCK:   -3.43 KCAL/MOL
REMARK 922        TOTAL FREE ENERGY PREDICTED BY IDOCK:   -5.61 KCAL/MOL
REMARK 923 INTER-LIGAND FREE ENERGY PREDICTED BY IDOCK:   -5.33 KCAL/MOL
REMARK 924 INTRA-LIGAND FREE ENERGY PREDICTED BY IDOCK:   -0.28 KCAL/MOL
REMARK 927      BINDING AFFINITY PREDICTED BY RF-SCORE:    0.00 PKD
ROOT
HETATM    1  O   UNL     1      -5.728  11.765  66.160  1.00  0.00    -0.188 OA 
HETATM    2  C   UNL     1      -6.136  10.609  66.074  1.00  0.00    -0.131 C  
HETATM    3  C   UNL     1      -6.199   9.897  64.748  1.00  0.00    -0.107 C  
HETATM    4  C   UNL     1      -7.487   9.089  64.558  1.00  0.00    -0.104 C  
HETATM    5  C   UNL     1      -7.792   8.279  65.818  1.00  0.00    -0.098 C  
HETATM    6  C   UNL     1      -7.312   8.146  63.341  1.00  0.00    -0.103 C  
HETATM    7  C   UNL     1      -7.669   9.099  67.076  1.00  0.00    -0.098 C  
HETATM    8  C   UNL     1      -8.428   8.494  62.368  1.00  0.00    -0.174 C  
HETATM    9  N   UNL     1      -6.492   9.818  67.152  1.00  0.00    -0.069 N  
HETATM   10  C   UNL     1      -8.739   9.949  62.665  1.00  0.00    -0.219 C  
HETATM   11  O   UNL     1      -8.525   9.060  67.956  1.00  0.00    -0.123 OA 
HETATM   12  C   UNL     1      -8.670  10.010  64.184  1.00  0.00    -0.221 C  
ENDROOT
BRANCH   9  13
HETATM   13  C   UNL     1      -6.040  10.236  68.465  1.00  0.00    -0.043 C  
BRANCH  13  14
HETATM   14  C   UNL     1      -7.067  11.188  69.090  1.00  0.00    -0.116 C  
BRANCH  14  15
HETATM   15  C   UNL     1      -6.440  12.478  69.601  1.00  0.00    -0.057 C  
BRANCH  15  16
HETATM   16  C   UNL     1      -6.702  13.687  68.695  1.00  0.00    -0.100 C  
BRANCH  16  17
HETATM   17  N   UNL     1      -8.135  13.978  68.492  1.00  0.00    -0.142 NA 
HETATM   18  C   UNL     1      -8.630  15.046  69.397  1.00  0.00    -0.121 C  
HETATM   19  C   UNL     1      -7.939  16.413  69.193  1.00  0.00    -0.204 C  
HETATM   20  N   UNL     1      -8.018  16.823  67.788  1.00  0.00    -0.175 NA 
HETATM   21  C   UNL     1      -8.376  14.447  67.103  1.00  0.00    -0.191 C  
HETATM   22  C   UNL     1      -7.740  15.815  66.763  1.00  0.00    -0.181 C  
BRANCH  20  23
HETATM   23  C   UNL     1      -8.824  17.897  67.495  1.00  0.00    -0.248 A  
HETATM   24  N   UNL     1      -9.584  17.836  66.385  1.00  0.00    -0.355 NA 
HETATM   25  C   UNL     1     -10.420  18.856  66.135  1.00  0.00    -0.457 A  
HETATM   26  C   UNL     1     -10.522  19.963  66.936  1.00  0.00    -0.577 A  
HETATM   27  C   UNL     1      -9.707  19.953  68.037  1.00  0.00    -0.393 A  
HETATM   28  N   UNL     1      -8.872  18.943  68.339  1.00  0.00    -0.333 NA 
ENDBRANCH  20  23
ENDBRANCH  16  17
ENDBRANCH  15  16
ENDBRANCH  14  15
ENDBRANCH  13  14
ENDBRANCH   9  13
TORSDOF 6
ENDMDL
MODEL      179
REMARK 921   NORMALIZED FREE ENERGY PREDICTED BY IDOCK:   -3.38 KCAL/MOL
REMARK 922        TOTAL FREE ENERGY PREDICTED BY IDOCK:   -5.53 KCAL/MOL
REMARK 923 INTER-LIGAND FREE ENERGY PREDICTED BY IDOCK:   -5.30 KCAL/MOL
REMARK 924 INTRA-LIGAND FREE ENERGY PREDICTED BY IDOCK:   -0.24 KCAL/MOL
REMARK 927      BINDING AFFINITY PREDICTED BY RF-SCORE:    0.00 PKD
ROOT
HETATM    1  O   UNL     1      -9.562   3.414  68.931  1.00  0.00    -0.163 OA 
HETATM    2  C   UNL     1      -8.991   4.084  69.788  1.00  0.00    -0.100 C  
HETATM    3  C   UNL     1      -9.078   3.728  71.248  1.00  0.00    -0.181 C  
HETATM    4  C   UNL     1      -9.284   4.945  72.156  1.00  0.00    -0.159 C  
HETATM    5  C   UNL     1      -8.332   6.071  71.751  1.00  0.00    -0.119 C  
HETATM    6  C   UNL     1      -9.027   4.525  73.625  1.00  0.00    -0.103 C  
HETATM    7  C   UNL     1      -8.320   6.311  70.263  1.00  0.00    -0.126 C  
HETATM    8  C   UNL     1     -10.304   4.841  74.388  1.00  0.00    -0.324 C  
HETATM    9  N   UNL     1      -8.159   5.157  69.522  1.00  0.00    -0.082 N  
HETATM   10  C   UNL     1     -11.395   4.757  73.338  1.00  0.00    -0.397 C  
HETATM   11  O   UNL     1      -8.387   7.443  69.792  1.00  0.00    -0.131 OA 
HETATM   12  C   UNL     1     -10.755   5.417  72.126  1.00  0.00    -0.286 C  
ENDROOT
BRANCH   9  13
HETATM   13  C   UNL     1      -7.653   5.289  68.169  1.00  0.00    -0.080 C  
BRANCH  13  14
HETATM   14  C   UNL     1      -8.757   5.830  67.251  1.00  0.00    -0.108 C  
BRANCH  14  15
HETATM   15  C   UNL     1      -8.309   7.038  66.439  1.00  0.00    -0.125 C  
BRANCH  15  16
HETATM   16  C   UNL     1      -9.316   8.194  66.454  1.00  0.00    -0.210 C  
BRANCH  16  17
HETATM   17  N   UNL     1      -8.937   9.323  65.582  1.00  0.00    -0.185 NA 
HETATM   18  C   UNL     1     -10.093  10.193  65.247  1.00  0.00    -0.274 C  
HETATM   19  C   UNL     1     -10.746  10.870  66.473  1.00  0.00    -0.209 C  
HETATM   20  N   UNL     1      -9.741  11.595  67.255  1.00  0.00    -0.180 NA 
HETATM   21  C   UNL     1      -7.934  10.185  66.259  1.00  0.00    -0.118 C  
HETATM   22  C   UNL     1      -8.459  10.931  67.507  1.00  0.00    -0.123 C  
BRANCH  20  23
HETATM   23  C   UNL     1      -9.814  12.967  67.249  1.00  0.00    -0.227 A  
HETATM   24  N   UNL     1      -8.663  13.665  67.264  1.00  0.00    -0.209 NA 
HETATM   25  C   UNL     1      -8.734  15.004  67.192  1.00  0.00    -0.220 A  
HETATM   26  C   UNL     1      -9.915  15.695  67.127  1.00  0.00    -0.240 A  
HETATM   27  C   UNL     1     -11.039  14.913  67.130  1.00  0.00    -0.332 A  
HETATM   28  N   UNL     1     -11.014  13.569  67.177  1.00  0.00    -0.287 NA 
ENDBRANCH  20  23
ENDBRANCH  16  17
ENDBRANCH  15  16
ENDBRANCH  14  15
ENDBRANCH  13  14
ENDBRANCH   9  13
TORSDOF 6
ENDMDL
MODEL      180
REMARK 921   NORMALIZED FREE ENERGY PREDICTED BY IDOCK:   -3.34 KCAL/MOL
REMARK 922        TOTAL FREE ENERGY PREDICTED BY IDOCK:   -5.49 KCAL/MOL
REMARK 923 INTER-LIGAND FREE ENERGY PREDICTED BY IDOCK:   -5.22 KCAL/MOL
REMARK 924 INTRA-LIGAND FREE ENERGY PREDICTED BY IDOCK:   -0.26 KCAL/MOL
REMARK 927      BINDING AFFINITY PREDICTED BY RF-SCORE:    0.00 PKD
ROOT
HETATM    1  O   UNL     1     -12.449  10.958  68.507  1.00  0.00    -0.375 OA 
HETATM    2  C   UNL     1     -11.491  11.579  68.052  1.00  0.00    -0.311 C  
HETATM    3  C   UNL     1     -11.611  13.030  67.665  1.00  0.00    -0.403 C  
HETATM    4  C   UNL     1     -10.913  13.362  66.341  1.00  0.00    -0.297 C  
HETATM    5  C   UNL     1      -9.524  12.726  66.306  1.00  0.00    -0.198 C  
HETATM    6  C   UNL     1     -10.805  14.901  66.204  1.00  0.00    -0.327 C  
HETATM    7  C   UNL     1      -9.537  11.282  66.739  1.00  0.00    -0.193 C  
HETATM    8  C   UNL     1     -11.513  15.264  64.907  1.00  0.00    -0.343 C  
HETATM    9  N   UNL     1     -10.211  11.070  67.925  1.00  0.00    -0.178 N  
HETATM   10  C   UNL     1     -12.534  14.157  64.720  1.00  0.00    -0.395 C  
HETATM   11  O   UNL     1      -8.942  10.414  66.106  1.00  0.00    -0.150 OA 
HETATM   12  C   UNL     1     -11.768  12.910  65.135  1.00  0.00    -0.385 C  
ENDROOT
BRANCH   9  13
HETATM   13  C   UNL     1      -9.892   9.873  68.678  1.00  0.00    -0.158 C  
BRANCH  13  14
HETATM   14  C   UNL     1      -9.015  10.234  69.884  1.00  0.00     0.008 C  
BRANCH  14  15
HETATM   15  C   UNL     1      -8.999   9.144  70.947  1.00  0.00    -0.298 C  
BRANCH  15  16
HETATM   16  C   UNL     1     -10.127   8.117  70.790  1.00  0.00    -0.189 C  
BRANCH  16  17
HETATM   17  N   UNL     1      -9.705   6.727  71.050  1.00  0.00    -0.175 NA 
HETATM   18  C   UNL     1     -10.008   5.820  69.914  1.00  0.00    -0.194 C  
HETATM   19  C   UNL     1      -9.282   6.192  68.601  1.00  0.00    -0.123 C  
HETATM   20  N   UNL     1      -7.838   6.300  68.827  1.00  0.00    -0.100 NA 
HETATM   21  C   UNL     1      -8.236   6.664  71.268  1.00  0.00    -0.120 C  
HETATM   22  C   UNL     1      -7.383   7.011  70.026  1.00  0.00    -0.081 C  
BRANCH  20  23
HETATM   23  C   UNL     1      -7.042   5.337  68.256  1.00  0.00    -0.062 A  
HETATM   24  N   UNL     1      -6.673   4.287  69.014  1.00  0.00    -0.045 NA 
HETATM   25  C   UNL     1      -5.950   3.314  68.436  1.00  0.00    -0.024 A  
HETATM   26  C   UNL     1      -5.551   3.346  67.126  1.00  0.00    -0.022 A  
HETATM   27  C   UNL     1      -5.956   4.453  66.429  1.00  0.00    -0.027 A  
HETATM   28  N   UNL     1      -6.700   5.439  66.960  1.00  0.00    -0.060 NA 
ENDBRANCH  20  23
ENDBRANCH  16  17
ENDBRANCH  15  16
ENDBRANCH  14  15
ENDBRANCH  13  14
ENDBRANCH   9  13
TORSDOF 6
ENDMDL
MODEL      181
REMARK 921   NORMALIZED FREE ENERGY PREDICTED BY IDOCK:   -3.31 KCAL/MOL
REMARK 922        TOTAL FREE ENERGY PREDICTED BY IDOCK:   -5.45 KCAL/MOL
REMARK 923 INTER-LIGAND FREE ENERGY PREDICTED BY IDOCK:   -5.73 KCAL/MOL
REMARK 924 INTRA-LIGAND FREE ENERGY PREDICTED BY IDOCK:    0.28 KCAL/MOL
REMARK 927      BINDING AFFINITY PREDICTED BY RF-SCORE:    0.00 PKD
ROOT
HETATM    1  O   UNL     1      -8.810  12.023  68.259  1.00  0.00    -0.179 OA 
HETATM    2  C   UNL     1      -8.207  11.037  68.677  1.00  0.00    -0.151 C  
HETATM    3  C   UNL     1      -8.827   9.666  68.641  1.00  0.00    -0.128 C  
HETATM    4  C   UNL     1      -8.585   8.859  69.922  1.00  0.00    -0.137 C  
HETATM    5  C   UNL     1      -7.119   8.969  70.343  1.00  0.00    -0.065 C  
HETATM    6  C   UNL     1      -8.961   7.379  69.661  1.00  0.00    -0.141 C  
HETATM    7  C   UNL     1      -6.614  10.389  70.313  1.00  0.00    -0.141 C  
HETATM    8  C   UNL     1     -10.026   7.023  70.687  1.00  0.00    -0.194 C  
HETATM    9  N   UNL     1      -6.901  11.049  69.134  1.00  0.00    -0.084 N  
HETATM   10  C   UNL     1     -10.698   8.347  70.998  1.00  0.00    -0.267 C  
HETATM   11  O   UNL     1      -5.959  10.859  71.239  1.00  0.00    -0.351 OA 
HETATM   12  C   UNL     1      -9.530   9.319  71.055  1.00  0.00    -0.313 C  
ENDROOT
BRANCH   9  13
HETATM   13  C   UNL     1      -6.083  12.195  68.787  1.00  0.00    -0.067 C  
BRANCH  13  14
HETATM   14  C   UNL     1      -6.466  13.394  69.663  1.00  0.00    -0.056 C  
BRANCH  14  15
HETATM   15  C   UNL     1      -6.225  14.729  68.972  1.00  0.00    -0.094 C  
BRANCH  15  16
HETATM   16  C   UNL     1      -7.047  15.881  69.562  1.00  0.00    -0.184 C  
BRANCH  16  17
HETATM   17  N   UNL     1      -7.584  16.809  68.547  1.00  0.00    -0.205 NA 
HETATM   18  C   UNL     1      -7.384  16.312  67.162  1.00  0.00    -0.209 C  
HETATM   19  C   UNL     1      -8.103  14.977  66.864  1.00  0.00    -0.126 C  
HETATM   20  N   UNL     1      -9.527  15.075  67.197  1.00  0.00    -0.210 NA 
HETATM   21  C   UNL     1      -9.047  16.988  68.732  1.00  0.00    -0.252 C  
HETATM   22  C   UNL     1      -9.893  15.723  68.459  1.00  0.00    -0.209 C  
BRANCH  20  23
HETATM   23  C   UNL     1     -10.416  15.061  66.149  1.00  0.00    -0.305 A  
HETATM   24  N   UNL     1     -11.293  14.042  66.074  1.00  0.00    -0.322 NA 
HETATM   25  C   UNL     1     -12.203  14.064  65.087  1.00  0.00    -0.436 A  
HETATM   26  C   UNL     1     -12.271  15.054  64.143  1.00  0.00    -0.234 A  
HETATM   27  C   UNL     1     -11.336  16.045  64.282  1.00  0.00    -0.137 A  
HETATM   28  N   UNL     1     -10.421  16.076  65.267  1.00  0.00    -0.531 NA 
ENDBRANCH  20  23
ENDBRANCH  16  17
ENDBRANCH  15  16
ENDBRANCH  14  15
ENDBRANCH  13  14
ENDBRANCH   9  13
TORSDOF 6
ENDMDL
MODEL      182
REMARK 921   NORMALIZED FREE ENERGY PREDICTED BY IDOCK:   -3.29 KCAL/MOL
REMARK 922        TOTAL FREE ENERGY PREDICTED BY IDOCK:   -5.42 KCAL/MOL
REMARK 923 INTER-LIGAND FREE ENERGY PREDICTED BY IDOCK:   -5.41 KCAL/MOL
REMARK 924 INTRA-LIGAND FREE ENERGY PREDICTED BY IDOCK:   -0.01 KCAL/MOL
REMARK 927      BINDING AFFINITY PREDICTED BY RF-SCORE:    0.00 PKD
ROOT
HETATM    1  O   UNL     1      -9.586   4.631  68.892  1.00  0.00    -0.142 OA 
HETATM    2  C   UNL     1      -8.966   4.939  69.908  1.00  0.00    -0.099 C  
HETATM    3  C   UNL     1      -8.510   3.895  70.893  1.00  0.00    -0.098 C  
HETATM    4  C   UNL     1      -8.724   4.307  72.353  1.00  0.00    -0.117 C  
HETATM    5  C   UNL     1      -8.254   5.746  72.568  1.00  0.00    -0.117 C  
HETATM    6  C   UNL     1      -7.934   3.340  73.269  1.00  0.00    -0.069 C  
HETATM    7  C   UNL     1      -8.759   6.684  71.502  1.00  0.00    -0.131 C  
HETATM    8  C   UNL     1      -8.952   2.719  74.213  1.00  0.00    -0.087 C  
HETATM    9  N   UNL     1      -8.550   6.221  70.218  1.00  0.00    -0.136 N  
HETATM   10  C   UNL     1     -10.255   2.769  73.438  1.00  0.00    -0.204 C  
HETATM   11  O   UNL     1      -9.246   7.776  71.782  1.00  0.00    -0.134 OA 
HETATM   12  C   UNL     1     -10.203   4.133  72.767  1.00  0.00    -0.228 C  
ENDROOT
BRANCH   9  13
HETATM   13  C   UNL     1      -8.532   7.195  69.143  1.00  0.00    -0.133 C  
BRANCH  13  14
HETATM   14  C   UNL     1      -9.914   7.848  69.010  1.00  0.00    -0.188 C  
BRANCH  14  15
HETATM   15  C   UNL     1     -10.141   8.472  67.639  1.00  0.00    -0.271 C  
BRANCH  15  16
HETATM   16  C   UNL     1      -9.880   9.983  67.604  1.00  0.00    -0.162 C  
BRANCH  16  17
HETATM   17  N   UNL     1     -10.979  10.760  66.998  1.00  0.00    -0.259 NA 
HETATM   18  C   UNL     1     -11.430  11.877  67.867  1.00  0.00    -0.316 C  
HETATM   19  C   UNL     1     -10.338  12.932  68.152  1.00  0.00    -0.240 C  
HETATM   20  N   UNL     1      -9.765  13.429  66.897  1.00  0.00    -0.246 NA 
HETATM   21  C   UNL     1     -10.537  11.367  65.715  1.00  0.00    -0.260 C  
HETATM   22  C   UNL     1      -9.443  12.450  65.856  1.00  0.00    -0.129 C  
BRANCH  20  23
HETATM   23  C   UNL     1     -10.045  14.730  66.555  1.00  0.00    -0.273 A  
HETATM   24  N   UNL     1      -9.569  15.711  67.344  1.00  0.00    -0.216 NA 
HETATM   25  C   UNL     1      -9.787  16.983  66.973  1.00  0.00    -0.270 A  
HETATM   26  C   UNL     1     -10.487  17.332  65.848  1.00  0.00    -0.267 A  
HETATM   27  C   UNL     1     -10.948  16.276  65.107  1.00  0.00    -0.274 A  
HETATM   28  N   UNL     1     -10.733  14.988  65.429  1.00  0.00    -0.345 NA 
ENDBRANCH  20  23
ENDBRANCH  16  17
ENDBRANCH  15  16
ENDBRANCH  14  15
ENDBRANCH  13  14
ENDBRANCH   9  13
TORSDOF 6
ENDMDL
MODEL      183
REMARK 921   NORMALIZED FREE ENERGY PREDICTED BY IDOCK:   -3.27 KCAL/MOL
REMARK 922        TOTAL FREE ENERGY PREDICTED BY IDOCK:   -5.40 KCAL/MOL
REMARK 923 INTER-LIGAND FREE ENERGY PREDICTED BY IDOCK:   -5.83 KCAL/MOL
REMARK 924 INTRA-LIGAND FREE ENERGY PREDICTED BY IDOCK:    0.43 KCAL/MOL
REMARK 927      BINDING AFFINITY PREDICTED BY RF-SCORE:    0.00 PKD
ROOT
HETATM    1  O   UNL     1     -10.051  14.043  68.418  1.00  0.00    -0.226 OA 
HETATM    2  C   UNL     1     -10.067  13.149  67.575  1.00  0.00    -0.222 C  
HETATM    3  C   UNL     1     -10.053  13.461  66.102  1.00  0.00    -0.304 C  
HETATM    4  C   UNL     1     -11.019  12.591  65.291  1.00  0.00    -0.329 C  
HETATM    5  C   UNL     1     -10.890  11.128  65.712  1.00  0.00    -0.218 C  
HETATM    6  C   UNL     1     -10.693  12.749  63.785  1.00  0.00    -0.397 C  
HETATM    7  C   UNL     1     -10.893  10.955  67.210  1.00  0.00    -0.287 C  
HETATM    8  C   UNL     1     -11.969  13.244  63.121  1.00  0.00    -0.179 C  
HETATM    9  N   UNL     1     -10.014  11.797  67.862  1.00  0.00    -0.177 N  
HETATM   10  C   UNL     1     -12.700  13.982  64.227  1.00  0.00     0.010 C  
HETATM   11  O   UNL     1     -11.578  10.095  67.758  1.00  0.00    -0.239 OA 
HETATM   12  C   UNL     1     -12.474  13.092  65.440  1.00  0.00    -0.531 C  
ENDROOT
BRANCH   9  13
HETATM   13  C   UNL     1      -9.570  11.412  69.188  1.00  0.00     0.121 C  
BRANCH  13  14
HETATM   14  C   UNL     1      -9.758   9.903  69.382  1.00  0.00    -0.228 C  
BRANCH  14  15
HETATM   15  C   UNL     1      -8.953   9.355  70.554  1.00  0.00    -0.303 C  
BRANCH  15  16
HETATM   16  C   UNL     1      -9.821   8.737  71.657  1.00  0.00    -0.308 C  
BRANCH  16  17
HETATM   17  N   UNL     1     -10.611   7.573  71.209  1.00  0.00    -0.215 NA 
HETATM   18  C   UNL     1      -9.755   6.429  70.805  1.00  0.00    -0.180 C  
HETATM   19  C   UNL     1      -8.876   5.868  71.945  1.00  0.00    -0.138 C  
HETATM   20  N   UNL     1      -9.700   5.533  73.111  1.00  0.00    -0.149 NA 
HETATM   21  C   UNL     1     -11.485   7.088  72.308  1.00  0.00    -0.270 C  
HETATM   22  C   UNL     1     -10.730   6.492  73.519  1.00  0.00    -0.263 C  
BRANCH  20  23
HETATM   23  C   UNL     1      -9.842   4.201  73.414  1.00  0.00    -0.123 A  
HETATM   24  N   UNL     1     -11.078   3.738  73.680  1.00  0.00    -0.241 NA 
HETATM   25  C   UNL     1     -11.225   2.424  73.911  1.00  0.00    -0.155 A  
HETATM   26  C   UNL     1     -10.181   1.536  73.915  1.00  0.00    -0.136 A  
HETATM   27  C   UNL     1      -8.956   2.089  73.650  1.00  0.00    -0.065 A  
HETATM   28  N   UNL     1      -8.766   3.394  73.389  1.00  0.00    -0.078 NA 
ENDBRANCH  20  23
ENDBRANCH  16  17
ENDBRANCH  15  16
ENDBRANCH  14  15
ENDBRANCH  13  14
ENDBRANCH   9  13
TORSDOF 6
ENDMDL
MODEL      184
REMARK 921   NORMALIZED FREE ENERGY PREDICTED BY IDOCK:   -3.24 KCAL/MOL
REMARK 922        TOTAL FREE ENERGY PREDICTED BY IDOCK:   -5.34 KCAL/MOL
REMARK 923 INTER-LIGAND FREE ENERGY PREDICTED BY IDOCK:   -4.53 KCAL/MOL
REMARK 924 INTRA-LIGAND FREE ENERGY PREDICTED BY IDOCK:   -0.81 KCAL/MOL
REMARK 927      BINDING AFFINITY PREDICTED BY RF-SCORE:    0.00 PKD
ROOT
HETATM    1  O   UNL     1      -9.619  11.814  63.588  1.00  0.00    -0.257 OA 
HETATM    2  C   UNL     1      -9.779  11.721  64.803  1.00  0.00    -0.161 C  
HETATM    3  C   UNL     1     -10.975  12.332  65.484  1.00  0.00    -0.337 C  
HETATM    4  C   UNL     1     -10.625  13.036  66.800  1.00  0.00    -0.269 C  
HETATM    5  C   UNL     1      -9.698  12.156  67.638  1.00  0.00    -0.188 C  
HETATM    6  C   UNL     1     -11.935  13.329  67.574  1.00  0.00    -0.371 C  
HETATM    7  C   UNL     1      -8.558  11.587  66.833  1.00  0.00    -0.163 C  
HETATM    8  C   UNL     1     -11.969  14.834  67.798  1.00  0.00    -0.247 C  
HETATM    9  N   UNL     1      -8.960  10.997  65.651  1.00  0.00    -0.200 N  
HETATM   10  C   UNL     1     -11.158  15.399  66.648  1.00  0.00    -0.236 C  
HETATM   11  O   UNL     1      -7.402  11.608  67.249  1.00  0.00    -0.119 OA 
HETATM   12  C   UNL     1      -9.996  14.423  66.537  1.00  0.00    -0.291 C  
ENDROOT
BRANCH   9  13
HETATM   13  C   UNL     1      -8.074  10.019  65.050  1.00  0.00    -0.145 C  
BRANCH  13  14
HETATM   14  C   UNL     1      -8.774   8.657  64.978  1.00  0.00    -0.154 C  
BRANCH  14  15
HETATM   15  C   UNL     1      -8.370   7.726  66.115  1.00  0.00    -0.129 C  
BRANCH  15  16
HETATM   16  C   UNL     1      -9.466   7.535  67.169  1.00  0.00    -0.154 C  
BRANCH  16  17
HETATM   17  N   UNL     1      -9.288   8.375  68.370  1.00  0.00    -0.135 NA 
HETATM   18  C   UNL     1      -9.843   7.740  69.593  1.00  0.00    -0.182 C  
HETATM   19  C   UNL     1      -9.168   6.402  69.969  1.00  0.00    -0.156 C  
HETATM   20  N   UNL     1      -7.715   6.571  70.067  1.00  0.00    -0.100 NA 
HETATM   21  C   UNL     1      -7.844   8.610  68.627  1.00  0.00    -0.107 C  
HETATM   22  C   UNL     1      -7.043   7.347  69.021  1.00  0.00    -0.079 C  
BRANCH  20  23
HETATM   23  C   UNL     1      -7.158   6.479  71.319  1.00  0.00    -0.077 A  
HETATM   24  N   UNL     1      -6.161   5.594  71.508  1.00  0.00    -0.037 NA 
HETATM   25  C   UNL     1      -5.574   5.552  72.715  1.00  0.00    -0.023 A  
HETATM   26  C   UNL     1      -5.951   6.344  73.767  1.00  0.00    -0.063 A  
HETATM   27  C   UNL     1      -6.980   7.206  73.496  1.00  0.00    -0.069 A  
HETATM   28  N   UNL     1      -7.582   7.299  72.297  1.00  0.00    -0.083 NA 
ENDBRANCH  20  23
ENDBRANCH  16  17
ENDBRANCH  15  16
ENDBRANCH  14  15
ENDBRANCH  13  14
ENDBRANCH   9  13
TORSDOF 6
ENDMDL
MODEL      185
REMARK 921   NORMALIZED FREE ENERGY PREDICTED BY IDOCK:   -3.19 KCAL/MOL
REMARK 922        TOTAL FREE ENERGY PREDICTED BY IDOCK:   -5.29 KCAL/MOL
REMARK 923 INTER-LIGAND FREE ENERGY PREDICTED BY IDOCK:   -4.42 KCAL/MOL
REMARK 924 INTRA-LIGAND FREE ENERGY PREDICTED BY IDOCK:   -0.87 KCAL/MOL
REMARK 927      BINDING AFFINITY PREDICTED BY RF-SCORE:    0.00 PKD
ROOT
HETATM    1  O   UNL     1      -7.518   7.189  65.301  1.00  0.00    -0.082 OA 
HETATM    2  C   UNL     1      -8.075   6.347  66.000  1.00  0.00    -0.120 C  
HETATM    3  C   UNL     1      -7.701   4.890  65.920  1.00  0.00    -0.091 C  
HETATM    4  C   UNL     1      -8.915   3.953  65.937  1.00  0.00    -0.132 C  
HETATM    5  C   UNL     1      -9.894   4.380  67.031  1.00  0.00    -0.227 C  
HETATM    6  C   UNL     1      -8.426   2.505  66.187  1.00  0.00    -0.099 C  
HETATM    7  C   UNL     1     -10.164   5.863  67.018  1.00  0.00    -0.209 C  
HETATM    8  C   UNL     1      -8.913   1.681  65.004  1.00  0.00    -0.123 C  
HETATM    9  N   UNL     1      -9.016   6.630  66.974  1.00  0.00    -0.116 N  
HETATM   10  C   UNL     1      -9.018   2.684  63.871  1.00  0.00    -0.099 C  
HETATM   11  O   UNL     1     -11.304   6.311  67.105  1.00  0.00    -0.261 OA 
HETATM   12  C   UNL     1      -9.602   3.912  64.554  1.00  0.00    -0.173 C  
ENDROOT
BRANCH   9  13
HETATM   13  C   UNL     1      -9.103   8.001  67.439  1.00  0.00    -0.134 C  
BRANCH  13  14
HETATM   14  C   UNL     1      -8.206   8.192  68.668  1.00  0.00    -0.125 C  
BRANCH  14  15
HETATM   15  C   UNL     1      -7.007   9.090  68.388  1.00  0.00    -0.068 C  
BRANCH  15  16
HETATM   16  C   UNL     1      -7.274  10.573  68.672  1.00  0.00    -0.087 C  
BRANCH  16  17
HETATM   17  N   UNL     1      -7.099  11.444  67.492  1.00  0.00    -0.099 NA 
HETATM   18  C   UNL     1      -8.321  11.513  66.652  1.00  0.00    -0.167 C  
HETATM   19  C   UNL     1      -9.549  12.107  67.377  1.00  0.00    -0.177 C  
HETATM   20  N   UNL     1      -9.222  13.415  67.952  1.00  0.00    -0.207 NA 
HETATM   21  C   UNL     1      -6.792  12.834  67.918  1.00  0.00    -0.114 C  
HETATM   22  C   UNL     1      -7.945  13.554  68.655  1.00  0.00    -0.073 C  
BRANCH  20  23
HETATM   23  C   UNL     1      -9.816  14.515  67.382  1.00  0.00    -0.227 A  
HETATM   24  N   UNL     1      -9.921  15.635  68.122  1.00  0.00    -0.216 NA 
HETATM   25  C   UNL     1     -10.441  16.729  67.542  1.00  0.00    -0.319 A  
HETATM   26  C   UNL     1     -10.890  16.756  66.247  1.00  0.00     0.005 A  
HETATM   27  C   UNL     1     -10.760  15.574  65.569  1.00  0.00    -0.381 A  
HETATM   28  N   UNL     1     -10.223  14.462  66.102  1.00  0.00    -0.295 NA 
ENDBRANCH  20  23
ENDBRANCH  16  17
ENDBRANCH  15  16
ENDBRANCH  14  15
ENDBRANCH  13  14
ENDBRANCH   9  13
TORSDOF 6
ENDMDL
MODEL      186
REMARK 921   NORMALIZED FREE ENERGY PREDICTED BY IDOCK:   -3.18 KCAL/MOL
REMARK 922        TOTAL FREE ENERGY PREDICTED BY IDOCK:   -5.27 KCAL/MOL
REMARK 923 INTER-LIGAND FREE ENERGY PREDICTED BY IDOCK:   -5.44 KCAL/MOL
REMARK 924 INTRA-LIGAND FREE ENERGY PREDICTED BY IDOCK:    0.18 KCAL/MOL
REMARK 927      BINDING AFFINITY PREDICTED BY RF-SCORE:    0.00 PKD
ROOT
HETATM    1  O   UNL     1      -9.239   5.195  70.163  1.00  0.00    -0.132 OA 
HETATM    2  C   UNL     1      -8.841   6.090  70.905  1.00  0.00    -0.135 C  
HETATM    3  C   UNL     1      -7.459   6.055  71.504  1.00  0.00    -0.094 C  
HETATM    4  C   UNL     1      -7.430   6.469  72.979  1.00  0.00    -0.089 C  
HETATM    5  C   UNL     1      -8.267   7.730  73.189  1.00  0.00    -0.197 C  
HETATM    6  C   UNL     1      -5.960   6.722  73.399  1.00  0.00    -0.058 C  
HETATM    7  C   UNL     1      -9.616   7.647  72.520  1.00  0.00    -0.176 C  
HETATM    8  C   UNL     1      -5.683   5.785  74.566  1.00  0.00    -0.053 C  
HETATM    9  N   UNL     1      -9.551   7.239  71.202  1.00  0.00    -0.161 N  
HETATM   10  C   UNL     1      -6.637   4.627  74.346  1.00  0.00    -0.064 C  
HETATM   11  O   UNL     1     -10.645   7.977  73.102  1.00  0.00    -0.334 OA 
HETATM   12  C   UNL     1      -7.914   5.316  73.888  1.00  0.00    -0.105 C  
ENDROOT
BRANCH   9  13
HETATM   13  C   UNL     1     -10.663   7.579  70.336  1.00  0.00    -0.239 C  
BRANCH  13  14
HETATM   14  C   UNL     1     -10.156   7.826  68.910  1.00  0.00    -0.201 C  
BRANCH  14  15
HETATM   15  C   UNL     1      -9.504   9.192  68.745  1.00  0.00    -0.147 C  
BRANCH  15  16
HETATM   16  C   UNL     1     -10.091  10.267  69.668  1.00  0.00    -0.224 C  
BRANCH  16  17
HETATM   17  N   UNL     1     -11.370  10.827  69.188  1.00  0.00    -0.260 NA 
HETATM   18  C   UNL     1     -11.420  12.307  69.304  1.00  0.00    -0.292 C  
HETATM   19  C   UNL     1     -10.351  13.040  68.463  1.00  0.00    -0.239 C  
HETATM   20  N   UNL     1     -10.418  12.612  67.063  1.00  0.00    -0.232 NA 
HETATM   21  C   UNL     1     -11.570  10.503  67.751  1.00  0.00     0.131 C  
HETATM   22  C   UNL     1     -10.565  11.180  66.790  1.00  0.00    -0.263 C  
BRANCH  20  23
HETATM   23  C   UNL     1     -10.864  13.535  66.148  1.00  0.00    -0.281 A  
HETATM   24  N   UNL     1     -10.031  14.531  65.792  1.00  0.00    -0.325 NA 
HETATM   25  C   UNL     1     -10.443  15.394  64.850  1.00  0.00    -0.292 A  
HETATM   26  C   UNL     1     -11.674  15.326  64.250  1.00  0.00    -0.223 A  
HETATM   27  C   UNL     1     -12.465  14.293  64.677  1.00  0.00    -0.351 A  
HETATM   28  N   UNL     1     -12.084  13.392  65.600  1.00  0.00    -0.407 NA 
ENDBRANCH  20  23
ENDBRANCH  16  17
ENDBRANCH  15  16
ENDBRANCH  14  15
ENDBRANCH  13  14
ENDBRANCH   9  13
TORSDOF 6
ENDMDL
MODEL      187
REMARK 921   NORMALIZED FREE ENERGY PREDICTED BY IDOCK:   -3.08 KCAL/MOL
REMARK 922        TOTAL FREE ENERGY PREDICTED BY IDOCK:   -5.13 KCAL/MOL
REMARK 923 INTER-LIGAND FREE ENERGY PREDICTED BY IDOCK:   -5.69 KCAL/MOL
REMARK 924 INTRA-LIGAND FREE ENERGY PREDICTED BY IDOCK:    0.56 KCAL/MOL
REMARK 927      BINDING AFFINITY PREDICTED BY RF-SCORE:    0.00 PKD
ROOT
HETATM    1  O   UNL     1      -8.749  11.021  66.489  1.00  0.00    -0.157 OA 
HETATM    2  C   UNL     1      -7.870  10.650  67.263  1.00  0.00    -0.112 C  
HETATM    3  C   UNL     1      -7.689   9.194  67.603  1.00  0.00    -0.089 C  
HETATM    4  C   UNL     1      -7.423   8.951  69.093  1.00  0.00    -0.073 C  
HETATM    5  C   UNL     1      -6.378   9.940  69.609  1.00  0.00    -0.049 C  
HETATM    6  C   UNL     1      -6.928   7.495  69.282  1.00  0.00    -0.068 C  
HETATM    7  C   UNL     1      -6.660  11.356  69.178  1.00  0.00    -0.095 C  
HETATM    8  C   UNL     1      -7.900   6.837  70.250  1.00  0.00    -0.110 C  
HETATM    9  N   UNL     1      -6.917  11.479  67.827  1.00  0.00    -0.074 N  
HETATM   10  C   UNL     1      -9.197   7.597  70.047  1.00  0.00    -0.151 C  
HETATM   11  O   UNL     1      -6.597  12.295  69.968  1.00  0.00    -0.011 OA 
HETATM   12  C   UNL     1      -8.731   9.039  69.912  1.00  0.00    -0.160 C  
ENDROOT
BRANCH   9  13
HETATM   13  C   UNL     1      -6.720  12.781  67.219  1.00  0.00    -0.082 C  
BRANCH  13  14
HETATM   14  C   UNL     1      -7.924  13.682  67.518  1.00  0.00    -0.189 C  
BRANCH  14  15
HETATM   15  C   UNL     1      -7.821  15.045  66.845  1.00  0.00    -0.056 C  
BRANCH  15  16
HETATM   16  C   UNL     1      -8.658  16.132  67.531  1.00  0.00    -0.177 C  
BRANCH  16  17
HETATM   17  N   UNL     1     -10.115  15.922  67.413  1.00  0.00    -0.248 NA 
HETATM   18  C   UNL     1     -10.571  14.698  68.118  1.00  0.00    -0.237 C  
HETATM   19  C   UNL     1     -10.319  14.720  69.643  1.00  0.00    -0.065 C  
HETATM   20  N   UNL     1     -10.896  15.927  70.241  1.00  0.00    -0.337 NA 
HETATM   21  C   UNL     1     -10.852  17.064  68.015  1.00  0.00    -0.330 C  
HETATM   22  C   UNL     1     -10.691  17.201  69.547  1.00  0.00    -0.015 C  
BRANCH  20  23
HETATM   23  C   UNL     1     -11.987  15.759  71.059  1.00  0.00    -0.419 A  
HETATM   24  N   UNL     1     -11.838  16.006  72.375  1.00  0.00    -0.507 NA 
HETATM   25  C   UNL     1     -12.920  15.905  73.163  1.00  0.00    -0.549 A  
HETATM   26  C   UNL     1     -14.159  15.543  72.703  1.00  0.00    -0.536 A  
HETATM   27  C   UNL     1     -14.222  15.296  71.357  1.00  0.00    -0.485 A  
HETATM   28  N   UNL     1     -13.171  15.408  70.527  1.00  0.00    -0.311 NA 
ENDBRANCH  20  23
ENDBRANCH  16  17
ENDBRANCH  15  16
ENDBRANCH  14  15
ENDBRANCH  13  14
ENDBRANCH   9  13
TORSDOF 6
ENDMDL
MODEL      188
REMARK 921   NORMALIZED FREE ENERGY PREDICTED BY IDOCK:   -3.06 KCAL/MOL
REMARK 922        TOTAL FREE ENERGY PREDICTED BY IDOCK:   -5.10 KCAL/MOL
REMARK 923 INTER-LIGAND FREE ENERGY PREDICTED BY IDOCK:   -4.47 KCAL/MOL
REMARK 924 INTRA-LIGAND FREE ENERGY PREDICTED BY IDOCK:   -0.63 KCAL/MOL
REMARK 927      BINDING AFFINITY PREDICTED BY RF-SCORE:    0.00 PKD
ROOT
HETATM    1  O   UNL     1      -8.899  10.847  69.519  1.00  0.00     0.027 OA 
HETATM    2  C   UNL     1      -8.662  11.611  68.586  1.00  0.00    -0.083 C  
HETATM    3  C   UNL     1      -7.305  12.242  68.417  1.00  0.00    -0.109 C  
HETATM    4  C   UNL     1      -7.373  13.723  68.029  1.00  0.00    -0.134 C  
HETATM    5  C   UNL     1      -8.400  13.930  66.917  1.00  0.00    -0.029 C  
HETATM    6  C   UNL     1      -5.970  14.183  67.559  1.00  0.00     0.076 C  
HETATM    7  C   UNL     1      -9.704  13.227  67.196  1.00  0.00    -0.236 C  
HETATM    8  C   UNL     1      -5.577  15.343  68.461  1.00  0.00    -0.099 C  
HETATM    9  N   UNL     1      -9.548  11.906  67.566  1.00  0.00    -0.173 N  
HETATM   10  C   UNL     1      -6.334  15.084  69.750  1.00  0.00    -0.152 C  
HETATM   11  O   UNL     1     -10.785  13.789  67.039  1.00  0.00    -0.279 OA 
HETATM   12  C   UNL     1      -7.692  14.604  69.258  1.00  0.00    -0.091 C  
ENDROOT
BRANCH   9  13
HETATM   13  C   UNL     1     -10.680  11.018  67.387  1.00  0.00    -0.257 C  
BRANCH  13  14
HETATM   14  C   UNL     1     -10.309   9.890  66.416  1.00  0.00    -0.246 C  
BRANCH  14  15
HETATM   15  C   UNL     1      -9.638   8.712  67.109  1.00  0.00    -0.227 C  
BRANCH  15  16
HETATM   16  C   UNL     1     -10.466   8.125  68.259  1.00  0.00    -0.160 C  
BRANCH  16  17
HETATM   17  N   UNL     1     -10.273   6.674  68.449  1.00  0.00    -0.160 NA 
HETATM   18  C   UNL     1      -9.006   6.358  69.156  1.00  0.00    -0.129 C  
HETATM   19  C   UNL     1      -8.924   6.936  70.586  1.00  0.00    -0.151 C  
HETATM   20  N   UNL     1     -10.091   6.528  71.373  1.00  0.00    -0.191 NA 
HETATM   21  C   UNL     1     -11.375   6.109  69.270  1.00  0.00    -0.291 C  
HETATM   22  C   UNL     1     -11.408   6.603  70.735  1.00  0.00    -0.336 C  
BRANCH  20  23
HETATM   23  C   UNL     1      -9.874   5.638  72.398  1.00  0.00    -0.164 A  
HETATM   24  N   UNL     1      -8.753   4.894  72.366  1.00  0.00    -0.123 NA 
HETATM   25  C   UNL     1      -8.509   4.073  73.400  1.00  0.00    -0.089 A  
HETATM   26  C   UNL     1      -9.353   3.938  74.472  1.00  0.00    -0.124 A  
HETATM   27  C   UNL     1     -10.476   4.719  74.421  1.00  0.00    -0.285 A  
HETATM   28  N   UNL     1     -10.748   5.572  73.417  1.00  0.00    -0.259 NA 
ENDBRANCH  20  23
ENDBRANCH  16  17
ENDBRANCH  15  16
ENDBRANCH  14  15
ENDBRANCH  13  14
ENDBRANCH   9  13
TORSDOF 6
ENDMDL
MODEL      189
REMARK 921   NORMALIZED FREE ENERGY PREDICTED BY IDOCK:   -3.01 KCAL/MOL
REMARK 922        TOTAL FREE ENERGY PREDICTED BY IDOCK:   -5.04 KCAL/MOL
REMARK 923 INTER-LIGAND FREE ENERGY PREDICTED BY IDOCK:   -4.29 KCAL/MOL
REMARK 924 INTRA-LIGAND FREE ENERGY PREDICTED BY IDOCK:   -0.75 KCAL/MOL
REMARK 927      BINDING AFFINITY PREDICTED BY RF-SCORE:    0.00 PKD
ROOT
HETATM    1  O   UNL     1      -9.845   7.312  67.138  1.00  0.00    -0.158 OA 
HETATM    2  C   UNL     1      -9.043   6.605  67.743  1.00  0.00    -0.113 C  
HETATM    3  C   UNL     1      -8.237   5.549  67.032  1.00  0.00    -0.105 C  
HETATM    4  C   UNL     1      -8.144   4.233  67.812  1.00  0.00    -0.094 C  
HETATM    5  C   UNL     1      -7.819   4.513  69.279  1.00  0.00    -0.062 C  
HETATM    6  C   UNL     1      -7.043   3.350  67.175  1.00  0.00    -0.058 C  
HETATM    7  C   UNL     1      -8.677   5.605  69.864  1.00  0.00    -0.125 C  
HETATM    8  C   UNL     1      -7.719   2.046  66.777  1.00  0.00    -0.066 C  
HETATM    9  N   UNL     1      -8.727   6.743  69.083  1.00  0.00    -0.131 N  
HETATM   10  C   UNL     1      -9.166   2.437  66.540  1.00  0.00    -0.037 C  
HETATM   11  O   UNL     1      -9.215   5.484  70.962  1.00  0.00    -0.145 OA 
HETATM   12  C   UNL     1      -9.447   3.413  67.673  1.00  0.00    -0.231 C  
ENDROOT
BRANCH   9  13
HETATM   13  C   UNL     1      -9.089   7.989  69.729  1.00  0.00    -0.149 C  
BRANCH  13  14
HETATM   14  C   UNL     1      -7.823   8.764  70.112  1.00  0.00    -0.094 C  
BRANCH  14  15
HETATM   15  C   UNL     1      -7.317   9.658  68.987  1.00  0.00    -0.073 C  
BRANCH  15  16
HETATM   16  C   UNL     1      -7.940  11.059  68.991  1.00  0.00    -0.114 C  
BRANCH  16  17
HETATM   17  N   UNL     1      -8.273  11.565  67.645  1.00  0.00    -0.126 NA 
HETATM   18  C   UNL     1      -9.665  12.073  67.558  1.00  0.00    -0.187 C  
HETATM   19  C   UNL     1      -9.957  13.271  68.490  1.00  0.00    -0.188 C  
HETATM   20  N   UNL     1      -8.982  14.343  68.267  1.00  0.00    -0.181 NA 
HETATM   21  C   UNL     1      -7.380  12.696  67.282  1.00  0.00    -0.104 C  
HETATM   22  C   UNL     1      -7.571  13.970  68.138  1.00  0.00    -0.141 C  
BRANCH  20  23
HETATM   23  C   UNL     1      -9.444  15.496  67.680  1.00  0.00    -0.208 A  
HETATM   24  N   UNL     1     -10.230  16.310  68.411  1.00  0.00    -0.240 NA 
HETATM   25  C   UNL     1     -10.627  17.468  67.860  1.00  0.00    -0.390 A  
HETATM   26  C   UNL     1     -10.294  17.852  66.587  1.00  0.00    -0.362 A  
HETATM   27  C   UNL     1      -9.505  16.963  65.907  1.00  0.00    -0.113 A  
HETATM   28  N   UNL     1      -9.064  15.804  66.428  1.00  0.00    -0.293 NA 
ENDBRANCH  20  23
ENDBRANCH  16  17
ENDBRANCH  15  16
ENDBRANCH  14  15
ENDBRANCH  13  14
ENDBRANCH   9  13
TORSDOF 6
ENDMDL
MODEL      190
REMARK 921   NORMALIZED FREE ENERGY PREDICTED BY IDOCK:   -2.92 KCAL/MOL
REMARK 922        TOTAL FREE ENERGY PREDICTED BY IDOCK:   -4.92 KCAL/MOL
REMARK 923 INTER-LIGAND FREE ENERGY PREDICTED BY IDOCK:   -4.83 KCAL/MOL
REMARK 924 INTRA-LIGAND FREE ENERGY PREDICTED BY IDOCK:   -0.09 KCAL/MOL
REMARK 927      BINDING AFFINITY PREDICTED BY RF-SCORE:    0.00 PKD
ROOT
HETATM    1  O   UNL     1      -5.433  11.970  66.811  1.00  0.00    -0.271 OA 
HETATM    2  C   UNL     1      -5.615  10.908  67.400  1.00  0.00    -0.045 C  
HETATM    3  C   UNL     1      -5.656   9.598  66.658  1.00  0.00    -0.046 C  
HETATM    4  C   UNL     1      -6.773   8.666  67.140  1.00  0.00    -0.063 C  
HETATM    5  C   UNL     1      -6.800   8.622  68.668  1.00  0.00    -0.063 C  
HETATM    6  C   UNL     1      -6.527   7.248  66.565  1.00  0.00    -0.052 C  
HETATM    7  C   UNL     1      -6.729   9.995  69.286  1.00  0.00    -0.057 C  
HETATM    8  C   UNL     1      -7.772   6.889  65.768  1.00  0.00    -0.100 C  
HETATM    9  N   UNL     1      -5.712  10.777  68.774  1.00  0.00    -0.040 N  
HETATM   10  C   UNL     1      -8.333   8.230  65.332  1.00  0.00    -0.170 C  
HETATM   11  O   UNL     1      -7.478  10.330  70.200  1.00  0.00    -0.165 OA 
HETATM   12  C   UNL     1      -8.142   9.098  66.567  1.00  0.00    -0.107 C  
ENDROOT
BRANCH   9  13
HETATM   13  C   UNL     1      -5.235  11.880  69.585  1.00  0.00    -0.068 C  
BRANCH  13  14
HETATM   14  C   UNL     1      -6.396  12.828  69.908  1.00  0.00    -0.030 C  
BRANCH  14  15
HETATM   15  C   UNL     1      -6.161  14.243  69.396  1.00  0.00    -0.108 C  
BRANCH  15  16
HETATM   16  C   UNL     1      -7.174  14.687  68.334  1.00  0.00    -0.117 C  
BRANCH  16  17
HETATM   17  N   UNL     1      -8.553  14.234  68.603  1.00  0.00    -0.171 NA 
HETATM   18  C   UNL     1      -9.569  15.071  67.915  1.00  0.00    -0.203 C  
HETATM   19  C   UNL     1      -9.462  15.047  66.373  1.00  0.00    -0.297 C  
HETATM   20  N   UNL     1      -9.482  13.668  65.879  1.00  0.00    -0.110 NA 
HETATM   21  C   UNL     1      -8.744  12.842  68.120  1.00  0.00    -0.190 C  
HETATM   22  C   UNL     1      -8.667  12.675  66.585  1.00  0.00    -0.080 C  
BRANCH  20  23
HETATM   23  C   UNL     1     -10.595  13.270  65.179  1.00  0.00    -0.330 A  
HETATM   24  N   UNL     1     -10.415  12.647  63.999  1.00  0.00    -0.409 NA 
HETATM   25  C   UNL     1     -11.501  12.200  63.348  1.00  0.00    -0.416 A  
HETATM   26  C   UNL     1     -12.780  12.367  63.809  1.00  0.00    -0.471 A  
HETATM   27  C   UNL     1     -12.878  13.022  65.008  1.00  0.00    -0.295 A  
HETATM   28  N   UNL     1     -11.817  13.464  65.706  1.00  0.00    -0.357 NA 
ENDBRANCH  20  23
ENDBRANCH  16  17
ENDBRANCH  15  16
ENDBRANCH  14  15
ENDBRANCH  13  14
ENDBRANCH   9  13
TORSDOF 6
ENDMDL
MODEL      191
REMARK 921   NORMALIZED FREE ENERGY PREDICTED BY IDOCK:   -2.88 KCAL/MOL
REMARK 922        TOTAL FREE ENERGY PREDICTED BY IDOCK:   -4.87 KCAL/MOL
REMARK 923 INTER-LIGAND FREE ENERGY PREDICTED BY IDOCK:   -5.23 KCAL/MOL
REMARK 924 INTRA-LIGAND FREE ENERGY PREDICTED BY IDOCK:    0.36 KCAL/MOL
REMARK 927      BINDING AFFINITY PREDICTED BY RF-SCORE:    0.00 PKD
ROOT
HETATM    1  O   UNL     1      -9.632   8.600  70.713  1.00  0.00    -0.167 OA 
HETATM    2  C   UNL     1      -9.047   7.522  70.627  1.00  0.00    -0.155 C  
HETATM    3  C   UNL     1      -8.358   6.908  71.817  1.00  0.00    -0.108 C  
HETATM    4  C   UNL     1      -6.990   6.307  71.479  1.00  0.00    -0.076 C  
HETATM    5  C   UNL     1      -7.082   5.475  70.200  1.00  0.00    -0.066 C  
HETATM    6  C   UNL     1      -6.523   5.424  72.663  1.00  0.00    -0.060 C  
HETATM    7  C   UNL     1      -7.815   6.192  69.095  1.00  0.00    -0.104 C  
HETATM    8  C   UNL     1      -5.184   5.988  73.114  1.00  0.00    -0.027 C  
HETATM    9  N   UNL     1      -9.024   6.727  69.495  1.00  0.00    -0.139 N  
HETATM   10  C   UNL     1      -5.246   7.451  72.720  1.00  0.00    -0.037 C  
HETATM   11  O   UNL     1      -7.380   6.224  67.948  1.00  0.00    -0.084 OA 
HETATM   12  C   UNL     1      -5.915   7.411  71.354  1.00  0.00    -0.036 C  
ENDROOT
BRANCH   9  13
HETATM   13  C   UNL     1     -10.015   6.996  68.471  1.00  0.00    -0.155 C  
BRANCH  13  14
HETATM   14  C   UNL     1      -9.542   8.151  67.580  1.00  0.00    -0.186 C  
BRANCH  14  15
HETATM   15  C   UNL     1     -10.662   9.124  67.234  1.00  0.00    -0.224 C  
BRANCH  15  16
HETATM   16  C   UNL     1     -10.176  10.559  66.998  1.00  0.00    -0.226 C  
BRANCH  16  17
HETATM   17  N   UNL     1      -9.641  11.212  68.209  1.00  0.00    -0.178 NA 
HETATM   18  C   UNL     1      -9.603  12.691  68.086  1.00  0.00    -0.219 C  
HETATM   19  C   UNL     1     -10.991  13.342  67.892  1.00  0.00    -0.256 C  
HETATM   20  N   UNL     1     -11.909  12.918  68.953  1.00  0.00    -0.314 NA 
HETATM   21  C   UNL     1     -10.496  10.902  69.384  1.00  0.00    -0.173 C  
HETATM   22  C   UNL     1     -11.920  11.501  69.323  1.00  0.00    -0.330 C  
BRANCH  20  23
HETATM   23  C   UNL     1     -12.288  13.870  69.869  1.00  0.00    -0.300 A  
HETATM   24  N   UNL     1     -12.908  13.460  70.991  1.00  0.00    -0.288 NA 
HETATM   25  C   UNL     1     -13.220  14.384  71.915  1.00  0.00    -0.365 A  
HETATM   26  C   UNL     1     -12.961  15.721  71.763  1.00  0.00    -0.505 A  
HETATM   27  C   UNL     1     -12.341  16.056  70.589  1.00  0.00    -0.125 A  
HETATM   28  N   UNL     1     -11.989  15.162  69.648  1.00  0.00    -0.323 NA 
ENDBRANCH  20  23
ENDBRANCH  16  17
ENDBRANCH  15  16
ENDBRANCH  14  15
ENDBRANCH  13  14
ENDBRANCH   9  13
TORSDOF 6
ENDMDL
MODEL      192
REMARK 921   NORMALIZED FREE ENERGY PREDICTED BY IDOCK:   -2.87 KCAL/MOL
REMARK 922        TOTAL FREE ENERGY PREDICTED BY IDOCK:   -4.86 KCAL/MOL
REMARK 923 INTER-LIGAND FREE ENERGY PREDICTED BY IDOCK:   -4.87 KCAL/MOL
REMARK 924 INTRA-LIGAND FREE ENERGY PREDICTED BY IDOCK:    0.02 KCAL/MOL
REMARK 927      BINDING AFFINITY PREDICTED BY RF-SCORE:    0.00 PKD
ROOT
HETATM    1  O   UNL     1      -5.883  16.162  66.672  1.00  0.00    -0.238 OA 
HETATM    2  C   UNL     1      -5.608  15.417  67.610  1.00  0.00    -0.057 C  
HETATM    3  C   UNL     1      -5.231  13.977  67.381  1.00  0.00     0.371 C  
HETATM    4  C   UNL     1      -5.880  13.016  68.383  1.00  0.00    -0.077 C  
HETATM    5  C   UNL     1      -5.754  13.571  69.802  1.00  0.00    -0.110 C  
HETATM    6  C   UNL     1      -5.182  11.637  68.280  1.00  0.00    -0.043 C  
HETATM    7  C   UNL     1      -6.137  15.026  69.890  1.00  0.00    -0.143 C  
HETATM    8  C   UNL     1      -6.273  10.631  67.947  1.00  0.00    -0.054 C  
HETATM    9  N   UNL     1      -5.528  15.814  68.933  1.00  0.00    -0.102 N  
HETATM   10  C   UNL     1      -7.324  11.450  67.221  1.00  0.00    -0.130 C  
HETATM   11  O   UNL     1      -6.873  15.446  70.779  1.00  0.00     0.390 OA 
HETATM   12  C   UNL     1      -7.357  12.747  68.015  1.00  0.00    -0.117 C  
ENDROOT
BRANCH   9  13
HETATM   13  C   UNL     1      -5.420  17.235  69.198  1.00  0.00    -0.165 C  
BRANCH  13  14
HETATM   14  C   UNL     1      -6.801  17.808  69.539  1.00  0.00    -0.043 C  
BRANCH  14  15
HETATM   15  C   UNL     1      -7.198  18.968  68.635  1.00  0.00    -0.351 C  
BRANCH  15  16
HETATM   16  C   UNL     1      -8.255  18.596  67.588  1.00  0.00    -0.258 C  
BRANCH  16  17
HETATM   17  N   UNL     1      -9.474  17.995  68.164  1.00  0.00    -0.279 NA 
HETATM   18  C   UNL     1     -10.639  18.090  67.248  1.00  0.00    -0.346 C  
HETATM   19  C   UNL     1     -10.450  17.342  65.910  1.00  0.00    -0.262 C  
HETATM   20  N   UNL     1     -10.073  15.946  66.151  1.00  0.00    -0.293 NA 
HETATM   21  C   UNL     1      -9.260  16.550  68.436  1.00  0.00    -0.222 C  
HETATM   22  C   UNL     1      -9.060  15.677  67.175  1.00  0.00    -0.210 C  
BRANCH  20  23
HETATM   23  C   UNL     1     -11.001  14.984  65.833  1.00  0.00    -0.343 A  
HETATM   24  N   UNL     1     -11.197  14.696  64.533  1.00  0.00    -0.325 NA 
HETATM   25  C   UNL     1     -12.055  13.710  64.226  1.00  0.00    -0.434 A  
HETATM   26  C   UNL     1     -12.757  13.001  65.165  1.00  0.00    -0.461 A  
HETATM   27  C   UNL     1     -12.511  13.364  66.463  1.00  0.00    -0.195 A  
HETATM   28  N   UNL     1     -11.643  14.328  66.816  1.00  0.00    -0.374 NA 
ENDBRANCH  20  23
ENDBRANCH  16  17
ENDBRANCH  15  16
ENDBRANCH  14  15
ENDBRANCH  13  14
ENDBRANCH   9  13
TORSDOF 6
ENDMDL
MODEL      193
REMARK 921   NORMALIZED FREE ENERGY PREDICTED BY IDOCK:   -2.86 KCAL/MOL
REMARK 922        TOTAL FREE ENERGY PREDICTED BY IDOCK:   -4.84 KCAL/MOL
REMARK 923 INTER-LIGAND FREE ENERGY PREDICTED BY IDOCK:   -5.83 KCAL/MOL
REMARK 924 INTRA-LIGAND FREE ENERGY PREDICTED BY IDOCK:    1.00 KCAL/MOL
REMARK 927      BINDING AFFINITY PREDICTED BY RF-SCORE:    0.00 PKD
ROOT
HETATM    1  O   UNL     1      -8.985  14.554  69.643  1.00  0.00     0.228 OA 
HETATM    2  C   UNL     1      -8.306  13.995  68.785  1.00  0.00    -0.048 C  
HETATM    3  C   UNL     1      -8.941  13.154  67.710  1.00  0.00    -0.194 C  
HETATM    4  C   UNL     1      -8.185  11.849  67.438  1.00  0.00    -0.164 C  
HETATM    5  C   UNL     1      -6.684  12.121  67.338  1.00  0.00    -0.143 C  
HETATM    6  C   UNL     1      -8.709  11.231  66.117  1.00  0.00    -0.179 C  
HETATM    7  C   UNL     1      -6.179  12.993  68.459  1.00  0.00    -0.078 C  
HETATM    8  C   UNL     1      -9.211   9.839  66.467  1.00  0.00    -0.194 C  
HETATM    9  N   UNL     1      -6.936  14.132  68.653  1.00  0.00    -0.100 N  
HETATM   10  C   UNL     1      -9.606   9.943  67.929  1.00  0.00    -0.157 C  
HETATM   11  O   UNL     1      -5.155  12.719  69.078  1.00  0.00    -0.067 OA 
HETATM   12  C   UNL     1      -8.492  10.793  68.524  1.00  0.00    -0.143 C  
ENDROOT
BRANCH   9  13
HETATM   13  C   UNL     1      -6.309  15.252  69.329  1.00  0.00    -0.126 C  
BRANCH  13  14
HETATM   14  C   UNL     1      -7.283  16.435  69.389  1.00  0.00    -0.172 C  
BRANCH  14  15
HETATM   15  C   UNL     1      -6.894  17.567  68.448  1.00  0.00    -0.197 C  
BRANCH  15  16
HETATM   16  C   UNL     1      -7.823  18.783  68.535  1.00  0.00    -0.336 C  
BRANCH  16  17
HETATM   17  N   UNL     1      -8.579  19.043  67.293  1.00  0.00    -0.275 NA 
HETATM   18  C   UNL     1      -8.256  18.071  66.219  1.00  0.00    -0.208 C  
HETATM   19  C   UNL     1      -8.605  16.607  66.569  1.00  0.00    -0.285 C  
HETATM   20  N   UNL     1     -10.007  16.499  66.983  1.00  0.00    -0.261 NA 
HETATM   21  C   UNL     1     -10.040  18.934  67.545  1.00  0.00    -0.364 C  
HETATM   22  C   UNL     1     -10.529  17.512  67.903  1.00  0.00    -0.384 C  
BRANCH  20  23
HETATM   23  C   UNL     1     -10.860  15.837  66.133  1.00  0.00    -0.240 A  
HETATM   24  N   UNL     1     -10.893  16.219  64.842  1.00  0.00    -0.671 NA 
HETATM   25  C   UNL     1     -11.678  15.528  63.999  1.00  0.00     0.063 A  
HETATM   26  C   UNL     1     -12.462  14.474  64.389  1.00  0.00    -0.335 A  
HETATM   27  C   UNL     1     -12.380  14.158  65.719  1.00  0.00    -0.461 A  
HETATM   28  N   UNL     1     -11.590  14.807  66.594  1.00  0.00    -0.345 NA 
ENDBRANCH  20  23
ENDBRANCH  16  17
ENDBRANCH  15  16
ENDBRANCH  14  15
ENDBRANCH  13  14
ENDBRANCH   9  13
TORSDOF 6
ENDMDL
MODEL      194
REMARK 921   NORMALIZED FREE ENERGY PREDICTED BY IDOCK:   -2.83 KCAL/MOL
REMARK 922        TOTAL FREE ENERGY PREDICTED BY IDOCK:   -4.80 KCAL/MOL
REMARK 923 INTER-LIGAND FREE ENERGY PREDICTED BY IDOCK:   -5.20 KCAL/MOL
REMARK 924 INTRA-LIGAND FREE ENERGY PREDICTED BY IDOCK:    0.40 KCAL/MOL
REMARK 927      BINDING AFFINITY PREDICTED BY RF-SCORE:    0.00 PKD
ROOT
HETATM    1  O   UNL     1     -10.352  10.343  70.212  1.00  0.00    -0.184 OA 
HETATM    2  C   UNL     1      -9.864  10.459  69.090  1.00  0.00    -0.223 C  
HETATM    3  C   UNL     1      -9.511  11.809  68.525  1.00  0.00    -0.165 C  
HETATM    4  C   UNL     1      -9.907  11.971  67.053  1.00  0.00    -0.205 C  
HETATM    5  C   UNL     1      -9.491  10.733  66.258  1.00  0.00    -0.213 C  
HETATM    6  C   UNL     1      -9.215  13.234  66.484  1.00  0.00    -0.182 C  
HETATM    7  C   UNL     1      -9.881   9.448  66.943  1.00  0.00    -0.201 C  
HETATM    8  C   UNL     1     -10.328  14.135  65.970  1.00  0.00    -0.316 C  
HETATM    9  N   UNL     1      -9.511   9.400  68.272  1.00  0.00    -0.137 N  
HETATM   10  C   UNL     1     -11.529  13.760  66.817  1.00  0.00    -0.367 C  
HETATM   11  O   UNL     1     -10.418   8.529  66.331  1.00  0.00    -0.195 OA 
HETATM   12  C   UNL     1     -11.421  12.245  66.913  1.00  0.00    -0.418 C  
ENDROOT
BRANCH   9  13
HETATM   13  C   UNL     1      -9.382   8.094  68.890  1.00  0.00    -0.147 C  
BRANCH  13  14
HETATM   14  C   UNL     1     -10.606   7.235  68.551  1.00  0.00    -0.207 C  
BRANCH  14  15
HETATM   15  C   UNL     1     -11.250   6.615  69.785  1.00  0.00    -0.413 C  
BRANCH  15  16
HETATM   16  C   UNL     1     -11.029   7.428  71.066  1.00  0.00    -0.251 C  
BRANCH  16  17
HETATM   17  N   UNL     1     -10.993   6.607  72.292  1.00  0.00    -0.236 NA 
HETATM   18  C   UNL     1     -10.503   5.229  72.038  1.00  0.00    -0.222 C  
HETATM   19  C   UNL     1      -9.055   5.165  71.503  1.00  0.00    -0.144 C  
HETATM   20  N   UNL     1      -8.148   5.899  72.390  1.00  0.00    -0.110 NA 
HETATM   21  C   UNL     1     -10.074   7.211  73.292  1.00  0.00    -0.276 C  
HETATM   22  C   UNL     1      -8.583   7.208  72.884  1.00  0.00    -0.118 C  
BRANCH  20  23
HETATM   23  C   UNL     1      -7.245   5.157  73.112  1.00  0.00    -0.090 A  
HETATM   24  N   UNL     1      -7.446   3.829  73.209  1.00  0.00    -0.067 NA 
HETATM   25  C   UNL     1      -6.528   3.097  73.859  1.00  0.00    -0.029 A  
HETATM   26  C   UNL     1      -5.412   3.633  74.448  1.00  0.00    -0.004 A  
HETATM   27  C   UNL     1      -5.289   4.990  74.316  1.00  0.00    -0.018 A  
HETATM   28  N   UNL     1      -6.171   5.759  73.653  1.00  0.00    -0.061 NA 
ENDBRANCH  20  23
ENDBRANCH  16  17
ENDBRANCH  15  16
ENDBRANCH  14  15
ENDBRANCH  13  14
ENDBRANCH   9  13
TORSDOF 6
ENDMDL
MODEL      195
REMARK 921   NORMALIZED FREE ENERGY PREDICTED BY IDOCK:   -2.81 KCAL/MOL
REMARK 922        TOTAL FREE ENERGY PREDICTED BY IDOCK:   -4.77 KCAL/MOL
REMARK 923 INTER-LIGAND FREE ENERGY PREDICTED BY IDOCK:   -4.67 KCAL/MOL
REMARK 924 INTRA-LIGAND FREE ENERGY PREDICTED BY IDOCK:   -0.10 KCAL/MOL
REMARK 927      BINDING AFFINITY PREDICTED BY RF-SCORE:    0.00 PKD
ROOT
HETATM    1  O   UNL     1      -9.652   3.971  68.629  1.00  0.00    -0.158 OA 
HETATM    2  C   UNL     1      -8.546   4.403  68.947  1.00  0.00    -0.084 C  
HETATM    3  C   UNL     1      -7.560   3.550  69.701  1.00  0.00    -0.051 C  
HETATM    4  C   UNL     1      -6.843   4.305  70.825  1.00  0.00    -0.036 C  
HETATM    5  C   UNL     1      -6.370   5.670  70.323  1.00  0.00    -0.027 C  
HETATM    6  C   UNL     1      -5.636   3.461  71.306  1.00  0.00    -0.012 C  
HETATM    7  C   UNL     1      -7.442   6.410  69.565  1.00  0.00    -0.093 C  
HETATM    8  C   UNL     1      -5.848   3.225  72.794  1.00  0.00    -0.008 C  
HETATM    9  N   UNL     1      -8.054   5.646  68.592  1.00  0.00    -0.100 N  
HETATM   10  C   UNL     1      -7.354   3.292  72.969  1.00  0.00    -0.047 C  
HETATM   11  O   UNL     1      -7.678   7.597  69.777  1.00  0.00    -0.094 OA 
HETATM   12  C   UNL     1      -7.753   4.448  72.065  1.00  0.00    -0.081 C  
ENDROOT
BRANCH   9  13
HETATM   13  C   UNL     1      -8.720   6.342  67.507  1.00  0.00    -0.105 C  
BRANCH  13  14
HETATM   14  C   UNL     1     -10.011   6.991  68.020  1.00  0.00    -0.178 C  
BRANCH  14  15
HETATM   15  C   UNL     1     -10.607   7.981  67.028  1.00  0.00    -0.364 C  
BRANCH  15  16
HETATM   16  C   UNL     1     -10.187   9.433  67.284  1.00  0.00    -0.246 C  
BRANCH  16  17
HETATM   17  N   UNL     1     -11.296  10.401  67.173  1.00  0.00    -0.230 NA 
HETATM   18  C   UNL     1     -11.682  10.976  68.487  1.00  0.00    -0.278 C  
HETATM   19  C   UNL     1     -10.555  11.777  69.177  1.00  0.00    -0.069 C  
HETATM   20  N   UNL     1     -10.032  12.807  68.275  1.00  0.00    -0.228 NA 
HETATM   21  C   UNL     1     -10.903  11.541  66.305  1.00  0.00    -0.282 C  
HETATM   22  C   UNL     1      -9.780  12.434  66.881  1.00  0.00    -0.215 C  
BRANCH  20  23
HETATM   23  C   UNL     1     -10.300  14.115  68.599  1.00  0.00    -0.243 A  
HETATM   24  N   UNL     1      -9.260  14.932  68.856  1.00  0.00    -0.195 NA 
HETATM   25  C   UNL     1      -9.519  16.225  69.107  1.00  0.00    -0.246 A  
HETATM   26  C   UNL     1     -10.785  16.750  69.139  1.00  0.00    -0.329 A  
HETATM   27  C   UNL     1     -11.786  15.851  68.881  1.00  0.00    -0.370 A  
HETATM   28  N   UNL     1     -11.571  14.553  68.601  1.00  0.00    -0.298 NA 
ENDBRANCH  20  23
ENDBRANCH  16  17
ENDBRANCH  15  16
ENDBRANCH  14  15
ENDBRANCH  13  14
ENDBRANCH   9  13
TORSDOF 6
ENDMDL
MODEL      196
REMARK 921   NORMALIZED FREE ENERGY PREDICTED BY IDOCK:   -2.43 KCAL/MOL
REMARK 922        TOTAL FREE ENERGY PREDICTED BY IDOCK:   -4.25 KCAL/MOL
REMARK 923 INTER-LIGAND FREE ENERGY PREDICTED BY IDOCK:   -4.54 KCAL/MOL
REMARK 924 INTRA-LIGAND FREE ENERGY PREDICTED BY IDOCK:    0.28 KCAL/MOL
REMARK 927      BINDING AFFINITY PREDICTED BY RF-SCORE:    0.00 PKD
ROOT
HETATM    1  O   UNL     1      -9.871   8.951  70.711  1.00  0.00    -0.189 OA 
HETATM    2  C   UNL     1      -9.309   7.930  71.101  1.00  0.00    -0.151 C  
HETATM    3  C   UNL     1      -8.792   7.810  72.510  1.00  0.00    -0.202 C  
HETATM    4  C   UNL     1      -7.408   7.157  72.592  1.00  0.00    -0.076 C  
HETATM    5  C   UNL     1      -7.360   5.913  71.705  1.00  0.00    -0.093 C  
HETATM    6  C   UNL     1      -7.118   6.779  74.066  1.00  0.00    -0.089 C  
HETATM    7  C   UNL     1      -7.928   6.159  70.332  1.00  0.00    -0.108 C  
HETATM    8  C   UNL     1      -5.832   7.498  74.446  1.00  0.00    -0.076 C  
HETATM    9  N   UNL     1      -9.164   6.777  70.351  1.00  0.00    -0.156 N  
HETATM   10  C   UNL     1      -5.806   8.714  73.540  1.00  0.00    -0.112 C  
HETATM   11  O   UNL     1      -7.351   5.779  69.317  1.00  0.00    -0.074 OA 
HETATM   12  C   UNL     1      -6.297   8.162  72.210  1.00  0.00    -0.062 C  
ENDROOT
BRANCH   9  13
HETATM   13  C   UNL     1     -10.010   6.629  69.182  1.00  0.00    -0.157 C  
BRANCH  13  14
HETATM   14  C   UNL     1      -9.567   7.613  68.092  1.00  0.00    -0.158 C  
BRANCH  14  15
HETATM   15  C   UNL     1     -10.737   8.341  67.444  1.00  0.00    -0.236 C  
BRANCH  15  16
HETATM   16  C   UNL     1     -10.433   8.856  66.032  1.00  0.00     0.572 C  
BRANCH  16  17
HETATM   17  N   UNL     1      -9.328   9.833  65.982  1.00  0.00    -0.180 NA 
HETATM   18  C   UNL     1      -9.443  10.760  64.828  1.00  0.00    -0.247 C  
HETATM   19  C   UNL     1     -10.715  11.637  64.851  1.00  0.00    -0.296 C  
HETATM   20  N   UNL     1     -10.822  12.353  66.125  1.00  0.00    -0.265 NA 
HETATM   21  C   UNL     1      -9.323  10.672  67.209  1.00  0.00    -0.150 C  
HETATM   22  C   UNL     1     -10.546  11.607  67.356  1.00  0.00    -0.220 C  
BRANCH  20  23
HETATM   23  C   UNL     1     -10.647  13.715  66.093  1.00  0.00    -0.291 A  
HETATM   24  N   UNL     1     -10.445  14.301  64.898  1.00  0.00    -0.429 NA 
HETATM   25  C   UNL     1     -10.340  15.640  64.860  1.00  0.00    -0.129 A  
HETATM   26  C   UNL     1     -10.403  16.434  65.975  1.00  0.00    -0.365 A  
HETATM   27  C   UNL     1     -10.596  15.759  67.151  1.00  0.00    -0.313 A  
HETATM   28  N   UNL     1     -10.731  14.424  67.232  1.00  0.00    -0.282 NA 
ENDBRANCH  20  23
ENDBRANCH  16  17
ENDBRANCH  15  16
ENDBRANCH  14  15
ENDBRANCH  13  14
ENDBRANCH   9  13
TORSDOF 6
ENDMDL
MODEL      197
REMARK 921   NORMALIZED FREE ENERGY PREDICTED BY IDOCK:   -2.42 KCAL/MOL
REMARK 922        TOTAL FREE ENERGY PREDICTED BY IDOCK:   -4.24 KCAL/MOL
REMARK 923 INTER-LIGAND FREE ENERGY PREDICTED BY IDOCK:   -3.66 KCAL/MOL
REMARK 924 INTRA-LIGAND FREE ENERGY PREDICTED BY IDOCK:   -0.58 KCAL/MOL
REMARK 927      BINDING AFFINITY PREDICTED BY RF-SCORE:    0.00 PKD
ROOT
HETATM    1  O   UNL     1      -5.178   7.210  66.448  1.00  0.00    -0.021 OA 
HETATM    2  C   UNL     1      -6.357   7.479  66.669  1.00  0.00    -0.045 C  
HETATM    3  C   UNL     1      -7.327   6.425  67.133  1.00  0.00    -0.083 C  
HETATM    4  C   UNL     1      -8.691   6.511  66.439  1.00  0.00    -0.142 C  
HETATM    5  C   UNL     1      -9.174   7.961  66.407  1.00  0.00    -0.241 C  
HETATM    6  C   UNL     1      -9.702   5.624  67.207  1.00  0.00    -0.147 C  
HETATM    7  C   UNL     1      -8.102   8.918  65.950  1.00  0.00    -0.109 C  
HETATM    8  C   UNL     1     -10.237   4.617  66.200  1.00  0.00    -0.308 C  
HETATM    9  N   UNL     1      -6.899   8.750  66.607  1.00  0.00    -0.071 N  
HETATM   10  C   UNL     1      -9.119   4.479  65.184  1.00  0.00    -0.150 C  
HETATM   11  O   UNL     1      -8.330   9.790  65.115  1.00  0.00    -0.128 OA 
HETATM   12  C   UNL     1      -8.628   5.909  65.017  1.00  0.00    -0.065 C  
ENDROOT
BRANCH   9  13
HETATM   13  C   UNL     1      -5.978   9.870  66.624  1.00  0.00    -0.055 C  
BRANCH  13  14
HETATM   14  C   UNL     1      -5.890  10.451  68.040  1.00  0.00    -0.040 C  
BRANCH  14  15
HETATM   15  C   UNL     1      -6.447   9.508  69.099  1.00  0.00    -0.045 C  
BRANCH  15  16
HETATM   16  C   UNL     1      -7.876   9.853  69.536  1.00  0.00    -0.140 C  
BRANCH  16  17
HETATM   17  N   UNL     1      -8.141   9.587  70.963  1.00  0.00    -0.293 NA 
HETATM   18  C   UNL     1      -9.478   8.981  71.189  1.00  0.00    -0.278 C  
HETATM   19  C   UNL     1      -9.666   7.605  70.511  1.00  0.00    -0.182 C  
HETATM   20  N   UNL     1      -8.591   6.689  70.903  1.00  0.00    -0.134 NA 
HETATM   21  C   UNL     1      -7.140   8.633  71.506  1.00  0.00    -0.089 C  
HETATM   22  C   UNL     1      -7.220   7.206  70.915  1.00  0.00    -0.070 C  
BRANCH  20  23
HETATM   23  C   UNL     1      -8.934   5.633  71.712  1.00  0.00    -0.136 A  
HETATM   24  N   UNL     1      -8.449   5.612  72.968  1.00  0.00    -0.118 NA 
HETATM   25  C   UNL     1      -8.837   4.615  73.779  1.00  0.00    -0.104 A  
HETATM   26  C   UNL     1      -9.681   3.608  73.388  1.00  0.00    -0.149 A  
HETATM   27  C   UNL     1     -10.118   3.696  72.093  1.00  0.00    -0.142 A  
HETATM   28  N   UNL     1      -9.774   4.689  71.254  1.00  0.00    -0.171 NA 
ENDBRANCH  20  23
ENDBRANCH  16  17
ENDBRANCH  15  16
ENDBRANCH  14  15
ENDBRANCH  13  14
ENDBRANCH   9  13
TORSDOF 6
ENDMDL
MODEL      198
REMARK 921   NORMALIZED FREE ENERGY PREDICTED BY IDOCK:   -2.34 KCAL/MOL
REMARK 922        TOTAL FREE ENERGY PREDICTED BY IDOCK:   -4.13 KCAL/MOL
REMARK 923 INTER-LIGAND FREE ENERGY PREDICTED BY IDOCK:   -5.05 KCAL/MOL
REMARK 924 INTRA-LIGAND FREE ENERGY PREDICTED BY IDOCK:    0.92 KCAL/MOL
REMARK 927      BINDING AFFINITY PREDICTED BY RF-SCORE:    0.00 PKD
ROOT
HETATM    1  O   UNL     1     -12.250  11.119  67.813  1.00  0.00    -0.432 OA 
HETATM    2  C   UNL     1     -11.378  11.958  68.029  1.00  0.00    -0.288 C  
HETATM    3  C   UNL     1     -11.607  13.418  67.738  1.00  0.00    -0.375 C  
HETATM    4  C   UNL     1     -10.403  14.098  67.077  1.00  0.00    -0.267 C  
HETATM    5  C   UNL     1      -9.115  13.707  67.801  1.00  0.00    -0.199 C  
HETATM    6  C   UNL     1     -10.605  15.633  67.127  1.00  0.00    -0.308 C  
HETATM    7  C   UNL     1      -9.020  12.224  68.053  1.00  0.00    -0.190 C  
HETATM    8  C   UNL     1     -10.555  16.116  65.685  1.00  0.00    -0.377 C  
HETATM    9  N   UNL     1     -10.159  11.690  68.624  1.00  0.00    -0.213 N  
HETATM   10  C   UNL     1     -11.014  14.918  64.876  1.00  0.00    -0.422 C  
HETATM   11  O   UNL     1      -7.992  11.595  67.819  1.00  0.00    -0.119 OA 
HETATM   12  C   UNL     1     -10.328  13.752  65.573  1.00  0.00    -0.333 C  
ENDROOT
BRANCH   9  13
HETATM   13  C   UNL     1     -10.028  10.438  69.344  1.00  0.00    -0.218 C  
BRANCH  13  14
HETATM   14  C   UNL     1      -8.553  10.022  69.401  1.00  0.00    -0.182 C  
BRANCH  14  15
HETATM   15  C   UNL     1      -8.152   9.462  70.760  1.00  0.00    -0.157 C  
BRANCH  15  16
HETATM   16  C   UNL     1      -6.992   8.462  70.692  1.00  0.00    -0.040 C  
BRANCH  16  17
HETATM   17  N   UNL     1      -7.378   7.139  70.163  1.00  0.00    -0.078 NA 
HETATM   18  C   UNL     1      -6.419   6.073  70.547  1.00  0.00    -0.037 C  
HETATM   19  C   UNL     1      -6.306   5.847  72.071  1.00  0.00    -0.049 C  
HETATM   20  N   UNL     1      -7.630   5.610  72.654  1.00  0.00    -0.097 NA 
HETATM   21  C   UNL     1      -8.705   6.736  70.698  1.00  0.00    -0.143 C  
HETATM   22  C   UNL     1      -8.733   6.471  72.222  1.00  0.00    -0.130 C  
BRANCH  20  23
HETATM   23  C   UNL     1      -7.889   4.344  73.122  1.00  0.00    -0.091 A  
HETATM   24  N   UNL     1      -7.124   3.332  72.672  1.00  0.00    -0.042 NA 
HETATM   25  C   UNL     1      -7.335   2.107  73.179  1.00  0.00    -0.036 A  
HETATM   26  C   UNL     1      -8.301   1.831  74.111  1.00  0.00    -0.053 A  
HETATM   27  C   UNL     1      -9.043   2.912  74.506  1.00  0.00    -0.078 A  
HETATM   28  N   UNL     1      -8.851   4.159  74.042  1.00  0.00    -0.096 NA 
ENDBRANCH  20  23
ENDBRANCH  16  17
ENDBRANCH  15  16
ENDBRANCH  14  15
ENDBRANCH  13  14
ENDBRANCH   9  13
TORSDOF 6
ENDMDL
MODEL      199
REMARK 921   NORMALIZED FREE ENERGY PREDICTED BY IDOCK:   -2.31 KCAL/MOL
REMARK 922        TOTAL FREE ENERGY PREDICTED BY IDOCK:   -4.10 KCAL/MOL
REMARK 923 INTER-LIGAND FREE ENERGY PREDICTED BY IDOCK:   -4.72 KCAL/MOL
REMARK 924 INTRA-LIGAND FREE ENERGY PREDICTED BY IDOCK:    0.62 KCAL/MOL
REMARK 927      BINDING AFFINITY PREDICTED BY RF-SCORE:    0.00 PKD
ROOT
HETATM    1  O   UNL     1     -12.356  11.505  67.754  1.00  0.00    -0.329 OA 
HETATM    2  C   UNL     1     -11.230  11.998  67.780  1.00  0.00    -0.271 C  
HETATM    3  C   UNL     1     -11.030  13.491  67.804  1.00  0.00    -0.284 C  
HETATM    4  C   UNL     1      -9.904  13.964  66.879  1.00  0.00    -0.268 C  
HETATM    5  C   UNL     1      -8.672  13.075  67.051  1.00  0.00    -0.195 C  
HETATM    6  C   UNL     1      -9.558  15.435  67.221  1.00  0.00    -0.213 C  
HETATM    7  C   UNL     1      -9.012  11.607  67.033  1.00  0.00    -0.182 C  
HETATM    8  C   UNL     1      -9.755  16.228  65.938  1.00  0.00    -0.354 C  
HETATM    9  N   UNL     1     -10.056  11.274  67.874  1.00  0.00    -0.174 N  
HETATM   10  C   UNL     1     -10.794  15.436  65.168  1.00  0.00    -0.447 C  
HETATM   11  O   UNL     1      -8.362  10.803  66.370  1.00  0.00    -0.142 OA 
HETATM   12  C   UNL     1     -10.372  13.994  65.406  1.00  0.00    -0.377 C  
ENDROOT
BRANCH   9  13
HETATM   13  C   UNL     1     -10.155   9.895  68.312  1.00  0.00    -0.161 C  
BRANCH  13  14
HETATM   14  C   UNL     1      -8.770   9.237  68.280  1.00  0.00    -0.129 C  
BRANCH  14  15
HETATM   15  C   UNL     1      -8.696   7.978  69.134  1.00  0.00    -0.137 C  
BRANCH  15  16
HETATM   16  C   UNL     1      -7.354   7.244  69.028  1.00  0.00    -0.091 C  
BRANCH  16  17
HETATM   17  N   UNL     1      -7.487   5.802  68.741  1.00  0.00    -0.083 NA 
HETATM   18  C   UNL     1      -8.715   5.488  67.969  1.00  0.00    -0.106 C  
HETATM   19  C   UNL     1      -8.768   6.152  66.575  1.00  0.00    -0.133 C  
HETATM   20  N   UNL     1      -7.559   5.834  65.809  1.00  0.00    -0.088 NA 
HETATM   21  C   UNL     1      -6.336   5.328  67.929  1.00  0.00    -0.040 C  
HETATM   22  C   UNL     1      -6.270   5.914  66.500  1.00  0.00    -0.033 C  
BRANCH  20  23
HETATM   23  C   UNL     1      -7.707   5.004  64.724  1.00  0.00    -0.084 A  
HETATM   24  N   UNL     1      -8.915   4.449  64.509  1.00  0.00    -0.147 NA 
HETATM   25  C   UNL     1      -9.076   3.691  63.412  1.00  0.00    -0.100 A  
HETATM   26  C   UNL     1      -8.072   3.436  62.516  1.00  0.00    -0.072 A  
HETATM   27  C   UNL     1      -6.872   4.027  62.814  1.00  0.00    -0.035 A  
HETATM   28  N   UNL     1      -6.673   4.812  63.887  1.00  0.00    -0.042 NA 
ENDBRANCH  20  23
ENDBRANCH  16  17
ENDBRANCH  15  16
ENDBRANCH  14  15
ENDBRANCH  13  14
ENDBRANCH   9  13
TORSDOF 6
ENDMDL
MODEL      200
REMARK 921   NORMALIZED FREE ENERGY PREDICTED BY IDOCK:   -2.15 KCAL/MOL
REMARK 922        TOTAL FREE ENERGY PREDICTED BY IDOCK:   -3.88 KCAL/MOL
REMARK 923 INTER-LIGAND FREE ENERGY PREDICTED BY IDOCK:   -3.82 KCAL/MOL
REMARK 924 INTRA-LIGAND FREE ENERGY PREDICTED BY IDOCK:   -0.06 KCAL/MOL
REMARK 927      BINDING AFFINITY PREDICTED BY RF-SCORE:    0.00 PKD
ROOT
HETATM    1  O   UNL     1     -10.637  10.812  69.065  1.00  0.00    -0.195 OA 
HETATM    2  C   UNL     1      -9.838  11.610  68.579  1.00  0.00    -0.193 C  
HETATM    3  C   UNL     1     -10.003  13.095  68.765  1.00  0.00    -0.038 C  
HETATM    4  C   UNL     1      -9.734  13.897  67.487  1.00  0.00    -0.232 C  
HETATM    5  C   UNL     1      -8.455  13.400  66.813  1.00  0.00     0.021 C  
HETATM    6  C   UNL     1      -9.600  15.396  67.855  1.00  0.00    -0.206 C  
HETATM    7  C   UNL     1      -8.403  11.897  66.711  1.00  0.00    -0.153 C  
HETATM    8  C   UNL     1     -10.656  16.130  67.043  1.00  0.00    -0.292 C  
HETATM    9  N   UNL     1      -8.686  11.255  67.900  1.00  0.00    -0.134 N  
HETATM   10  C   UNL     1     -11.737  15.090  66.813  1.00  0.00    -0.161 C  
HETATM   11  O   UNL     1      -8.074  11.333  65.671  1.00  0.00     0.002 OA 
HETATM   12  C   UNL     1     -10.940  13.827  66.523  1.00  0.00    -0.299 C  
ENDROOT
BRANCH   9  13
HETATM   13  C   UNL     1      -8.207   9.896  68.064  1.00  0.00    -0.113 C  
BRANCH  13  14
HETATM   14  C   UNL     1      -8.509   9.082  66.801  1.00  0.00    -0.121 C  
BRANCH  14  15
HETATM   15  C   UNL     1      -9.667   8.110  66.989  1.00  0.00    -0.275 C  
BRANCH  15  16
HETATM   16  C   UNL     1      -9.799   7.585  68.423  1.00  0.00    -0.164 C  
BRANCH  16  17
HETATM   17  N   UNL     1      -9.140   6.282  68.642  1.00  0.00    -0.127 NA 
HETATM   18  C   UNL     1      -7.741   6.427  69.119  1.00  0.00    -0.101 C  
HETATM   19  C   UNL     1      -7.614   7.144  70.482  1.00  0.00    -0.089 C  
HETATM   20  N   UNL     1      -8.456   6.488  71.487  1.00  0.00    -0.124 NA 
HETATM   21  C   UNL     1      -9.867   5.501  69.675  1.00  0.00    -0.193 C  
HETATM   22  C   UNL     1      -9.816   6.107  71.097  1.00  0.00    -0.181 C  
BRANCH  20  23
HETATM   23  C   UNL     1      -7.815   5.810  72.495  1.00  0.00    -0.102 A  
HETATM   24  N   UNL     1      -8.552   5.022  73.300  1.00  0.00    -0.113 NA 
HETATM   25  C   UNL     1      -7.915   4.309  74.242  1.00  0.00    -0.091 A  
HETATM   26  C   UNL     1      -6.560   4.359  74.441  1.00  0.00    -0.059 A  
HETATM   27  C   UNL     1      -5.885   5.194  73.589  1.00  0.00    -0.027 A  
HETATM   28  N   UNL     1      -6.479   5.908  72.617  1.00  0.00    -0.061 NA 
ENDBRANCH  20  23
ENDBRANCH  16  17
ENDBRANCH  15  16
ENDBRANCH  14  15
ENDBRANCH  13  14
ENDBRANCH   9  13
TORSDOF 6
ENDMDL
MODEL      201
REMARK 921   NORMALIZED FREE ENERGY PREDICTED BY IDOCK:   -2.11 KCAL/MOL
REMARK 922        TOTAL FREE ENERGY PREDICTED BY IDOCK:   -3.83 KCAL/MOL
REMARK 923 INTER-LIGAND FREE ENERGY PREDICTED BY IDOCK:   -4.77 KCAL/MOL
REMARK 924 INTRA-LIGAND FREE ENERGY PREDICTED BY IDOCK:    0.95 KCAL/MOL
REMARK 927      BINDING AFFINITY PREDICTED BY RF-SCORE:    0.00 PKD
ROOT
HETATM    1  O   UNL     1     -11.032  10.645  68.826  1.00  0.00    -0.213 OA 
HETATM    2  C   UNL     1     -10.519  10.984  67.761  1.00  0.00    -0.199 C  
HETATM    3  C   UNL     1     -10.458  10.042  66.587  1.00  0.00    -0.244 C  
HETATM    4  C   UNL     1      -9.111  10.073  65.858  1.00  0.00    -0.195 C  
HETATM    5  C   UNL     1      -8.664  11.518  65.639  1.00  0.00     0.050 C  
HETATM    6  C   UNL     1      -9.259   9.343  64.500  1.00  0.00    -0.155 C  
HETATM    7  C   UNL     1      -8.798  12.360  66.882  1.00  0.00    -0.205 C  
HETATM    8  C   UNL     1      -8.234   8.218  64.506  1.00  0.00    -0.138 C  
HETATM    9  N   UNL     1     -10.033  12.250  67.490  1.00  0.00    -0.197 N  
HETATM   10  C   UNL     1      -8.049   7.894  65.977  1.00  0.00    -0.112 C  
HETATM   11  O   UNL     1      -7.897  13.108  67.254  1.00  0.00    -0.168 OA 
HETATM   12  C   UNL     1      -8.043   9.267  66.632  1.00  0.00    -0.108 C  
ENDROOT
BRANCH   9  13
HETATM   13  C   UNL     1     -10.453  13.328  68.364  1.00  0.00    -0.253 C  
BRANCH  13  14
HETATM   14  C   UNL     1      -9.260  13.821  69.192  1.00  0.00     0.394 C  
BRANCH  14  15
HETATM   15  C   UNL     1      -9.429  15.257  69.672  1.00  0.00    -0.171 C  
BRANCH  15  16
HETATM   16  C   UNL     1     -10.697  15.935  69.139  1.00  0.00    -0.259 C  
BRANCH  16  17
HETATM   17  N   UNL     1     -10.542  17.385  68.907  1.00  0.00    -0.302 NA 
HETATM   18  C   UNL     1      -9.154  17.853  69.151  1.00  0.00     0.101 C  
HETATM   19  C   UNL     1      -8.101  17.211  68.220  1.00  0.00    -0.239 C  
HETATM   20  N   UNL     1      -8.485  17.384  66.816  1.00  0.00    -0.241 NA 
HETATM   21  C   UNL     1     -10.866  17.720  67.496  1.00  0.00    -0.211 C  
HETATM   22  C   UNL     1      -9.883  17.141  66.452  1.00  0.00    -0.300 C  
BRANCH  20  23
HETATM   23  C   UNL     1      -7.715  18.233  66.059  1.00  0.00    -0.165 A  
HETATM   24  N   UNL     1      -8.046  19.539  66.035  1.00  0.00    -0.399 NA 
HETATM   25  C   UNL     1      -7.255  20.379  65.348  1.00  0.00    -0.118 A  
HETATM   26  C   UNL     1      -6.146  19.973  64.652  1.00  0.00    -0.315 A  
HETATM   27  C   UNL     1      -5.887  18.630  64.716  1.00  0.00    -0.206 A  
HETATM   28  N   UNL     1      -6.638  17.757  65.411  1.00  0.00    -0.208 NA 
ENDBRANCH  20  23
ENDBRANCH  16  17
ENDBRANCH  15  16
ENDBRANCH  14  15
ENDBRANCH  13  14
ENDBRANCH   9  13
TORSDOF 6
ENDMDL
MODEL      202
REMARK 921   NORMALIZED FREE ENERGY PREDICTED BY IDOCK:   -2.03 KCAL/MOL
REMARK 922        TOTAL FREE ENERGY PREDICTED BY IDOCK:   -3.72 KCAL/MOL
REMARK 923 INTER-LIGAND FREE ENERGY PREDICTED BY IDOCK:   -3.46 KCAL/MOL
REMARK 924 INTRA-LIGAND FREE ENERGY PREDICTED BY IDOCK:   -0.26 KCAL/MOL
REMARK 927      BINDING AFFINITY PREDICTED BY RF-SCORE:    0.00 PKD
ROOT
HETATM    1  O   UNL     1      -9.859   4.220  69.059  1.00  0.00    -0.165 OA 
HETATM    2  C   UNL     1      -8.915   4.578  69.759  1.00  0.00    -0.099 C  
HETATM    3  C   UNL     1      -8.489   3.782  70.965  1.00  0.00    -0.099 C  
HETATM    4  C   UNL     1      -8.157   4.657  72.179  1.00  0.00    -0.102 C  
HETATM    5  C   UNL     1      -7.280   5.836  71.755  1.00  0.00    -0.091 C  
HETATM    6  C   UNL     1      -7.423   3.792  73.234  1.00  0.00    -0.069 C  
HETATM    7  C   UNL     1      -7.802   6.530  70.523  1.00  0.00    -0.106 C  
HETATM    8  C   UNL     1      -8.253   3.876  74.506  1.00  0.00    -0.089 C  
HETATM    9  N   UNL     1      -8.102   5.664  69.489  1.00  0.00    -0.101 N  
HETATM   10  C   UNL     1      -9.662   4.145  74.012  1.00  0.00    -0.146 C  
HETATM   11  O   UNL     1      -7.880   7.754  70.458  1.00  0.00    -0.093 OA 
HETATM   12  C   UNL     1      -9.445   5.141  72.883  1.00  0.00    -0.158 C  
ENDROOT
BRANCH   9  13
HETATM   13  C   UNL     1      -8.137   6.206  68.145  1.00  0.00    -0.111 C  
BRANCH  13  14
HETATM   14  C   UNL     1      -9.437   6.990  67.932  1.00  0.00    -0.128 C  
BRANCH  14  15
HETATM   15  C   UNL     1      -9.330   8.017  66.812  1.00  0.00    -0.229 C  
BRANCH  15  16
HETATM   16  C   UNL     1      -9.251   9.464  67.313  1.00  0.00    -0.130 C  
BRANCH  16  17
HETATM   17  N   UNL     1      -7.926  10.087  67.122  1.00  0.00    -0.109 NA 
HETATM   18  C   UNL     1      -7.963  11.210  66.151  1.00  0.00    -0.090 C  
HETATM   19  C   UNL     1      -8.870  12.384  66.581  1.00  0.00    -0.156 C  
HETATM   20  N   UNL     1      -8.505  12.849  67.922  1.00  0.00    -0.168 NA 
HETATM   21  C   UNL     1      -7.428  10.646  68.406  1.00  0.00    -0.093 C  
HETATM   22  C   UNL     1      -8.247  11.839  68.951  1.00  0.00     0.057 C  
BRANCH  20  23
HETATM   23  C   UNL     1      -7.922  14.090  68.016  1.00  0.00    -0.152 A  
HETATM   24  N   UNL     1      -8.675  15.113  68.463  1.00  0.00    -0.164 NA 
HETATM   25  C   UNL     1      -8.087  16.310  68.617  1.00  0.00    -0.213 A  
HETATM   26  C   UNL     1      -6.771  16.549  68.321  1.00  0.00    -0.138 A  
HETATM   27  C   UNL     1      -6.079  15.461  67.860  1.00  0.00    -0.150 A  
HETATM   28  N   UNL     1      -6.621  14.239  67.713  1.00  0.00    -0.168 NA 
ENDBRANCH  20  23
ENDBRANCH  16  17
ENDBRANCH  15  16
ENDBRANCH  14  15
ENDBRANCH  13  14
ENDBRANCH   9  13
TORSDOF 6
ENDMDL
MODEL      203
REMARK 921   NORMALIZED FREE ENERGY PREDICTED BY IDOCK:   -1.64 KCAL/MOL
REMARK 922        TOTAL FREE ENERGY PREDICTED BY IDOCK:   -3.19 KCAL/MOL
REMARK 923 INTER-LIGAND FREE ENERGY PREDICTED BY IDOCK:   -3.16 KCAL/MOL
REMARK 924 INTRA-LIGAND FREE ENERGY PREDICTED BY IDOCK:   -0.03 KCAL/MOL
REMARK 927      BINDING AFFINITY PREDICTED BY RF-SCORE:    0.00 PKD
ROOT
HETATM    1  O   UNL     1      -5.242   7.428  66.767  1.00  0.00    -0.021 OA 
HETATM    2  C   UNL     1      -6.449   7.653  66.803  1.00  0.00    -0.053 C  
HETATM    3  C   UNL     1      -7.455   6.532  66.832  1.00  0.00    -0.084 C  
HETATM    4  C   UNL     1      -8.659   6.777  65.916  1.00  0.00    -0.153 C  
HETATM    5  C   UNL     1      -9.175   8.204  66.096  1.00  0.00    -0.230 C  
HETATM    6  C   UNL     1      -9.769   5.754  66.264  1.00  0.00    -0.148 C  
HETATM    7  C   UNL     1      -8.068   9.227  66.072  1.00  0.00    -0.110 C  
HETATM    8  C   UNL     1     -10.063   4.991  64.982  1.00  0.00     0.290 C  
HETATM    9  N   UNL     1      -7.012   8.913  66.905  1.00  0.00    -0.077 N  
HETATM   10  C   UNL     1      -8.764   5.063  64.201  1.00  0.00    -0.097 C  
HETATM   11  O   UNL     1      -8.159  10.259  65.413  1.00  0.00    -0.138 OA 
HETATM   12  C   UNL     1      -8.300   6.492  64.440  1.00  0.00     0.074 C  
ENDROOT
BRANCH   9  13
HETATM   13  C   UNL     1      -6.150   9.995  67.339  1.00  0.00    -0.058 C  
BRANCH  13  14
HETATM   14  C   UNL     1      -5.763   9.795  68.809  1.00  0.00    -0.035 C  
BRANCH  14  15
HETATM   15  C   UNL     1      -6.477   8.611  69.450  1.00  0.00    -0.045 C  
BRANCH  15  16
HETATM   16  C   UNL     1      -7.028   8.913  70.849  1.00  0.00    -0.080 C  
BRANCH  16  17
HETATM   17  N   UNL     1      -7.787   7.794  71.442  1.00  0.00    -0.087 NA 
HETATM   18  C   UNL     1      -8.744   8.247  72.483  1.00  0.00    -0.217 C  
HETATM   19  C   UNL     1      -9.838   9.203  71.957  1.00  0.00     0.075 C  
HETATM   20  N   UNL     1     -10.534   8.606  70.813  1.00  0.00    -0.197 NA 
HETATM   21  C   UNL     1      -8.584   7.099  70.398  1.00  0.00    -0.142 C  
HETATM   22  C   UNL     1      -9.725   7.945  69.787  1.00  0.00    -0.176 C  
BRANCH  20  23
HETATM   23  C   UNL     1     -11.842   8.229  71.005  1.00  0.00    -0.255 A  
HETATM   24  N   UNL     1     -12.134   6.915  70.980  1.00  0.00    -0.371 NA 
HETATM   25  C   UNL     1     -13.400   6.544  71.233  1.00  0.00     0.410 A  
HETATM   26  C   UNL     1     -14.410   7.433  71.490  1.00  0.00    -0.594 A  
HETATM   27  C   UNL     1     -14.033   8.750  71.484  1.00  0.00    -0.334 A  
HETATM   28  N   UNL     1     -12.773   9.165  71.259  1.00  0.00    -0.305 NA 
ENDBRANCH  20  23
ENDBRANCH  16  17
ENDBRANCH  15  16
ENDBRANCH  14  15
ENDBRANCH  13  14
ENDBRANCH   9  13
TORSDOF 6
ENDMDL
MODEL      204
REMARK 921   NORMALIZED FREE ENERGY PREDICTED BY IDOCK:   -0.94 KCAL/MOL
REMARK 922        TOTAL FREE ENERGY PREDICTED BY IDOCK:   -2.25 KCAL/MOL
REMARK 923 INTER-LIGAND FREE ENERGY PREDICTED BY IDOCK:   -3.64 KCAL/MOL
REMARK 924 INTRA-LIGAND FREE ENERGY PREDICTED BY IDOCK:    1.39 KCAL/MOL
REMARK 927      BINDING AFFINITY PREDICTED BY RF-SCORE:    0.00 PKD
ROOT
HETATM    1  O   UNL     1      -8.688  13.214  66.751  1.00  0.00    -0.182 OA 
HETATM    2  C   UNL     1      -9.519  12.515  66.175  1.00  0.00    -0.184 C  
HETATM    3  C   UNL     1      -9.144  11.184  65.579  1.00  0.00    -0.211 C  
HETATM    4  C   UNL     1      -9.764  10.945  64.198  1.00  0.00    -0.347 C  
HETATM    5  C   UNL     1     -11.243  11.332  64.210  1.00  0.00    -0.214 C  
HETATM    6  C   UNL     1      -9.601   9.450  63.827  1.00  0.00     0.683 C  
HETATM    7  C   UNL     1     -11.484  12.673  64.855  1.00  0.00    -0.322 C  
HETATM    8  C   UNL     1      -8.830   9.418  62.516  1.00  0.00    -0.243 C  
HETATM    9  N   UNL     1     -10.867  12.812  66.083  1.00  0.00    -0.275 N  
HETATM   10  C   UNL     1      -8.017  10.698  62.532  1.00  0.00    -0.191 C  
HETATM   11  O   UNL     1     -12.217  13.513  64.340  1.00  0.00    -0.431 OA 
HETATM   12  C   UNL     1      -8.992  11.716  63.103  1.00  0.00     0.101 C  
ENDROOT
BRANCH   9  13
HETATM   13  C   UNL     1     -11.396  13.807  66.995  1.00  0.00    -0.326 C  
BRANCH  13  14
HETATM   14  C   UNL     1     -11.999  13.117  68.225  1.00  0.00    -0.328 C  
BRANCH  14  15
HETATM   15  C   UNL     1     -11.836  11.603  68.190  1.00  0.00    -0.315 C  
BRANCH  15  16
HETATM   16  C   UNL     1     -12.279  10.909  69.484  1.00  0.00    -0.261 C  
BRANCH  16  17
HETATM   17  N   UNL     1     -11.161  10.546  70.376  1.00  0.00    -0.289 NA 
HETATM   18  C   UNL     1     -10.909   9.083  70.403  1.00  0.00    -0.246 C  
HETATM   19  C   UNL     1     -10.504   8.489  69.035  1.00  0.00    -0.200 C  
HETATM   20  N   UNL     1      -9.360   9.218  68.478  1.00  0.00    -0.141 NA 
HETATM   21  C   UNL     1      -9.903  11.189  69.916  1.00  0.00     0.868 C  
HETATM   22  C   UNL     1      -9.378  10.681  68.553  1.00  0.00    -0.170 C  
BRANCH  20  23
HETATM   23  C   UNL     1      -8.162   8.548  68.416  1.00  0.00    -0.123 A  
HETATM   24  N   UNL     1      -7.766   8.066  67.222  1.00  0.00    -0.100 NA 
HETATM   25  C   UNL     1      -6.566   7.469  67.149  1.00  0.00    -0.062 A  
HETATM   26  C   UNL     1      -5.736   7.305  68.227  1.00  0.00    -0.023 A  
HETATM   27  C   UNL     1      -6.219   7.811  69.405  1.00  0.00    -0.034 A  
HETATM   28  N   UNL     1      -7.403   8.437  69.520  1.00  0.00    -0.071 NA 
ENDBRANCH  20  23
ENDBRANCH  16  17
ENDBRANCH  15  16
ENDBRANCH  14  15
ENDBRANCH  13  14
ENDBRANCH   9  13
TORSDOF 6
ENDMDL
MODEL      205
REMARK 921   NORMALIZED FREE ENERGY PREDICTED BY IDOCK:   -0.55 KCAL/MOL
REMARK 922        TOTAL FREE ENERGY PREDICTED BY IDOCK:   -1.72 KCAL/MOL
REMARK 923 INTER-LIGAND FREE ENERGY PREDICTED BY IDOCK:   -4.33 KCAL/MOL
REMARK 924 INTRA-LIGAND FREE ENERGY PREDICTED BY IDOCK:    2.60 KCAL/MOL
REMARK 927      BINDING AFFINITY PREDICTED BY RF-SCORE:    0.00 PKD
ROOT
HETATM    1  O   UNL     1      -9.578   5.523  69.877  1.00  0.00    -0.149 OA 
HETATM    2  C   UNL     1      -9.298   6.354  70.738  1.00  0.00    -0.158 C  
HETATM    3  C   UNL     1      -7.944   6.373  71.397  1.00  0.00    -0.105 C  
HETATM    4  C   UNL     1      -8.012   6.606  72.911  1.00  0.00    -0.103 C  
HETATM    5  C   UNL     1      -8.975   7.750  73.224  1.00  0.00    -0.289 C  
HETATM    6  C   UNL     1      -6.592   6.939  73.431  1.00  0.00    -0.067 C  
HETATM    7  C   UNL     1     -10.282   7.626  72.483  1.00  0.00    -0.243 C  
HETATM    8  C   UNL     1      -6.271   5.897  74.493  1.00  0.00    -0.069 C  
HETATM    9  N   UNL     1     -10.127   7.389  71.132  1.00  0.00    -0.186 N  
HETATM   10  C   UNL     1      -7.099   4.692  74.091  1.00  0.00    -0.076 C  
HETATM   11  O   UNL     1     -11.361   7.788  73.047  1.00  0.00    -0.399 OA 
HETATM   12  C   UNL     1      -8.418   5.312  73.653  1.00  0.00    -0.112 C  
ENDROOT
BRANCH   9  13
HETATM   13  C   UNL     1     -11.232   7.728  70.256  1.00  0.00    -0.206 C  
BRANCH  13  14
HETATM   14  C   UNL     1     -10.743   8.651  69.133  1.00  0.00    -0.136 C  
BRANCH  14  15
HETATM   15  C   UNL     1     -10.015   9.882  69.658  1.00  0.00    -0.255 C  
BRANCH  15  16
HETATM   16  C   UNL     1     -10.838  11.172  69.551  1.00  0.00    -0.188 C  
BRANCH  16  17
HETATM   17  N   UNL     1     -10.705  11.856  68.250  1.00  0.00    -0.213 NA 
HETATM   18  C   UNL     1      -9.438  12.622  68.139  1.00  0.00    -0.218 C  
HETATM   19  C   UNL     1      -8.166  11.751  68.235  1.00  0.00    -0.157 C  
HETATM   20  N   UNL     1      -8.217  10.659  67.259  1.00  0.00    -0.116 NA 
HETATM   21  C   UNL     1     -10.705  10.864  67.143  1.00  0.00    -0.270 C  
HETATM   22  C   UNL     1      -9.477   9.925  67.116  1.00  0.00    -0.158 C  
BRANCH  20  23
HETATM   23  C   UNL     1      -7.334  10.719  66.207  1.00  0.00    -0.138 A  
HETATM   24  N   UNL     1      -6.059  11.064  66.468  1.00  0.00    -0.120 NA 
HETATM   25  C   UNL     1      -5.182  11.058  65.451  1.00  0.00    -0.060 A  
HETATM   26  C   UNL     1      -5.523  10.743  64.161  1.00  0.00    -0.027 A  
HETATM   27  C   UNL     1      -6.841  10.417  63.979  1.00  0.00     0.018 A  
HETATM   28  N   UNL     1      -7.747  10.386  64.972  1.00  0.00    -0.129 NA 
ENDBRANCH  20  23
ENDBRANCH  16  17
ENDBRANCH  15  16
ENDBRANCH  14  15
ENDBRANCH  13  14
ENDBRANCH   9  13
TORSDOF 6
ENDMDL
MODEL      206
REMARK 921   NORMALIZED FREE ENERGY PREDICTED BY IDOCK:   -0.41 KCAL/MOL
REMARK 922        TOTAL FREE ENERGY PREDICTED BY IDOCK:   -1.53 KCAL/MOL
REMARK 923 INTER-LIGAND FREE ENERGY PREDICTED BY IDOCK:   -1.50 KCAL/MOL
REMARK 924 INTRA-LIGAND FREE ENERGY PREDICTED BY IDOCK:   -0.03 KCAL/MOL
REMARK 927      BINDING AFFINITY PREDICTED BY RF-SCORE:    0.00 PKD
ROOT
HETATM    1  O   UNL     1      -8.981  15.308  65.960  1.00  0.00    -0.292 OA 
HETATM    2  C   UNL     1      -9.022  14.287  66.642  1.00  0.00    -0.186 C  
HETATM    3  C   UNL     1      -7.931  13.960  67.627  1.00  0.00    -0.181 C  
HETATM    4  C   UNL     1      -7.522  12.483  67.606  1.00  0.00    -0.139 C  
HETATM    5  C   UNL     1      -8.765  11.593  67.595  1.00  0.00    -0.156 C  
HETATM    6  C   UNL     1      -6.657  12.184  68.856  1.00  0.00    -0.090 C  
HETATM    7  C   UNL     1      -9.789  12.042  66.584  1.00  0.00    -0.204 C  
HETATM    8  C   UNL     1      -5.330  11.651  68.339  1.00  0.00    -0.045 C  
HETATM    9  N   UNL     1     -10.076  13.391  66.655  1.00  0.00    -0.269 N  
HETATM   10  C   UNL     1      -5.192  12.272  66.962  1.00  0.00     0.004 C  
HETATM   11  O   UNL     1     -10.340  11.247  65.828  1.00  0.00    -0.243 OA 
HETATM   12  C   UNL     1      -6.603  12.179  66.401  1.00  0.00     0.743 C  
ENDROOT
BRANCH   9  13
HETATM   13  C   UNL     1     -11.341  13.841  66.108  1.00  0.00    -0.314 C  
BRANCH  13  14
HETATM   14  C   UNL     1     -12.010  14.820  67.080  1.00  0.00    -0.224 C  
BRANCH  14  15
HETATM   15  C   UNL     1     -11.509  14.665  68.511  1.00  0.00    -0.327 C  
BRANCH  15  16
HETATM   16  C   UNL     1     -12.112  13.460  69.243  1.00  0.00    -0.264 C  
BRANCH  16  17
HETATM   17  N   UNL     1     -11.313  13.006  70.398  1.00  0.00     0.328 NA 
HETATM   18  C   UNL     1     -12.159  12.542  71.526  1.00  0.00     0.731 C  
HETATM   19  C   UNL     1     -13.049  11.326  71.186  1.00  0.00    -0.151 C  
HETATM   20  N   UNL     1     -12.238  10.233  70.643  1.00  0.00    -0.310 NA 
HETATM   21  C   UNL     1     -10.449  11.860  70.010  1.00  0.00     1.274 C  
HETATM   22  C   UNL     1     -11.216  10.567  69.647  1.00  0.00    -0.282 C  
BRANCH  20  23
HETATM   23  C   UNL     1     -12.094   9.112  71.425  1.00  0.00    -0.337 A  
HETATM   24  N   UNL     1     -12.857   8.039  71.143  1.00  0.00    -0.173 NA 
HETATM   25  C   UNL     1     -12.670   6.923  71.866  1.00  0.00    -0.274 A  
HETATM   26  C   UNL     1     -11.761   6.828  72.887  1.00  0.00     0.079 A  
HETATM   27  C   UNL     1     -11.035   7.966  73.117  1.00  0.00    -0.236 A  
HETATM   28  N   UNL     1     -11.172   9.098  72.404  1.00  0.00     0.039 NA 
ENDBRANCH  20  23
ENDBRANCH  16  17
ENDBRANCH  15  16
ENDBRANCH  14  15
ENDBRANCH  13  14
ENDBRANCH   9  13
TORSDOF 6
ENDMDL
MODEL      207
REMARK 921   NORMALIZED FREE ENERGY PREDICTED BY IDOCK:   -0.40 KCAL/MOL
REMARK 922        TOTAL FREE ENERGY PREDICTED BY IDOCK:   -1.51 KCAL/MOL
REMARK 923 INTER-LIGAND FREE ENERGY PREDICTED BY IDOCK:   -2.28 KCAL/MOL
REMARK 924 INTRA-LIGAND FREE ENERGY PREDICTED BY IDOCK:    0.76 KCAL/MOL
REMARK 927      BINDING AFFINITY PREDICTED BY RF-SCORE:    0.00 PKD
ROOT
HETATM    1  O   UNL     1      -9.190  10.548  70.601  1.00  0.00     0.812 OA 
HETATM    2  C   UNL     1      -8.858  10.707  69.429  1.00  0.00    -0.018 C  
HETATM    3  C   UNL     1      -8.060  11.909  68.997  1.00  0.00     0.166 C  
HETATM    4  C   UNL     1      -8.554  12.520  67.680  1.00  0.00    -0.178 C  
HETATM    5  C   UNL     1      -8.801  11.418  66.649  1.00  0.00    -0.183 C  
HETATM    6  C   UNL     1      -7.488  13.516  67.159  1.00  0.00     0.075 C  
HETATM    7  C   UNL     1      -9.588  10.264  67.215  1.00  0.00    -0.159 C  
HETATM    8  C   UNL     1      -8.188  14.859  67.026  1.00  0.00    -0.228 C  
HETATM    9  N   UNL     1      -9.091   9.795  68.415  1.00  0.00    -0.123 N  
HETATM   10  C   UNL     1      -9.307  14.797  68.048  1.00  0.00    -0.196 C  
HETATM   11  O   UNL     1     -10.536   9.772  66.608  1.00  0.00    -0.218 OA 
HETATM   12  C   UNL     1      -9.822  13.372  67.906  1.00  0.00    -0.237 C  
ENDROOT
BRANCH   9  13
HETATM   13  C   UNL     1      -9.429   8.439  68.802  1.00  0.00    -0.147 C  
BRANCH  13  14
HETATM   14  C   UNL     1     -10.951   8.298  68.928  1.00  0.00     0.119 C  
BRANCH  14  15
HETATM   15  C   UNL     1     -11.372   7.591  70.210  1.00  0.00    -0.219 C  
BRANCH  15  16
HETATM   16  C   UNL     1     -10.576   8.034  71.444  1.00  0.00    -0.216 C  
BRANCH  16  17
HETATM   17  N   UNL     1     -10.312   6.944  72.403  1.00  0.00    -0.198 NA 
HETATM   18  C   UNL     1     -10.836   5.636  71.934  1.00  0.00    -0.242 C  
HETATM   19  C   UNL     1     -10.196   5.139  70.618  1.00  0.00    -0.256 C  
HETATM   20  N   UNL     1      -8.735   5.119  70.733  1.00  0.00    -0.126 NA 
HETATM   21  C   UNL     1      -8.850   6.774  72.603  1.00  0.00    -0.122 C  
HETATM   22  C   UNL     1      -8.082   6.272  71.358  1.00  0.00    -0.117 C  
BRANCH  20  23
HETATM   23  C   UNL     1      -8.127   3.888  70.758  1.00  0.00    -0.062 A  
HETATM   24  N   UNL     1      -7.369   3.533  69.703  1.00  0.00    -0.045 NA 
HETATM   25  C   UNL     1      -6.722   2.358  69.756  1.00  0.00    -0.033 A  
HETATM   26  C   UNL     1      -6.811   1.493  70.816  1.00  0.00    -0.028 A  
HETATM   27  C   UNL     1      -7.612   1.923  71.841  1.00  0.00    -0.040 A  
HETATM   28  N   UNL     1      -8.259   3.102  71.840  1.00  0.00    -0.058 NA 
ENDBRANCH  20  23
ENDBRANCH  16  17
ENDBRANCH  15  16
ENDBRANCH  14  15
ENDBRANCH  13  14
ENDBRANCH   9  13
TORSDOF 6
ENDMDL
MODEL      208
REMARK 921   NORMALIZED FREE ENERGY PREDICTED BY IDOCK:   -0.14 KCAL/MOL
REMARK 922        TOTAL FREE ENERGY PREDICTED BY IDOCK:   -1.16 KCAL/MOL
REMARK 923 INTER-LIGAND FREE ENERGY PREDICTED BY IDOCK:   -0.79 KCAL/MOL
REMARK 924 INTRA-LIGAND FREE ENERGY PREDICTED BY IDOCK:   -0.37 KCAL/MOL
REMARK 927      BINDING AFFINITY PREDICTED BY RF-SCORE:    0.00 PKD
ROOT
HETATM    1  O   UNL     1      -6.812  12.128  69.853  1.00  0.00     0.070 OA 
HETATM    2  C   UNL     1      -7.476  11.496  69.035  1.00  0.00    -0.073 C  
HETATM    3  C   UNL     1      -7.258  10.021  68.821  1.00  0.00    -0.076 C  
HETATM    4  C   UNL     1      -7.275   9.616  67.343  1.00  0.00    -0.086 C  
HETATM    5  C   UNL     1      -8.457  10.274  66.631  1.00  0.00    -0.124 C  
HETATM    6  C   UNL     1      -7.379   8.074  67.247  1.00  0.00    -0.089 C  
HETATM    7  C   UNL     1      -8.578  11.743  66.948  1.00  0.00    -0.177 C  
HETATM    8  C   UNL     1      -6.168   7.613  66.452  1.00  0.00    -0.045 C  
HETATM    9  N   UNL     1      -8.524  12.020  68.300  1.00  0.00    -0.165 N  
HETATM   10  C   UNL     1      -5.126   8.685  66.708  1.00  0.00    -0.031 C  
HETATM   11  O   UNL     1      -8.769  12.578  66.068  1.00  0.00     0.138 OA 
HETATM   12  C   UNL     1      -5.938   9.971  66.655  1.00  0.00    -0.056 C  
ENDROOT
BRANCH   9  13
HETATM   13  C   UNL     1      -9.100  13.270  68.755  1.00  0.00     0.142 C  
BRANCH  13  14
HETATM   14  C   UNL     1     -10.497  13.018  69.337  1.00  0.00     0.334 C  
BRANCH  14  15
HETATM   15  C   UNL     1     -10.972  11.586  69.130  1.00  0.00    -0.276 C  
BRANCH  15  16
HETATM   16  C   UNL     1     -12.323  11.287  69.791  1.00  0.00    -0.209 C  
BRANCH  16  17
HETATM   17  N   UNL     1     -12.581   9.847  69.990  1.00  0.00     0.184 NA 
HETATM   18  C   UNL     1     -11.367   9.019  69.777  1.00  0.00     0.062 C  
HETATM   19  C   UNL     1     -10.214   9.330  70.757  1.00  0.00    -0.286 C  
HETATM   20  N   UNL     1     -10.683   9.245  72.144  1.00  0.00    -0.033 NA 
HETATM   21  C   UNL     1     -13.037   9.590  71.380  1.00  0.00    -0.370 C  
HETATM   22  C   UNL     1     -11.973   9.858  72.470  1.00  0.00     1.166 C  
BRANCH  20  23
HETATM   23  C   UNL     1     -10.206   8.204  72.902  1.00  0.00    -0.270 A  
HETATM   24  N   UNL     1      -8.876   7.991  72.924  1.00  0.00    -0.200 NA 
HETATM   25  C   UNL     1      -8.406   7.015  73.717  1.00  0.00    -0.134 A  
HETATM   26  C   UNL     1      -9.208   6.212  74.484  1.00  0.00    -0.173 A  
HETATM   27  C   UNL     1     -10.548   6.484  74.395  1.00  0.00     0.136 A  
HETATM   28  N   UNL     1     -11.060   7.467  73.633  1.00  0.00    -0.147 NA 
ENDBRANCH  20  23
ENDBRANCH  16  17
ENDBRANCH  15  16
ENDBRANCH  14  15
ENDBRANCH  13  14
ENDBRANCH   9  13
TORSDOF 6
ENDMDL
MODEL      209
REMARK 921   NORMALIZED FREE ENERGY PREDICTED BY IDOCK:   -0.11 KCAL/MOL
REMARK 922        TOTAL FREE ENERGY PREDICTED BY IDOCK:   -1.12 KCAL/MOL
REMARK 923 INTER-LIGAND FREE ENERGY PREDICTED BY IDOCK:   -3.21 KCAL/MOL
REMARK 924 INTRA-LIGAND FREE ENERGY PREDICTED BY IDOCK:    2.09 KCAL/MOL
REMARK 927      BINDING AFFINITY PREDICTED BY RF-SCORE:    0.00 PKD
ROOT
HETATM    1  O   UNL     1      -8.025  10.840  70.402  1.00  0.00     0.445 OA 
HETATM    2  C   UNL     1      -7.541  11.006  69.285  1.00  0.00    -0.089 C  
HETATM    3  C   UNL     1      -6.391  11.953  69.062  1.00  0.00    -0.080 C  
HETATM    4  C   UNL     1      -6.548  12.808  67.800  1.00  0.00    -0.134 C  
HETATM    5  C   UNL     1      -6.992  11.936  66.626  1.00  0.00     0.084 C  
HETATM    6  C   UNL     1      -5.192  13.488  67.484  1.00  0.00     0.113 C  
HETATM    7  C   UNL     1      -8.132  11.018  66.986  1.00  0.00    -0.136 C  
HETATM    8  C   UNL     1      -5.460  14.985  67.468  1.00  0.00     0.113 C  
HETATM    9  N   UNL     1      -7.919  10.308  68.151  1.00  0.00    -0.107 N  
HETATM   10  C   UNL     1      -6.650  15.159  68.393  1.00  0.00    -0.101 C  
HETATM   11  O   UNL     1      -9.113  10.892  66.258  1.00  0.00    -0.166 OA 
HETATM   12  C   UNL     1      -7.535  13.973  68.039  1.00  0.00    -0.141 C  
ENDROOT
BRANCH   9  13
HETATM   13  C   UNL     1      -8.670   9.083  68.342  1.00  0.00    -0.130 C  
BRANCH  13  14
HETATM   14  C   UNL     1     -10.141   9.311  67.970  1.00  0.00    -0.234 C  
BRANCH  14  15
HETATM   15  C   UNL     1     -11.067   9.272  69.179  1.00  0.00    -0.002 C  
BRANCH  15  16
HETATM   16  C   UNL     1     -10.542  10.070  70.378  1.00  0.00    -0.280 C  
BRANCH  16  17
HETATM   17  N   UNL     1     -10.915   9.493  71.685  1.00  0.00    -0.318 NA 
HETATM   18  C   UNL     1     -11.907   8.395  71.557  1.00  0.00    -0.297 C  
HETATM   19  C   UNL     1     -11.402   7.183  70.744  1.00  0.00    -0.289 C  
HETATM   20  N   UNL     1     -10.132   6.694  71.287  1.00  0.00    -0.188 NA 
HETATM   21  C   UNL     1      -9.721   8.916  72.356  1.00  0.00     0.035 C  
HETATM   22  C   UNL     1      -9.113   7.684  71.645  1.00  0.00    -0.134 C  
BRANCH  20  23
HETATM   23  C   UNL     1     -10.148   5.469  71.910  1.00  0.00    -0.189 A  
HETATM   24  N   UNL     1      -9.350   4.499  71.426  1.00  0.00    -0.139 NA 
HETATM   25  C   UNL     1      -9.318   3.324  72.075  1.00  0.00    -0.123 A  
HETATM   26  C   UNL     1     -10.071   3.055  73.188  1.00  0.00    -0.208 A  
HETATM   27  C   UNL     1     -10.865   4.089  73.608  1.00  0.00    -0.255 A  
HETATM   28  N   UNL     1     -10.911   5.289  73.003  1.00  0.00    -0.256 NA 
ENDBRANCH  20  23
ENDBRANCH  16  17
ENDBRANCH  15  16
ENDBRANCH  14  15
ENDBRANCH  13  14
ENDBRANCH   9  13
TORSDOF 6
ENDMDL
MODEL      210
REMARK 921   NORMALIZED FREE ENERGY PREDICTED BY IDOCK:   -0.08 KCAL/MOL
REMARK 922        TOTAL FREE ENERGY PREDICTED BY IDOCK:   -1.08 KCAL/MOL
REMARK 923 INTER-LIGAND FREE ENERGY PREDICTED BY IDOCK:   -1.25 KCAL/MOL
REMARK 924 INTRA-LIGAND FREE ENERGY PREDICTED BY IDOCK:    0.16 KCAL/MOL
REMARK 927      BINDING AFFINITY PREDICTED BY RF-SCORE:    0.00 PKD
ROOT
HETATM    1  O   UNL     1      -9.736   3.188  67.566  1.00  0.00    -0.129 OA 
HETATM    2  C   UNL     1      -8.513   3.207  67.446  1.00  0.00    -0.092 C  
HETATM    3  C   UNL     1      -7.651   2.124  68.040  1.00  0.00    -0.055 C  
HETATM    4  C   UNL     1      -6.385   2.662  68.716  1.00  0.00    -0.029 C  
HETATM    5  C   UNL     1      -5.711   3.700  67.819  1.00  0.00    -0.022 C  
HETATM    6  C   UNL     1      -5.422   1.480  68.990  1.00  0.00    -0.013 C  
HETATM    7  C   UNL     1      -6.685   4.710  67.270  1.00  0.00    -0.051 C  
HETATM    8  C   UNL     1      -5.163   1.481  70.489  1.00  0.00    -0.004 C  
HETATM    9  N   UNL     1      -7.809   4.140  66.705  1.00  0.00    -0.096 N  
HETATM   10  C   UNL     1      -6.406   2.117  71.081  1.00  0.00    -0.019 C  
HETATM   11  O   UNL     1      -6.442   5.914  67.283  1.00  0.00    -0.043 OA 
HETATM   12  C   UNL     1      -6.707   3.249  70.109  1.00  0.00    -0.033 C  
ENDROOT
BRANCH   9  13
HETATM   13  C   UNL     1      -8.554   4.927  65.742  1.00  0.00    -0.128 C  
BRANCH  13  14
HETATM   14  C   UNL     1      -9.880   5.387  66.360  1.00  0.00    -0.196 C  
BRANCH  14  15
HETATM   15  C   UNL     1     -10.401   6.678  65.742  1.00  0.00     1.195 C  
BRANCH  15  16
HETATM   16  C   UNL     1      -9.404   7.841  65.822  1.00  0.00     0.136 C  
BRANCH  16  17
HETATM   17  N   UNL     1     -10.004   9.108  66.284  1.00  0.00    -0.287 NA 
HETATM   18  C   UNL     1      -9.702   9.391  67.710  1.00  0.00    -0.151 C  
HETATM   19  C   UNL     1      -8.196   9.559  68.012  1.00  0.00    -0.114 C  
HETATM   20  N   UNL     1      -7.605  10.569  67.130  1.00  0.00    -0.095 NA 
HETATM   21  C   UNL     1      -9.471  10.250  65.498  1.00  0.00    -0.223 C  
HETATM   22  C   UNL     1      -7.966  10.534  65.710  1.00  0.00    -0.158 C  
BRANCH  20  23
HETATM   23  C   UNL     1      -7.209  11.750  67.710  1.00  0.00    -0.097 A  
HETATM   24  N   UNL     1      -6.320  11.696  68.720  1.00  0.00    -0.052 NA 
HETATM   25  C   UNL     1      -5.884  12.853  69.241  1.00  0.00    -0.087 A  
HETATM   26  C   UNL     1      -6.314  14.083  68.816  1.00  0.00    -0.090 A  
HETATM   27  C   UNL     1      -7.227  14.051  67.795  1.00  0.00    -0.165 A  
HETATM   28  N   UNL     1      -7.673  12.917  67.227  1.00  0.00    -0.149 NA 
ENDBRANCH  20  23
ENDBRANCH  16  17
ENDBRANCH  15  16
ENDBRANCH  14  15
ENDBRANCH  13  14
ENDBRANCH   9  13
TORSDOF 6
ENDMDL
MODEL      211
REMARK 921   NORMALIZED FREE ENERGY PREDICTED BY IDOCK:   -0.07 KCAL/MOL
REMARK 922        TOTAL FREE ENERGY PREDICTED BY IDOCK:   -1.06 KCAL/MOL
REMARK 923 INTER-LIGAND FREE ENERGY PREDICTED BY IDOCK:   -1.99 KCAL/MOL
REMARK 924 INTRA-LIGAND FREE ENERGY PREDICTED BY IDOCK:    0.93 KCAL/MOL
REMARK 927      BINDING AFFINITY PREDICTED BY RF-SCORE:    0.00 PKD
ROOT
HETATM    1  O   UNL     1      -9.539   1.895  66.509  1.00  0.00     0.176 OA 
HETATM    2  C   UNL     1      -8.330   2.111  66.545  1.00  0.00    -0.094 C  
HETATM    3  C   UNL     1      -7.449   1.470  67.585  1.00  0.00    -0.054 C  
HETATM    4  C   UNL     1      -6.418   2.435  68.181  1.00  0.00    -0.029 C  
HETATM    5  C   UNL     1      -5.741   3.235  67.068  1.00  0.00    -0.022 C  
HETATM    6  C   UNL     1      -5.366   1.618  68.973  1.00  0.00    -0.012 C  
HETATM    7  C   UNL     1      -6.729   3.801  66.080  1.00  0.00    -0.049 C  
HETATM    8  C   UNL     1      -5.391   2.157  70.395  1.00  0.00    -0.004 C  
HETATM    9  N   UNL     1      -7.639   2.870  65.617  1.00  0.00    -0.073 N  
HETATM   10  C   UNL     1      -6.799   2.696  70.563  1.00  0.00    -0.033 C  
HETATM   11  O   UNL     1      -6.663   4.967  65.699  1.00  0.00    -0.053 OA 
HETATM   12  C   UNL     1      -7.070   3.368  69.226  1.00  0.00    -0.045 C  
ENDROOT
BRANCH   9  13
HETATM   13  C   UNL     1      -8.296   3.140  64.353  1.00  0.00    -0.093 C  
BRANCH  13  14
HETATM   14  C   UNL     1      -9.809   3.262  64.569  1.00  0.00    -0.145 C  
BRANCH  14  15
HETATM   15  C   UNL     1     -10.253   4.695  64.835  1.00  0.00     0.050 C  
BRANCH  15  16
HETATM   16  C   UNL     1      -9.766   5.247  66.180  1.00  0.00    -0.161 C  
BRANCH  16  17
HETATM   17  N   UNL     1     -10.842   5.820  67.012  1.00  0.00    -0.285 NA 
HETATM   18  C   UNL     1     -10.926   5.182  68.350  1.00  0.00     0.676 C  
HETATM   19  C   UNL     1      -9.655   5.358  69.211  1.00  0.00    -0.145 C  
HETATM   20  N   UNL     1      -9.299   6.776  69.316  1.00  0.00    -0.144 NA 
HETATM   21  C   UNL     1     -10.603   7.269  67.241  1.00  0.00    -0.325 C  
HETATM   22  C   UNL     1      -9.357   7.589  68.099  1.00  0.00    -0.136 C  
BRANCH  20  23
HETATM   23  C   UNL     1      -9.452   7.369  70.546  1.00  0.00    -0.161 A  
HETATM   24  N   UNL     1      -8.344   7.757  71.206  1.00  0.00    -0.101 NA 
HETATM   25  C   UNL     1      -8.497   8.396  72.377  1.00  0.00    -0.172 A  
HETATM   26  C   UNL     1      -9.717   8.651  72.945  1.00  0.00    -0.005 A  
HETATM   27  C   UNL     1     -10.792   8.212  72.217  1.00  0.00    -0.320 A  
HETATM   28  N   UNL     1     -10.686   7.590  71.030  1.00  0.00    -0.229 NA 
ENDBRANCH  20  23
ENDBRANCH  16  17
ENDBRANCH  15  16
ENDBRANCH  14  15
ENDBRANCH  13  14
ENDBRANCH   9  13
TORSDOF 6
ENDMDL
MODEL      212
REMARK 921   NORMALIZED FREE ENERGY PREDICTED BY IDOCK:    0.28 KCAL/MOL
REMARK 922        TOTAL FREE ENERGY PREDICTED BY IDOCK:   -0.60 KCAL/MOL
REMARK 923 INTER-LIGAND FREE ENERGY PREDICTED BY IDOCK:   -2.16 KCAL/MOL
REMARK 924 INTRA-LIGAND FREE ENERGY PREDICTED BY IDOCK:    1.56 KCAL/MOL
REMARK 927      BINDING AFFINITY PREDICTED BY RF-SCORE:    0.00 PKD
ROOT
HETATM    1  O   UNL     1      -9.802   3.198  67.409  1.00  0.00    -0.000 OA 
HETATM    2  C   UNL     1      -8.575   3.127  67.423  1.00  0.00    -0.110 C  
HETATM    3  C   UNL     1      -7.859   2.105  68.266  1.00  0.00    -0.056 C  
HETATM    4  C   UNL     1      -6.631   2.670  68.988  1.00  0.00    -0.033 C  
HETATM    5  C   UNL     1      -5.796   3.512  68.024  1.00  0.00    -0.026 C  
HETATM    6  C   UNL     1      -5.790   1.493  69.543  1.00  0.00    -0.022 C  
HETATM    7  C   UNL     1      -6.633   4.476  67.224  1.00  0.00    -0.047 C  
HETATM    8  C   UNL     1      -5.682   1.717  71.044  1.00  0.00    -0.013 C  
HETATM    9  N   UNL     1      -7.734   3.888  66.632  1.00  0.00    -0.088 N  
HETATM   10  C   UNL     1      -6.929   2.510  71.391  1.00  0.00    -0.032 C  
HETATM   11  O   UNL     1      -6.305   5.651  67.081  1.00  0.00    -0.039 OA 
HETATM   12  C   UNL     1      -7.047   3.488  70.232  1.00  0.00    -0.038 C  
ENDROOT
BRANCH   9  13
HETATM   13  C   UNL     1      -8.319   4.554  65.484  1.00  0.00    -0.116 C  
BRANCH  13  14
HETATM   14  C   UNL     1      -9.785   4.901  65.774  1.00  0.00    -0.184 C  
BRANCH  14  15
HETATM   15  C   UNL     1      -9.972   6.347  66.213  1.00  0.00    -0.010 C  
BRANCH  15  16
HETATM   16  C   UNL     1      -9.030   6.771  67.346  1.00  0.00    -0.115 C  
BRANCH  16  17
HETATM   17  N   UNL     1      -9.703   6.923  68.652  1.00  0.00    -0.136 NA 
HETATM   18  C   UNL     1      -9.157   6.004  69.682  1.00  0.00    -0.135 C  
HETATM   19  C   UNL     1      -7.663   6.234  70.002  1.00  0.00    -0.101 C  
HETATM   20  N   UNL     1      -7.424   7.636  70.357  1.00  0.00    -0.078 NA 
HETATM   21  C   UNL     1      -9.520   8.304  69.169  1.00  0.00    -0.155 C  
HETATM   22  C   UNL     1      -8.062   8.668  69.537  1.00  0.00    -0.110 C  
BRANCH  20  23
HETATM   23  C   UNL     1      -7.097   7.902  71.665  1.00  0.00    -0.067 A  
HETATM   24  N   UNL     1      -5.801   7.827  72.023  1.00  0.00    -0.036 NA 
HETATM   25  C   UNL     1      -5.474   8.151  73.284  1.00  0.00    -0.049 A  
HETATM   26  C   UNL     1      -6.391   8.531  74.228  1.00  0.00    -0.151 A  
HETATM   27  C   UNL     1      -7.687   8.569  73.788  1.00  0.00    -0.029 A  
HETATM   28  N   UNL     1      -8.057   8.276  72.528  1.00  0.00    -0.187 NA 
ENDBRANCH  20  23
ENDBRANCH  16  17
ENDBRANCH  15  16
ENDBRANCH  14  15
ENDBRANCH  13  14
ENDBRANCH   9  13
TORSDOF 6
ENDMDL
MODEL      213
REMARK 921   NORMALIZED FREE ENERGY PREDICTED BY IDOCK:    0.37 KCAL/MOL
REMARK 922        TOTAL FREE ENERGY PREDICTED BY IDOCK:   -0.47 KCAL/MOL
REMARK 923 INTER-LIGAND FREE ENERGY PREDICTED BY IDOCK:   -1.40 KCAL/MOL
REMARK 924 INTRA-LIGAND FREE ENERGY PREDICTED BY IDOCK:    0.93 KCAL/MOL
REMARK 927      BINDING AFFINITY PREDICTED BY RF-SCORE:    0.00 PKD
ROOT
HETATM    1  O   UNL     1      -8.096  10.856  70.412  1.00  0.00     0.747 OA 
HETATM    2  C   UNL     1      -7.496  11.097  69.368  1.00  0.00    -0.026 C  
HETATM    3  C   UNL     1      -6.525  12.245  69.269  1.00  0.00    -0.109 C  
HETATM    4  C   UNL     1      -6.656  13.035  67.963  1.00  0.00    -0.116 C  
HETATM    5  C   UNL     1      -6.752  12.078  66.775  1.00  0.00     0.042 C  
HETATM    6  C   UNL     1      -5.422  13.960  67.811  1.00  0.00    -0.037 C  
HETATM    7  C   UNL     1      -7.738  10.962  67.011  1.00  0.00    -0.129 C  
HETATM    8  C   UNL     1      -5.963  15.377  67.696  1.00  0.00    -0.130 C  
HETATM    9  N   UNL     1      -7.566  10.323  68.223  1.00  0.00    -0.090 N  
HETATM   10  C   UNL     1      -7.286  15.331  68.437  1.00  0.00    -0.114 C  
HETATM   11  O   UNL     1      -8.560  10.638  66.158  1.00  0.00    -0.148 OA 
HETATM   12  C   UNL     1      -7.869  13.991  68.012  1.00  0.00    -0.152 C  
ENDROOT
BRANCH   9  13
HETATM   13  C   UNL     1      -8.092   8.979  68.358  1.00  0.00    -0.108 C  
BRANCH  13  14
HETATM   14  C   UNL     1      -7.046   8.074  69.021  1.00  0.00    -0.066 C  
BRANCH  14  15
HETATM   15  C   UNL     1      -6.164   7.353  68.010  1.00  0.00    -0.043 C  
BRANCH  15  16
HETATM   16  C   UNL     1      -5.768   8.225  66.811  1.00  0.00    -0.044 C  
BRANCH  16  17
HETATM   17  N   UNL     1      -5.429   7.451  65.601  1.00  0.00    -0.028 NA 
HETATM   18  C   UNL     1      -5.133   6.027  65.902  1.00  0.00    -0.012 C  
HETATM   19  C   UNL     1      -6.320   5.255  66.519  1.00  0.00    -0.036 C  
HETATM   20  N   UNL     1      -7.511   5.385  65.675  1.00  0.00    -0.080 NA 
HETATM   21  C   UNL     1      -6.569   7.459  64.646  1.00  0.00    -0.040 C  
HETATM   22  C   UNL     1      -7.829   6.711  65.139  1.00  0.00    -0.115 C  
BRANCH  20  23
HETATM   23  C   UNL     1      -7.936   4.257  65.016  1.00  0.00    -0.093 A  
HETATM   24  N   UNL     1      -9.207   3.853  65.202  1.00  0.00    -0.141 NA 
HETATM   25  C   UNL     1      -9.641   2.790  64.507  1.00  0.00    -0.133 A  
HETATM   26  C   UNL     1      -8.852   2.082  63.638  1.00  0.00    -0.089 A  
HETATM   27  C   UNL     1      -7.570   2.549  63.516  1.00  0.00    -0.063 A  
HETATM   28  N   UNL     1      -7.101   3.624  64.174  1.00  0.00    -0.049 NA 
ENDBRANCH  20  23
ENDBRANCH  16  17
ENDBRANCH  15  16
ENDBRANCH  14  15
ENDBRANCH  13  14
ENDBRANCH   9  13
TORSDOF 6
ENDMDL
MODEL      214
REMARK 921   NORMALIZED FREE ENERGY PREDICTED BY IDOCK:    0.39 KCAL/MOL
REMARK 922        TOTAL FREE ENERGY PREDICTED BY IDOCK:   -0.45 KCAL/MOL
REMARK 923 INTER-LIGAND FREE ENERGY PREDICTED BY IDOCK:   -3.15 KCAL/MOL
REMARK 924 INTRA-LIGAND FREE ENERGY PREDICTED BY IDOCK:    2.70 KCAL/MOL
REMARK 927      BINDING AFFINITY PREDICTED BY RF-SCORE:    0.00 PKD
ROOT
HETATM    1  O   UNL     1      -8.561  10.451  69.848  1.00  0.00    -0.072 OA 
HETATM    2  C   UNL     1      -9.411   9.581  69.676  1.00  0.00    -0.200 C  
HETATM    3  C   UNL     1     -10.876   9.867  69.873  1.00  0.00    -0.316 C  
HETATM    4  C   UNL     1     -11.616   8.747  70.613  1.00  0.00    -0.236 C  
HETATM    5  C   UNL     1     -11.226   7.387  70.035  1.00  0.00    -0.200 C  
HETATM    6  C   UNL     1     -13.142   8.975  70.471  1.00  0.00     0.589 C  
HETATM    7  C   UNL     1      -9.736   7.237  69.865  1.00  0.00    -0.174 C  
HETATM    8  C   UNL     1     -13.692   9.075  71.886  1.00  0.00    -0.495 C  
HETATM    9  N   UNL     1      -9.147   8.304  69.214  1.00  0.00    -0.150 N  
HETATM   10  C   UNL     1     -12.521   9.585  72.704  1.00  0.00     0.164 C  
HETATM   11  O   UNL     1      -9.145   6.223  70.226  1.00  0.00    -0.151 OA 
HETATM   12  C   UNL     1     -11.342   8.811  72.133  1.00  0.00    -0.411 C  
ENDROOT
BRANCH   9  13
HETATM   13  C   UNL     1      -7.867   8.078  68.571  1.00  0.00    -0.115 C  
BRANCH  13  14
HETATM   14  C   UNL     1      -8.070   7.294  67.269  1.00  0.00    -0.112 C  
BRANCH  14  15
HETATM   15  C   UNL     1      -6.872   6.423  66.913  1.00  0.00    -0.066 C  
BRANCH  15  16
HETATM   16  C   UNL     1      -5.934   7.064  65.883  1.00  0.00    -0.036 C  
BRANCH  16  17
HETATM   17  N   UNL     1      -6.249   6.703  64.487  1.00  0.00    -0.034 NA 
HETATM   18  C   UNL     1      -5.870   5.304  64.163  1.00  0.00    -0.021 C  
HETATM   19  C   UNL     1      -6.614   4.241  65.001  1.00  0.00    -0.044 C  
HETATM   20  N   UNL     1      -8.064   4.436  64.907  1.00  0.00    -0.097 NA 
HETATM   21  C   UNL     1      -7.710   6.819  64.240  1.00  0.00    -0.109 C  
HETATM   22  C   UNL     1      -8.579   5.803  65.017  1.00  0.00    -0.088 C  
BRANCH  20  23
HETATM   23  C   UNL     1      -8.779   3.485  64.221  1.00  0.00    -0.093 A  
HETATM   24  N   UNL     1     -10.098   3.690  64.040  1.00  0.00    -0.191 NA 
HETATM   25  C   UNL     1     -10.783   2.793  63.313  1.00  0.00    -0.231 A  
HETATM   26  C   UNL     1     -10.216   1.671  62.767  1.00  0.00    -0.102 A  
HETATM   27  C   UNL     1      -8.875   1.530  63.008  1.00  0.00    -0.075 A  
HETATM   28  N   UNL     1      -8.145   2.415  63.710  1.00  0.00    -0.080 NA 
ENDBRANCH  20  23
ENDBRANCH  16  17
ENDBRANCH  15  16
ENDBRANCH  14  15
ENDBRANCH  13  14
ENDBRANCH   9  13
TORSDOF 6
ENDMDL
MODEL      215
REMARK 921   NORMALIZED FREE ENERGY PREDICTED BY IDOCK:    1.36 KCAL/MOL
REMARK 922        TOTAL FREE ENERGY PREDICTED BY IDOCK:    0.86 KCAL/MOL
REMARK 923 INTER-LIGAND FREE ENERGY PREDICTED BY IDOCK:    0.31 KCAL/MOL
REMARK 924 INTRA-LIGAND FREE ENERGY PREDICTED BY IDOCK:    0.55 KCAL/MOL
REMARK 927      BINDING AFFINITY PREDICTED BY RF-SCORE:    0.00 PKD
ROOT
HETATM    1  O   UNL     1      -7.715  10.758  71.303  1.00  0.00     2.292 OA 
HETATM    2  C   UNL     1      -7.520  10.834  70.092  1.00  0.00     0.404 C  
HETATM    3  C   UNL     1      -6.405  11.675  69.529  1.00  0.00    -0.122 C  
HETATM    4  C   UNL     1      -6.820  12.481  68.294  1.00  0.00    -0.082 C  
HETATM    5  C   UNL     1      -7.603  11.594  67.326  1.00  0.00    -0.147 C  
HETATM    6  C   UNL     1      -5.547  13.035  67.606  1.00  0.00    -0.105 C  
HETATM    7  C   UNL     1      -8.672  10.787  68.017  1.00  0.00    -0.132 C  
HETATM    8  C   UNL     1      -5.712  14.547  67.561  1.00  0.00     0.141 C  
HETATM    9  N   UNL     1      -8.217  10.117  69.136  1.00  0.00    -0.133 N  
HETATM   10  C   UNL     1      -6.615  14.857  68.740  1.00  0.00    -0.087 C  
HETATM   11  O   UNL     1      -9.811  10.705  67.566  1.00  0.00    -0.164 OA 
HETATM   12  C   UNL     1      -7.636  13.730  68.695  1.00  0.00    -0.125 C  
ENDROOT
BRANCH   9  13
HETATM   13  C   UNL     1      -8.975   8.965  69.587  1.00  0.00    -0.147 C  
BRANCH  13  14
HETATM   14  C   UNL     1      -8.115   7.700  69.474  1.00  0.00    -0.127 C  
BRANCH  14  15
HETATM   15  C   UNL     1      -8.265   7.003  68.128  1.00  0.00    -0.120 C  
BRANCH  15  16
HETATM   16  C   UNL     1      -9.671   7.125  67.529  1.00  0.00    -0.142 C  
BRANCH  16  17
HETATM   17  N   UNL     1      -9.758   6.683  66.123  1.00  0.00     0.007 NA 
HETATM   18  C   UNL     1      -8.431   6.643  65.458  1.00  0.00    -0.131 C  
HETATM   19  C   UNL     1      -7.436   5.651  66.101  1.00  0.00    -0.082 C  
HETATM   20  N   UNL     1      -8.030   4.314  66.189  1.00  0.00    -0.098 NA 
HETATM   21  C   UNL     1     -10.318   5.309  66.046  1.00  0.00    -0.130 C  
HETATM   22  C   UNL     1      -9.416   4.209  66.652  1.00  0.00    -0.191 C  
BRANCH  20  23
HETATM   23  C   UNL     1      -7.501   3.340  65.376  1.00  0.00    -0.076 A  
HETATM   24  N   UNL     1      -7.979   3.233  64.121  1.00  0.00    -0.081 NA 
HETATM   25  C   UNL     1      -7.416   2.325  63.307  1.00  0.00    -0.053 A  
HETATM   26  C   UNL     1      -6.401   1.490  63.693  1.00  0.00    -0.013 A  
HETATM   27  C   UNL     1      -5.983   1.654  64.987  1.00  0.00    -0.017 A  
HETATM   28  N   UNL     1      -6.500   2.566  65.829  1.00  0.00    -0.027 NA 
ENDBRANCH  20  23
ENDBRANCH  16  17
ENDBRANCH  15  16
ENDBRANCH  14  15
ENDBRANCH  13  14
ENDBRANCH   9  13
TORSDOF 6
ENDMDL
MODEL      216
REMARK 921   NORMALIZED FREE ENERGY PREDICTED BY IDOCK:    2.41 KCAL/MOL
REMARK 922        TOTAL FREE ENERGY PREDICTED BY IDOCK:    2.28 KCAL/MOL
REMARK 923 INTER-LIGAND FREE ENERGY PREDICTED BY IDOCK:   -1.38 KCAL/MOL
REMARK 924 INTRA-LIGAND FREE ENERGY PREDICTED BY IDOCK:    3.66 KCAL/MOL
REMARK 927      BINDING AFFINITY PREDICTED BY RF-SCORE:    0.00 PKD
ROOT
HETATM    1  O   UNL     1      -9.330  10.647  69.015  1.00  0.00    -0.184 OA 
HETATM    2  C   UNL     1      -8.132  10.386  68.941  1.00  0.00    -0.129 C  
HETATM    3  C   UNL     1      -7.225  11.133  67.998  1.00  0.00    -0.079 C  
HETATM    4  C   UNL     1      -6.237  10.223  67.261  1.00  0.00    -0.058 C  
HETATM    5  C   UNL     1      -5.595   9.241  68.242  1.00  0.00    -0.038 C  
HETATM    6  C   UNL     1      -5.151  11.100  66.589  1.00  0.00    -0.097 C  
HETATM    7  C   UNL     1      -6.606   8.580  69.143  1.00  0.00    -0.047 C  
HETATM    8  C   UNL     1      -5.200  10.775  65.104  1.00  0.00    -0.141 C  
HETATM    9  N   UNL     1      -7.474   9.471  69.743  1.00  0.00    -0.084 N  
HETATM   10  C   UNL     1      -6.630  10.328  64.869  1.00  0.00    -0.105 C  
HETATM   11  O   UNL     1      -6.590   7.369  69.350  1.00  0.00    -0.035 OA 
HETATM   12  C   UNL     1      -6.930   9.480  66.097  1.00  0.00    -0.091 C  
ENDROOT
BRANCH   9  13
HETATM   13  C   UNL     1      -8.141   9.048  70.959  1.00  0.00    -0.159 C  
BRANCH  13  14
HETATM   14  C   UNL     1      -8.225   7.518  71.001  1.00  0.00    -0.108 C  
BRANCH  14  15
HETATM   15  C   UNL     1      -9.580   6.989  70.550  1.00  0.00    -0.169 C  
BRANCH  15  16
HETATM   16  C   UNL     1     -10.645   8.083  70.398  1.00  0.00    -0.224 C  
BRANCH  16  17
HETATM   17  N   UNL     1     -11.025   8.721  71.674  1.00  0.00    -0.295 NA 
HETATM   18  C   UNL     1     -10.451  10.083  71.820  1.00  0.00     1.605 C  
HETATM   19  C   UNL     1     -10.925  11.085  70.744  1.00  0.00     0.921 C  
HETATM   20  N   UNL     1     -12.389  11.126  70.692  1.00  0.00    -0.368 NA 
HETATM   21  C   UNL     1     -12.502   8.868  71.758  1.00  0.00    -0.362 C  
HETATM   22  C   UNL     1     -13.113   9.852  70.734  1.00  0.00    -0.192 C  
BRANCH  20  23
HETATM   23  C   UNL     1     -12.998  12.277  71.131  1.00  0.00    -0.138 A  
HETATM   24  N   UNL     1     -13.557  12.272  72.356  1.00  0.00    -0.289 NA 
HETATM   25  C   UNL     1     -14.094  13.415  72.811  1.00  0.00     0.180 A  
HETATM   26  C   UNL     1     -14.122  14.577  72.085  1.00  0.00    -0.616 A  
HETATM   27  C   UNL     1     -13.545  14.495  70.846  1.00  0.00    -0.145 A  
HETATM   28  N   UNL     1     -12.976  13.378  70.360  1.00  0.00     0.064 NA 
ENDBRANCH  20  23
ENDBRANCH  16  17
ENDBRANCH  15  16
ENDBRANCH  14  15
ENDBRANCH  13  14
ENDBRANCH   9  13
TORSDOF 6
ENDMDL
MODEL      217
REMARK 921   NORMALIZED FREE ENERGY PREDICTED BY IDOCK:    2.62 KCAL/MOL
REMARK 922        TOTAL FREE ENERGY PREDICTED BY IDOCK:    2.56 KCAL/MOL
REMARK 923 INTER-LIGAND FREE ENERGY PREDICTED BY IDOCK:    1.07 KCAL/MOL
REMARK 924 INTRA-LIGAND FREE ENERGY PREDICTED BY IDOCK:    1.49 KCAL/MOL
REMARK 927      BINDING AFFINITY PREDICTED BY RF-SCORE:    0.00 PKD
ROOT
HETATM    1  O   UNL     1     -11.201  16.191  67.848  1.00  0.00    -0.325 OA 
HETATM    2  C   UNL     1     -11.143  15.352  68.744  1.00  0.00    -0.283 C  
HETATM    3  C   UNL     1     -12.388  14.836  69.416  1.00  0.00    -0.184 C  
HETATM    4  C   UNL     1     -12.245  14.710  70.937  1.00  0.00    -0.391 C  
HETATM    5  C   UNL     1     -10.915  14.042  71.286  1.00  0.00     1.861 C  
HETATM    6  C   UNL     1     -13.428  13.873  71.484  1.00  0.00    -0.383 C  
HETATM    7  C   UNL     1      -9.754  14.633  70.528  1.00  0.00     1.358 C  
HETATM    8  C   UNL     1     -14.134  14.752  72.506  1.00  0.00    -0.459 C  
HETATM    9  N   UNL     1      -9.980  14.736  69.170  1.00  0.00    -0.210 N  
HETATM   10  C   UNL     1     -13.836  16.167  72.048  1.00  0.00     0.480 C  
HETATM   11  O   UNL     1      -8.701  14.924  71.088  1.00  0.00     2.198 OA 
HETATM   12  C   UNL     1     -12.377  16.088  71.623  1.00  0.00    -0.472 C  
ENDROOT
BRANCH   9  13
HETATM   13  C   UNL     1      -8.824  14.816  68.298  1.00  0.00    -0.179 C  
BRANCH  13  14
HETATM   14  C   UNL     1      -9.151  14.182  66.941  1.00  0.00    -0.260 C  
BRANCH  14  15
HETATM   15  C   UNL     1      -9.534  12.712  67.054  1.00  0.00    -0.220 C  
BRANCH  15  16
HETATM   16  C   UNL     1      -9.231  11.900  65.790  1.00  0.00    -0.103 C  
BRANCH  16  17
HETATM   17  N   UNL     1      -8.442  10.678  66.043  1.00  0.00    -0.160 NA 
HETATM   18  C   UNL     1      -7.051  10.979  66.468  1.00  0.00    -0.136 C  
HETATM   19  C   UNL     1      -6.955  11.767  67.793  1.00  0.00    -0.094 C  
HETATM   20  N   UNL     1      -7.701  11.083  68.853  1.00  0.00    -0.133 NA 
HETATM   21  C   UNL     1      -9.061   9.881  67.134  1.00  0.00    -0.138 C  
HETATM   22  C   UNL     1      -9.028  10.555  68.525  1.00  0.00    -0.147 C  
BRANCH  20  23
HETATM   23  C   UNL     1      -6.968  10.517  69.868  1.00  0.00    -0.150 A  
HETATM   24  N   UNL     1      -5.967  11.239  70.407  1.00  0.00    -0.187 NA 
HETATM   25  C   UNL     1      -5.294  10.711  71.443  1.00  0.00    -0.025 A  
HETATM   26  C   UNL     1      -5.557   9.470  71.961  1.00  0.00    -0.024 A  
HETATM   27  C   UNL     1      -6.580   8.796  71.348  1.00  0.00    -0.078 A  
HETATM   28  N   UNL     1      -7.295   9.295  70.324  1.00  0.00    -0.085 NA 
ENDBRANCH  20  23
ENDBRANCH  16  17
ENDBRANCH  15  16
ENDBRANCH  14  15
ENDBRANCH  13  14
ENDBRANCH   9  13
TORSDOF 6
ENDMDL
MODEL      218
REMARK 921   NORMALIZED FREE ENERGY PREDICTED BY IDOCK:    4.70 KCAL/MOL
REMARK 922        TOTAL FREE ENERGY PREDICTED BY IDOCK:    5.38 KCAL/MOL
REMARK 923 INTER-LIGAND FREE ENERGY PREDICTED BY IDOCK:    3.87 KCAL/MOL
REMARK 924 INTRA-LIGAND FREE ENERGY PREDICTED BY IDOCK:    1.51 KCAL/MOL
REMARK 927      BINDING AFFINITY PREDICTED BY RF-SCORE:    0.00 PKD
ROOT
HETATM    1  O   UNL     1      -9.326  10.697  69.064  1.00  0.00    -0.184 OA 
HETATM    2  C   UNL     1      -8.113  10.517  68.980  1.00  0.00    -0.143 C  
HETATM    3  C   UNL     1      -7.307  11.125  67.863  1.00  0.00    -0.092 C  
HETATM    4  C   UNL     1      -6.273  10.161  67.270  1.00  0.00    -0.059 C  
HETATM    5  C   UNL     1      -5.516   9.447  68.389  1.00  0.00    -0.037 C  
HETATM    6  C   UNL     1      -5.289  10.965  66.383  1.00  0.00    -0.099 C  
HETATM    7  C   UNL     1      -6.436   8.906  69.455  1.00  0.00    -0.044 C  
HETATM    8  C   UNL     1      -5.364  10.347  64.995  1.00  0.00    -0.133 C  
HETATM    9  N   UNL     1      -7.353   9.833  69.911  1.00  0.00    -0.115 N  
HETATM   10  C   UNL     1      -6.759   9.755  64.927  1.00  0.00    -0.112 C  
HETATM   11  O   UNL     1      -6.312   7.767  69.895  1.00  0.00    -0.030 OA 
HETATM   12  C   UNL     1      -6.943   9.151  66.312  1.00  0.00    -0.086 C  
ENDROOT
BRANCH   9  13
HETATM   13  C   UNL     1      -7.938   9.614  71.220  1.00  0.00     0.672 C  
BRANCH  13  14
HETATM   14  C   UNL     1      -7.283  10.546  72.246  1.00  0.00     4.606 C  
BRANCH  14  15
HETATM   15  C   UNL     1      -6.255   9.835  73.116  1.00  0.00     0.867 C  
BRANCH  15  16
HETATM   16  C   UNL     1      -6.287   8.308  72.978  1.00  0.00    -0.089 C  
BRANCH  16  17
HETATM   17  N   UNL     1      -7.551   7.697  73.434  1.00  0.00    -0.102 NA 
HETATM   18  C   UNL     1      -8.386   7.212  72.306  1.00  0.00    -0.109 C  
HETATM   19  C   UNL     1      -7.718   6.104  71.461  1.00  0.00    -0.101 C  
HETATM   20  N   UNL     1      -7.284   4.997  72.319  1.00  0.00    -0.086 NA 
HETATM   21  C   UNL     1      -7.275   6.521  74.300  1.00  0.00    -0.091 C  
HETATM   22  C   UNL     1      -6.608   5.329  73.576  1.00  0.00    -0.069 C  
BRANCH  20  23
HETATM   23  C   UNL     1      -7.961   3.808  72.196  1.00  0.00    -0.072 A  
HETATM   24  N   UNL     1      -8.900   3.514  73.116  1.00  0.00    -0.092 NA 
HETATM   25  C   UNL     1      -9.607   2.383  72.958  1.00  0.00    -0.091 A  
HETATM   26  C   UNL     1      -9.407   1.505  71.925  1.00  0.00    -0.149 A  
HETATM   27  C   UNL     1      -8.426   1.871  71.042  1.00  0.00    -0.050 A  
HETATM   28  N   UNL     1      -7.710   3.005  71.148  1.00  0.00    -0.043 NA 
ENDBRANCH  20  23
ENDBRANCH  16  17
ENDBRANCH  15  16
ENDBRANCH  14  15
ENDBRANCH  13  14
ENDBRANCH   9  13
TORSDOF 6
ENDMDL
MODEL      219
REMARK 921   NORMALIZED FREE ENERGY PREDICTED BY IDOCK:    4.94 KCAL/MOL
REMARK 922        TOTAL FREE ENERGY PREDICTED BY IDOCK:    5.69 KCAL/MOL
REMARK 923 INTER-LIGAND FREE ENERGY PREDICTED BY IDOCK:    1.11 KCAL/MOL
REMARK 924 INTRA-LIGAND FREE ENERGY PREDICTED BY IDOCK:    4.58 KCAL/MOL
REMARK 927      BINDING AFFINITY PREDICTED BY RF-SCORE:    0.00 PKD
ROOT
HETATM    1  O   UNL     1      -8.797  16.785  65.067  1.00  0.00     1.177 OA 
HETATM    2  C   UNL     1      -8.684  16.521  66.261  1.00  0.00    -0.333 C  
HETATM    3  C   UNL     1      -7.332  16.359  66.904  1.00  0.00    -0.269 C  
HETATM    4  C   UNL     1      -7.261  15.172  67.871  1.00  0.00    -0.158 C  
HETATM    5  C   UNL     1      -8.489  15.160  68.780  1.00  0.00    -0.180 C  
HETATM    6  C   UNL     1      -5.967  15.289  68.714  1.00  0.00    -0.088 C  
HETATM    7  C   UNL     1      -9.775  15.357  68.018  1.00  0.00    -0.207 C  
HETATM    8  C   UNL     1      -5.183  14.008  68.473  1.00  0.00    -0.098 C  
HETATM    9  N   UNL     1      -9.740  16.430  67.150  1.00  0.00    -0.235 N  
HETATM   10  C   UNL     1      -5.624  13.558  67.093  1.00  0.00     0.648 C  
HETATM   11  O   UNL     1     -10.759  14.651  68.221  1.00  0.00    -0.232 OA 
HETATM   12  C   UNL     1      -7.119  13.838  67.103  1.00  0.00     0.267 C  
ENDROOT
BRANCH   9  13
HETATM   13  C   UNL     1     -11.006  17.010  66.744  1.00  0.00     0.150 C  
BRANCH  13  14
HETATM   14  C   UNL     1     -11.798  17.451  67.981  1.00  0.00     1.441 C  
BRANCH  14  15
HETATM   15  C   UNL     1     -11.423  16.665  69.231  1.00  0.00     0.091 C  
BRANCH  15  16
HETATM   16  C   UNL     1     -12.588  15.862  69.821  1.00  0.00     0.239 C  
BRANCH  16  17
HETATM   17  N   UNL     1     -12.289  15.258  71.135  1.00  0.00    -0.327 NA 
HETATM   18  C   UNL     1     -13.417  14.446  71.656  1.00  0.00    -0.372 C  
HETATM   19  C   UNL     1     -13.786  13.238  70.766  1.00  0.00     0.934 C  
HETATM   20  N   UNL     1     -12.604  12.409  70.510  1.00  0.00    -0.154 NA 
HETATM   21  C   UNL     1     -11.117  14.350  71.031  1.00  0.00     0.499 C  
HETATM   22  C   UNL     1     -11.352  13.089  70.168  1.00  0.00     0.227 C  
BRANCH  20  23
HETATM   23  C   UNL     1     -12.573  11.166  71.094  1.00  0.00    -0.409 A  
HETATM   24  N   UNL     1     -13.687  10.727  71.712  1.00  0.00    -0.011 NA 
HETATM   25  C   UNL     1     -13.677   9.487  72.225  1.00  0.00    -0.371 A  
HETATM   26  C   UNL     1     -12.589   8.656  72.174  1.00  0.00    -0.451 A  
HETATM   27  C   UNL     1     -11.494   9.183  71.542  1.00  0.00    -0.367 A  
HETATM   28  N   UNL     1     -11.466  10.410  70.993  1.00  0.00    -0.296 NA 
ENDBRANCH  20  23
ENDBRANCH  16  17
ENDBRANCH  15  16
ENDBRANCH  14  15
ENDBRANCH  13  14
ENDBRANCH   9  13
TORSDOF 6
ENDMDL
MODEL      220
REMARK 921   NORMALIZED FREE ENERGY PREDICTED BY IDOCK:    6.51 KCAL/MOL
REMARK 922        TOTAL FREE ENERGY PREDICTED BY IDOCK:    7.83 KCAL/MOL
REMARK 923 INTER-LIGAND FREE ENERGY PREDICTED BY IDOCK:   -1.93 KCAL/MOL
REMARK 924 INTRA-LIGAND FREE ENERGY PREDICTED BY IDOCK:    9.76 KCAL/MOL
REMARK 927      BINDING AFFINITY PREDICTED BY RF-SCORE:    0.00 PKD
ROOT
HETATM    1  O   UNL     1      -9.584  12.596  68.607  1.00  0.00    -0.146 OA 
HETATM    2  C   UNL     1      -9.732  11.472  68.133  1.00  0.00    -0.192 C  
HETATM    3  C   UNL     1     -10.622  10.453  68.796  1.00  0.00    -0.232 C  
HETATM    4  C   UNL     1     -10.014   9.047  68.825  1.00  0.00    -0.194 C  
HETATM    5  C   UNL     1      -9.426   8.700  67.457  1.00  0.00    -0.181 C  
HETATM    6  C   UNL     1     -11.118   8.031  69.210  1.00  0.00     0.128 C  
HETATM    7  C   UNL     1      -8.576   9.810  66.894  1.00  0.00    -0.124 C  
HETATM    8  C   UNL     1     -10.622   7.317  70.459  1.00  0.00    -0.237 C  
HETATM    9  N   UNL     1      -9.191  11.046  66.933  1.00  0.00    -0.154 N  
HETATM   10  C   UNL     1      -9.698   8.322  71.119  1.00  0.00    -0.209 C  
HETATM   11  O   UNL     1      -7.474   9.591  66.399  1.00  0.00    -0.095 OA 
HETATM   12  C   UNL     1      -8.950   8.926  69.939  1.00  0.00    -0.160 C  
ENDROOT
BRANCH   9  13
HETATM   13  C   UNL     1      -8.716  12.065  66.017  1.00  0.00     0.119 C  
BRANCH  13  14
HETATM   14  C   UNL     1      -9.901  12.887  65.494  1.00  0.00    -0.159 C  
BRANCH  14  15
HETATM   15  C   UNL     1     -11.116  12.817  66.409  1.00  0.00    -0.320 C  
BRANCH  15  16
HETATM   16  C   UNL     1     -12.148  13.920  66.143  1.00  0.00    -0.448 C  
BRANCH  16  17
HETATM   17  N   UNL     1     -11.559  15.269  66.031  1.00  0.00    -0.091 NA 
HETATM   18  C   UNL     1     -11.598  16.013  67.316  1.00  0.00     0.304 C  
HETATM   19  C   UNL     1     -10.791  15.347  68.453  1.00  0.00    -0.268 C  
HETATM   20  N   UNL     1      -9.413  15.093  68.023  1.00  0.00    -0.197 NA 
HETATM   21  C   UNL     1     -10.131  15.179  65.631  1.00  0.00    -0.363 C  
HETATM   22  C   UNL     1      -9.204  14.532  66.686  1.00  0.00    -0.266 C  
BRANCH  20  23
HETATM   23  C   UNL     1      -8.426  15.844  68.616  1.00  0.00    -0.200 A  
HETATM   24  N   UNL     1      -7.740  16.711  67.848  1.00  0.00    -0.159 NA 
HETATM   25  C   UNL     1      -6.822  17.491  68.440  1.00  0.00    -0.197 A  
HETATM   26  C   UNL     1      -6.531  17.433  69.778  1.00  0.00    -0.073 A  
HETATM   27  C   UNL     1      -7.263  16.516  70.486  1.00  0.00     2.027 A  
HETATM   28  N   UNL     1      -8.209  15.732  69.938  1.00  0.00     0.152 NA 
ENDBRANCH  20  23
ENDBRANCH  16  17
ENDBRANCH  15  16
ENDBRANCH  14  15
ENDBRANCH  13  14
ENDBRANCH   9  13
TORSDOF 6
ENDMDL
MODEL      221
REMARK 921   NORMALIZED FREE ENERGY PREDICTED BY IDOCK:    7.51 KCAL/MOL
REMARK 922        TOTAL FREE ENERGY PREDICTED BY IDOCK:    9.17 KCAL/MOL
REMARK 923 INTER-LIGAND FREE ENERGY PREDICTED BY IDOCK:    2.02 KCAL/MOL
REMARK 924 INTRA-LIGAND FREE ENERGY PREDICTED BY IDOCK:    7.15 KCAL/MOL
REMARK 927      BINDING AFFINITY PREDICTED BY RF-SCORE:    0.00 PKD
ROOT
HETATM    1  O   UNL     1      -9.620   5.492  69.834  1.00  0.00    -0.149 OA 
HETATM    2  C   UNL     1      -9.345   6.425  70.585  1.00  0.00    -0.162 C  
HETATM    3  C   UNL     1      -7.918   6.745  70.944  1.00  0.00    -0.106 C  
HETATM    4  C   UNL     1      -7.729   7.077  72.429  1.00  0.00    -0.094 C  
HETATM    5  C   UNL     1      -8.817   8.045  72.894  1.00  0.00    -0.287 C  
HETATM    6  C   UNL     1      -6.327   7.707  72.627  1.00  0.00    -0.060 C  
HETATM    7  C   UNL     1     -10.194   7.624  72.448  1.00  0.00    -0.228 C  
HETATM    8  C   UNL     1      -5.604   6.828  73.636  1.00  0.00    -0.050 C  
HETATM    9  N   UNL     1     -10.266   7.316  71.104  1.00  0.00    -0.191 N  
HETATM   10  C   UNL     1      -6.241   5.462  73.462  1.00  0.00    -0.056 C  
HETATM   11  O   UNL     1     -11.150   7.627  73.219  1.00  0.00    -0.382 OA 
HETATM   12  C   UNL     1      -7.716   5.793  73.287  1.00  0.00    -0.099 C  
ENDROOT
BRANCH   9  13
HETATM   13  C   UNL     1     -11.568   7.376  70.467  1.00  0.00    -0.229 C  
BRANCH  13  14
HETATM   14  C   UNL     1     -11.494   8.256  69.214  1.00  0.00     0.610 C  
BRANCH  14  15
HETATM   15  C   UNL     1     -12.108   7.589  67.989  1.00  0.00     3.207 C  
BRANCH  15  16
HETATM   16  C   UNL     1     -11.076   6.909  67.081  1.00  0.00    -0.292 C  
BRANCH  16  17
HETATM   17  N   UNL     1     -10.007   7.814  66.614  1.00  0.00    -0.243 NA 
HETATM   18  C   UNL     1     -10.523   8.899  65.741  1.00  0.00     1.085 C  
HETATM   19  C   UNL     1     -11.532   9.840  66.437  1.00  0.00     1.895 C  
HETATM   20  N   UNL     1     -10.961  10.377  67.676  1.00  0.00    -0.307 NA 
HETATM   21  C   UNL     1      -9.346   8.472  67.771  1.00  0.00    -0.137 C  
HETATM   22  C   UNL     1     -10.246   9.451  68.559  1.00  0.00    -0.199 C  
BRANCH  20  23
HETATM   23  C   UNL     1     -10.659  11.717  67.696  1.00  0.00    -0.203 A  
HETATM   24  N   UNL     1     -11.558  12.578  67.183  1.00  0.00    -0.350 NA 
HETATM   25  C   UNL     1     -11.291  13.892  67.262  1.00  0.00    -0.323 A  
HETATM   26  C   UNL     1     -10.143  14.398  67.814  1.00  0.00    -0.226 A  
HETATM   27  C   UNL     1      -9.276  13.455  68.300  1.00  0.00    -0.198 A  
HETATM   28  N   UNL     1      -9.513  12.132  68.264  1.00  0.00    -0.207 NA 
ENDBRANCH  20  23
ENDBRANCH  16  17
ENDBRANCH  15  16
ENDBRANCH  14  15
ENDBRANCH  13  14
ENDBRANCH   9  13
TORSDOF 6
ENDMDL
MODEL      222
REMARK 921   NORMALIZED FREE ENERGY PREDICTED BY IDOCK:    7.86 KCAL/MOL
REMARK 922        TOTAL FREE ENERGY PREDICTED BY IDOCK:    9.65 KCAL/MOL
REMARK 923 INTER-LIGAND FREE ENERGY PREDICTED BY IDOCK:    8.78 KCAL/MOL
REMARK 924 INTRA-LIGAND FREE ENERGY PREDICTED BY IDOCK:    0.87 KCAL/MOL
REMARK 927      BINDING AFFINITY PREDICTED BY RF-SCORE:    0.00 PKD
ROOT
HETATM    1  O   UNL     1     -10.811   9.772  70.880  1.00  0.00    -0.310 OA 
HETATM    2  C   UNL     1     -11.274   8.806  71.483  1.00  0.00    -0.307 C  
HETATM    3  C   UNL     1     -10.395   7.903  72.309  1.00  0.00    -0.314 C  
HETATM    4  C   UNL     1     -10.719   6.416  72.128  1.00  0.00    -0.259 C  
HETATM    5  C   UNL     1     -12.230   6.195  72.192  1.00  0.00    -0.202 C  
HETATM    6  C   UNL     1     -10.009   5.610  73.244  1.00  0.00    -0.191 C  
HETATM    7  C   UNL     1     -12.995   7.178  71.342  1.00  0.00    -0.368 C  
HETATM    8  C   UNL     1      -9.118   4.599  72.538  1.00  0.00    -0.139 C  
HETATM    9  N   UNL     1     -12.619   8.491  71.548  1.00  0.00    -0.314 N  
HETATM   10  C   UNL     1      -8.800   5.251  71.206  1.00  0.00    -0.148 C  
HETATM   11  O   UNL     1     -13.900   6.817  70.596  1.00  0.00     0.542 OA 
HETATM   12  C   UNL     1     -10.128   5.877  70.806  1.00  0.00    -0.253 C  
ENDROOT
BRANCH   9  13
HETATM   13  C   UNL     1     -13.566   9.528  71.186  1.00  0.00    -0.169 C  
BRANCH  13  14
HETATM   14  C   UNL     1     -12.824  10.715  70.560  1.00  0.00    -0.356 C  
BRANCH  14  15
HETATM   15  C   UNL     1     -13.764  11.717  69.903  1.00  0.00     3.508 C  
BRANCH  15  16
HETATM   16  C   UNL     1     -13.052  12.707  68.973  1.00  0.00     2.356 C  
BRANCH  16  17
HETATM   17  N   UNL     1     -13.006  14.086  69.497  1.00  0.00     0.505 NA 
HETATM   18  C   UNL     1     -11.622  14.532  69.798  1.00  0.00    -0.295 C  
HETATM   19  C   UNL     1     -10.691  14.569  68.565  1.00  0.00    -0.250 C  
HETATM   20  N   UNL     1     -11.290  15.371  67.494  1.00  0.00    -0.308 NA 
HETATM   21  C   UNL     1     -13.555  15.038  68.497  1.00  0.00     5.001 C  
HETATM   22  C   UNL     1     -12.714  15.177  67.207  1.00  0.00     1.588 C  
BRANCH  20  23
HETATM   23  C   UNL     1     -10.687  16.570  67.199  1.00  0.00    -0.220 A  
HETATM   24  N   UNL     1      -9.376  16.706  67.474  1.00  0.00    -0.218 NA 
HETATM   25  C   UNL     1      -8.773  17.853  67.125  1.00  0.00    -0.243 A  
HETATM   26  C   UNL     1      -9.426  18.899  66.527  1.00  0.00    -0.361 A  
HETATM   27  C   UNL     1     -10.759  18.686  66.295  1.00  0.00    -0.225 A  
HETATM   28  N   UNL     1     -11.399  17.544  66.606  1.00  0.00     0.729 NA 
ENDBRANCH  20  23
ENDBRANCH  16  17
ENDBRANCH  15  16
ENDBRANCH  14  15
ENDBRANCH  13  14
ENDBRANCH   9  13
TORSDOF 6
ENDMDL
MODEL      223
REMARK 921   NORMALIZED FREE ENERGY PREDICTED BY IDOCK:    8.24 KCAL/MOL
REMARK 922        TOTAL FREE ENERGY PREDICTED BY IDOCK:   10.16 KCAL/MOL
REMARK 923 INTER-LIGAND FREE ENERGY PREDICTED BY IDOCK:    2.16 KCAL/MOL
REMARK 924 INTRA-LIGAND FREE ENERGY PREDICTED BY IDOCK:    8.00 KCAL/MOL
REMARK 927      BINDING AFFINITY PREDICTED BY RF-SCORE:    0.00 PKD
ROOT
HETATM    1  O   UNL     1     -11.773  17.116  71.483  1.00  0.00     0.560 OA 
HETATM    2  C   UNL     1     -11.377  16.290  70.663  1.00  0.00    -0.297 C  
HETATM    3  C   UNL     1     -12.265  15.168  70.192  1.00  0.00    -0.395 C  
HETATM    4  C   UNL     1     -11.538  13.823  70.096  1.00  0.00    -0.230 C  
HETATM    5  C   UNL     1     -10.186  14.003  69.405  1.00  0.00     0.176 C  
HETATM    6  C   UNL     1     -12.422  12.830  69.300  1.00  0.00     0.275 C  
HETATM    7  C   UNL     1      -9.409  15.173  69.952  1.00  0.00     0.099 C  
HETATM    8  C   UNL     1     -12.659  11.640  70.217  1.00  0.00    -0.159 C  
HETATM    9  N   UNL     1     -10.149  16.336  70.030  1.00  0.00    -0.021 N  
HETATM   10  C   UNL     1     -12.546  12.220  71.614  1.00  0.00    -0.198 C  
HETATM   11  O   UNL     1      -8.216  15.080  70.231  1.00  0.00     0.340 OA 
HETATM   12  C   UNL     1     -11.373  13.181  71.492  1.00  0.00     2.908 C  
ENDROOT
BRANCH   9  13
HETATM   13  C   UNL     1      -9.427  17.593  70.064  1.00  0.00     1.566 C  
BRANCH  13  14
HETATM   14  C   UNL     1     -10.150  18.632  69.197  1.00  0.00    -0.182 C  
BRANCH  14  15
HETATM   15  C   UNL     1      -9.195  19.631  68.557  1.00  0.00    -0.378 C  
BRANCH  15  16
HETATM   16  C   UNL     1      -9.820  20.421  67.401  1.00  0.00    -0.446 C  
BRANCH  16  17
HETATM   17  N   UNL     1      -9.974  19.636  66.160  1.00  0.00    -0.445 NA 
HETATM   18  C   UNL     1      -8.800  18.768  65.889  1.00  0.00     0.203 C  
HETATM   19  C   UNL     1      -8.542  17.702  66.976  1.00  0.00    -0.237 C  
HETATM   20  N   UNL     1      -9.750  16.907  67.212  1.00  0.00    -0.246 NA 
HETATM   21  C   UNL     1     -11.156  18.740  66.258  1.00  0.00     0.364 C  
HETATM   22  C   UNL     1     -11.028  17.616  67.312  1.00  0.00    -0.017 C  
BRANCH  20  23
HETATM   23  C   UNL     1      -9.723  15.593  66.808  1.00  0.00    -0.241 A  
HETATM   24  N   UNL     1      -8.551  14.933  66.873  1.00  0.00    -0.240 NA 
HETATM   25  C   UNL     1      -8.539  13.632  66.542  1.00  0.00     0.214 A  
HETATM   26  C   UNL     1      -9.650  12.950  66.120  1.00  0.00    -0.215 A  
HETATM   27  C   UNL     1     -10.797  13.696  66.069  1.00  0.00    -0.275 A  
HETATM   28  N   UNL     1     -10.860  14.994  66.414  1.00  0.00    -0.322 NA 
ENDBRANCH  20  23
ENDBRANCH  16  17
ENDBRANCH  15  16
ENDBRANCH  14  15
ENDBRANCH  13  14
ENDBRANCH   9  13
TORSDOF 6
ENDMDL
MODEL      224
REMARK 921   NORMALIZED FREE ENERGY PREDICTED BY IDOCK:    8.78 KCAL/MOL
REMARK 922        TOTAL FREE ENERGY PREDICTED BY IDOCK:   10.89 KCAL/MOL
REMARK 923 INTER-LIGAND FREE ENERGY PREDICTED BY IDOCK:    3.89 KCAL/MOL
REMARK 924 INTRA-LIGAND FREE ENERGY PREDICTED BY IDOCK:    7.00 KCAL/MOL
REMARK 927      BINDING AFFINITY PREDICTED BY RF-SCORE:    0.00 PKD
ROOT
HETATM    1  O   UNL     1     -10.960  16.232  68.236  1.00  0.00    -0.323 OA 
HETATM    2  C   UNL     1     -10.932  15.436  69.172  1.00  0.00    -0.252 C  
HETATM    3  C   UNL     1     -12.184  14.757  69.661  1.00  0.00    -0.310 C  
HETATM    4  C   UNL     1     -12.279  14.694  71.189  1.00  0.00    -0.405 C  
HETATM    5  C   UNL     1     -10.944  14.242  71.781  1.00  0.00     1.945 C  
HETATM    6  C   UNL     1     -13.405  13.705  71.581  1.00  0.00    -0.424 C  
HETATM    7  C   UNL     1      -9.770  14.981  71.190  1.00  0.00     2.022 C  
HETATM    8  C   UNL     1     -14.390  14.494  72.431  1.00  0.00    -0.375 C  
HETATM    9  N   UNL     1      -9.780  15.013  69.810  1.00  0.00    -0.066 N  
HETATM   10  C   UNL     1     -14.225  15.925  71.955  1.00  0.00    -0.086 C  
HETATM   11  O   UNL     1      -8.878  15.442  71.896  1.00  0.00     4.210 OA 
HETATM   12  C   UNL     1     -12.720  16.055  71.774  1.00  0.00    -0.338 C  
ENDROOT
BRANCH   9  13
HETATM   13  C   UNL     1      -8.519  15.242  69.132  1.00  0.00    -0.234 C  
BRANCH  13  14
HETATM   14  C   UNL     1      -8.119  16.717  69.260  1.00  0.00    -0.001 C  
BRANCH  14  15
HETATM   15  C   UNL     1      -9.068  17.651  68.519  1.00  0.00    -0.279 C  
BRANCH  15  16
HETATM   16  C   UNL     1      -8.354  18.796  67.790  1.00  0.00    -0.271 C  
BRANCH  16  17
HETATM   17  N   UNL     1      -8.523  18.764  66.324  1.00  0.00    -0.416 NA 
HETATM   18  C   UNL     1      -8.078  17.479  65.730  1.00  0.00     0.185 C  
HETATM   19  C   UNL     1      -8.871  16.249  66.224  1.00  0.00    -0.331 C  
HETATM   20  N   UNL     1     -10.310  16.455  66.033  1.00  0.00    -0.342 NA 
HETATM   21  C   UNL     1      -9.956  18.929  65.965  1.00  0.00    -0.271 C  
HETATM   22  C   UNL     1     -10.869  17.759  66.399  1.00  0.00     0.063 C  
BRANCH  20  23
HETATM   23  C   UNL     1     -10.930  15.685  65.079  1.00  0.00    -0.431 A  
HETATM   24  N   UNL     1     -10.532  14.406  64.938  1.00  0.00    -0.434 NA 
HETATM   25  C   UNL     1     -11.183  13.635  64.053  1.00  0.00    -0.164 A  
HETATM   26  C   UNL     1     -12.214  14.088  63.271  1.00  0.00     0.329 A  
HETATM   27  C   UNL     1     -12.548  15.402  63.467  1.00  0.00     1.308 A  
HETATM   28  N   UNL     1     -11.940  16.203  64.358  1.00  0.00    -0.419 NA 
ENDBRANCH  20  23
ENDBRANCH  16  17
ENDBRANCH  15  16
ENDBRANCH  14  15
ENDBRANCH  13  14
ENDBRANCH   9  13
TORSDOF 6
ENDMDL
MODEL      225
REMARK 921   NORMALIZED FREE ENERGY PREDICTED BY IDOCK:    9.24 KCAL/MOL
REMARK 922        TOTAL FREE ENERGY PREDICTED BY IDOCK:   11.50 KCAL/MOL
REMARK 923 INTER-LIGAND FREE ENERGY PREDICTED BY IDOCK:    6.80 KCAL/MOL
REMARK 924 INTRA-LIGAND FREE ENERGY PREDICTED BY IDOCK:    4.70 KCAL/MOL
REMARK 927      BINDING AFFINITY PREDICTED BY RF-SCORE:    0.00 PKD
ROOT
HETATM    1  O   UNL     1      -7.997  10.847  69.833  1.00  0.00     0.158 OA 
HETATM    2  C   UNL     1      -8.499  11.791  69.226  1.00  0.00     0.543 C  
HETATM    3  C   UNL     1      -9.835  11.662  68.543  1.00  0.00    -0.196 C  
HETATM    4  C   UNL     1      -9.871  12.318  67.158  1.00  0.00    -0.207 C  
HETATM    5  C   UNL     1      -9.229  13.704  67.215  1.00  0.00    -0.232 C  
HETATM    6  C   UNL     1     -11.344  12.425  66.692  1.00  0.00    -0.394 C  
HETATM    7  C   UNL     1      -7.911  13.701  67.946  1.00  0.00    -0.159 C  
HETATM    8  C   UNL     1     -11.429  11.676  65.371  1.00  0.00    -0.170 C  
HETATM    9  N   UNL     1      -7.963  13.065  69.171  1.00  0.00     0.321 N  
HETATM   10  C   UNL     1     -10.318  10.647  65.456  1.00  0.00    -0.297 C  
HETATM   11  O   UNL     1      -6.923  14.273  67.494  1.00  0.00    -0.180 OA 
HETATM   12  C   UNL     1      -9.181  11.424  66.103  1.00  0.00    -0.223 C  
ENDROOT
BRANCH   9  13
HETATM   13  C   UNL     1      -6.950  13.406  70.151  1.00  0.00     0.672 C  
BRANCH  13  14
HETATM   14  C   UNL     1      -7.371  14.665  70.919  1.00  0.00     1.355 C  
BRANCH  14  15
HETATM   15  C   UNL     1      -6.190  15.552  71.289  1.00  0.00     0.810 C  
BRANCH  15  16
HETATM   16  C   UNL     1      -5.933  16.680  70.283  1.00  0.00    -0.052 C  
BRANCH  16  17
HETATM   17  N   UNL     1      -7.103  17.007  69.445  1.00  0.00    -0.184 NA 
HETATM   18  C   UNL     1      -7.076  18.409  68.956  1.00  0.00    -0.245 C  
HETATM   19  C   UNL     1      -5.866  18.737  68.053  1.00  0.00    -0.202 C  
HETATM   20  N   UNL     1      -5.781  17.783  66.944  1.00  0.00    -0.136 NA 
HETATM   21  C   UNL     1      -7.138  16.134  68.243  1.00  0.00    -0.128 C  
HETATM   22  C   UNL     1      -5.979  16.363  67.245  1.00  0.00    -0.158 C  
BRANCH  20  23
HETATM   23  C   UNL     1      -6.049  18.262  65.685  1.00  0.00    -0.241 A  
HETATM   24  N   UNL     1      -5.289  17.826  64.663  1.00  0.00     0.267 NA 
HETATM   25  C   UNL     1      -5.594  18.244  63.424  1.00  0.00     1.175 A  
HETATM   26  C   UNL     1      -6.622  19.107  63.150  1.00  0.00     3.044 A  
HETATM   27  C   UNL     1      -7.338  19.514  64.245  1.00  0.00     2.314 A  
HETATM   28  N   UNL     1      -7.083  19.102  65.499  1.00  0.00    -0.455 NA 
ENDBRANCH  20  23
ENDBRANCH  16  17
ENDBRANCH  15  16
ENDBRANCH  14  15
ENDBRANCH  13  14
ENDBRANCH   9  13
TORSDOF 6
ENDMDL
MODEL      226
REMARK 921   NORMALIZED FREE ENERGY PREDICTED BY IDOCK:   10.01 KCAL/MOL
REMARK 922        TOTAL FREE ENERGY PREDICTED BY IDOCK:   12.55 KCAL/MOL
REMARK 923 INTER-LIGAND FREE ENERGY PREDICTED BY IDOCK:   10.08 KCAL/MOL
REMARK 924 INTRA-LIGAND FREE ENERGY PREDICTED BY IDOCK:    2.47 KCAL/MOL
REMARK 927      BINDING AFFINITY PREDICTED BY RF-SCORE:    0.00 PKD
ROOT
HETATM    1  O   UNL     1      -7.167  11.477  66.976  1.00  0.00    -0.130 OA 
HETATM    2  C   UNL     1      -8.086  12.290  67.033  1.00  0.00    -0.141 C  
HETATM    3  C   UNL     1      -9.498  11.902  66.679  1.00  0.00    -0.217 C  
HETATM    4  C   UNL     1     -10.222  12.959  65.838  1.00  0.00    -0.299 C  
HETATM    5  C   UNL     1      -9.990  14.350  66.428  1.00  0.00    -0.305 C  
HETATM    6  C   UNL     1     -11.735  12.629  65.813  1.00  0.00    -0.466 C  
HETATM    7  C   UNL     1      -8.542  14.603  66.761  1.00  0.00    -0.162 C  
HETATM    8  C   UNL     1     -12.114  12.473  64.348  1.00  0.00    -0.500 C  
HETATM    9  N   UNL     1      -7.962  13.588  67.496  1.00  0.00    -0.171 N  
HETATM   10  C   UNL     1     -10.826  12.034  63.677  1.00  0.00    -0.510 C  
HETATM   11  O   UNL     1      -7.982  15.650  66.448  1.00  0.00    -0.168 OA 
HETATM   12  C   UNL     1      -9.773  12.894  64.361  1.00  0.00     0.137 C  
ENDROOT
BRANCH   9  13
HETATM   13  C   UNL     1      -6.781  13.908  68.274  1.00  0.00    -0.109 C  
BRANCH  13  14
HETATM   14  C   UNL     1      -7.180  14.704  69.523  1.00  0.00    -0.131 C  
BRANCH  14  15
HETATM   15  C   UNL     1      -6.635  16.126  69.515  1.00  0.00    -0.200 C  
BRANCH  15  16
HETATM   16  C   UNL     1      -7.113  16.972  70.701  1.00  0.00     2.629 C  
BRANCH  16  17
HETATM   17  N   UNL     1      -8.471  17.525  70.528  1.00  0.00     3.795 NA 
HETATM   18  C   UNL     1      -8.468  19.003  70.394  1.00  0.00     2.300 C  
HETATM   19  C   UNL     1      -7.693  19.521  69.161  1.00  0.00    -0.236 C  
HETATM   20  N   UNL     1      -8.182  18.875  67.940  1.00  0.00    -0.271 NA 
HETATM   21  C   UNL     1      -9.096  16.983  69.293  1.00  0.00     0.066 C  
HETATM   22  C   UNL     1      -8.419  17.430  67.977  1.00  0.00    -0.235 C  
BRANCH  20  23
HETATM   23  C   UNL     1      -8.873  19.662  67.050  1.00  0.00    -0.317 A  
HETATM   24  N   UNL     1     -10.005  20.255  67.472  1.00  0.00    -0.421 NA 
HETATM   25  C   UNL     1     -10.644  21.076  66.623  1.00  0.00     1.788 A  
HETATM   26  C   UNL     1     -10.216  21.321  65.344  1.00  0.00     3.149 A  
HETATM   27  C   UNL     1      -9.065  20.669  64.989  1.00  0.00     1.538 A  
HETATM   28  N   UNL     1      -8.381  19.858  65.814  1.00  0.00    -0.334 NA 
ENDBRANCH  20  23
ENDBRANCH  16  17
ENDBRANCH  15  16
ENDBRANCH  14  15
ENDBRANCH  13  14
ENDBRANCH   9  13
TORSDOF 6
ENDMDL
MODEL      227
REMARK 921   NORMALIZED FREE ENERGY PREDICTED BY IDOCK:   36.41 KCAL/MOL
REMARK 922        TOTAL FREE ENERGY PREDICTED BY IDOCK:   48.21 KCAL/MOL
REMARK 923 INTER-LIGAND FREE ENERGY PREDICTED BY IDOCK:   46.22 KCAL/MOL
REMARK 924 INTRA-LIGAND FREE ENERGY PREDICTED BY IDOCK:    1.99 KCAL/MOL
REMARK 927      BINDING AFFINITY PREDICTED BY RF-SCORE:    0.00 PKD
ROOT
HETATM    1  O   UNL     1      -8.205  11.868  67.528  1.00  0.00    -0.139 OA 
HETATM    2  C   UNL     1      -9.286  12.448  67.458  1.00  0.00    -0.183 C  
HETATM    3  C   UNL     1     -10.546  11.712  67.086  1.00  0.00    -0.269 C  
HETATM    4  C   UNL     1     -11.432  12.489  66.105  1.00  0.00    -0.426 C  
HETATM    5  C   UNL     1     -11.560  13.946  66.552  1.00  0.00    -0.385 C  
HETATM    6  C   UNL     1     -12.827  11.818  66.049  1.00  0.00     3.252 C  
HETATM    7  C   UNL     1     -10.232  14.557  66.919  1.00  0.00    -0.264 C  
HETATM    8  C   UNL     1     -13.061  11.442  64.594  1.00  0.00     2.280 C  
HETATM    9  N   UNL     1      -9.488  13.777  67.783  1.00  0.00    -0.209 N  
HETATM   10  C   UNL     1     -11.665  11.251  64.031  1.00  0.00     0.176 C  
HETATM   11  O   UNL     1      -9.903  15.670  66.520  1.00  0.00    -0.238 OA 
HETATM   12  C   UNL     1     -10.882  12.391  64.664  1.00  0.00    -0.346 C  
ENDROOT
BRANCH   9  13
HETATM   13  C   UNL     1      -8.465  14.434  68.573  1.00  0.00    -0.170 C  
BRANCH  13  14
HETATM   14  C   UNL     1      -9.120  15.345  69.619  1.00  0.00    -0.171 C  
BRANCH  14  15
HETATM   15  C   UNL     1      -8.885  16.824  69.341  1.00  0.00     0.168 C  
BRANCH  15  16
HETATM   16  C   UNL     1      -9.568  17.753  70.351  1.00  0.00     2.616 C  
BRANCH  16  17
HETATM   17  N   UNL     1     -10.997  17.992  70.066  1.00  0.00     1.467 NA 
HETATM   18  C   UNL     1     -11.295  19.427  69.825  1.00  0.00     4.027 C  
HETATM   19  C   UNL     1     -10.565  20.024  68.601  1.00  0.00     0.065 C  
HETATM   20  N   UNL     1     -10.824  19.216  67.405  1.00  0.00    -0.481 NA 
HETATM   21  C   UNL     1     -11.411  17.257  68.843  1.00  0.00     0.577 C  
HETATM   22  C   UNL     1     -10.755  17.758  67.535  1.00  0.00    -0.307 C  
BRANCH  20  23
HETATM   23  C   UNL     1     -11.603  19.782  66.425  1.00  0.00     1.196 A  
HETATM   24  N   UNL     1     -12.467  20.751  66.782  1.00  0.00     5.013 NA 
HETATM   25  C   UNL     1     -13.180  21.350  65.814  1.00  0.00     9.773 A  
HETATM   26  C   UNL     1     -13.090  21.010  64.489  1.00  0.00    10.787 A  
HETATM   27  C   UNL     1     -12.199  20.007  64.213  1.00  0.00     7.753 A  
HETATM   28  N   UNL     1     -11.448  19.397  65.146  1.00  0.00     0.655 NA 
ENDBRANCH  20  23
ENDBRANCH  16  17
ENDBRANCH  15  16
ENDBRANCH  14  15
ENDBRANCH  13  14
ENDBRANCH   9  13
TORSDOF 6
ENDMDL
MODEL      228
REMARK 921   NORMALIZED FREE ENERGY PREDICTED BY IDOCK:   39.56 KCAL/MOL
REMARK 922        TOTAL FREE ENERGY PREDICTED BY IDOCK:   52.46 KCAL/MOL
REMARK 923 INTER-LIGAND FREE ENERGY PREDICTED BY IDOCK:    0.46 KCAL/MOL
REMARK 924 INTRA-LIGAND FREE ENERGY PREDICTED BY IDOCK:   52.00 KCAL/MOL
REMARK 927      BINDING AFFINITY PREDICTED BY RF-SCORE:    0.00 PKD
ROOT
HETATM    1  O   UNL     1      -9.370  16.810  67.092  1.00  0.00    -0.223 OA 
HETATM    2  C   UNL     1      -9.487  15.808  67.794  1.00  0.00    -0.212 C  
HETATM    3  C   UNL     1     -10.825  15.390  68.345  1.00  0.00    -0.268 C  
HETATM    4  C   UNL     1     -10.760  14.932  69.806  1.00  0.00    -0.223 C  
HETATM    5  C   UNL     1      -9.578  13.985  70.008  1.00  0.00     1.614 C  
HETATM    6  C   UNL     1     -12.088  14.220  70.167  1.00  0.00    -0.403 C  
HETATM    7  C   UNL     1      -8.306  14.507  69.389  1.00  0.00     0.167 C  
HETATM    8  C   UNL     1     -12.670  14.980  71.350  1.00  0.00    -0.414 C  
HETATM    9  N   UNL     1      -8.462  14.925  68.082  1.00  0.00    -0.141 N  
HETATM   10  C   UNL     1     -12.119  16.384  71.197  1.00  0.00     0.127 C  
HETATM   11  O   UNL     1      -7.239  14.490  69.997  1.00  0.00    -0.050 OA 
HETATM   12  C   UNL     1     -10.680  16.142  70.764  1.00  0.00     0.125 C  
ENDROOT
BRANCH   9  13
HETATM   13  C   UNL     1      -7.279  14.979  67.246  1.00  0.00    -0.140 C  
BRANCH  13  14
HETATM   14  C   UNL     1      -6.089  15.498  68.062  1.00  0.00    -0.150 C  
BRANCH  14  15
HETATM   15  C   UNL     1      -6.424  16.749  68.863  1.00  0.00    -0.178 C  
BRANCH  15  16
HETATM   16  C   UNL     1      -5.745  18.017  68.332  1.00  0.00    -0.173 C  
BRANCH  16  17
HETATM   17  N   UNL     1      -6.213  18.425  66.993  1.00  0.00    -0.167 NA 
HETATM   18  C   UNL     1      -6.284  17.285  66.045  1.00  0.00     0.031 C  
HETATM   19  C   UNL     1      -7.277  16.178  66.466  1.00  0.00     0.079 C  
HETATM   20  N   UNL     1      -8.604  16.748  66.718  1.00  0.00    -0.212 NA 
HETATM   21  C   UNL     1      -7.581  19.000  67.076  1.00  0.00    -0.228 C  
HETATM   22  C   UNL     1      -8.681  17.993  67.486  1.00  0.00    -0.248 C  
BRANCH  20  23
HETATM   23  C   UNL     1      -9.601  16.427  65.828  1.00  0.00    -0.192 A  
HETATM   24  N   UNL     1     -10.184  15.218  65.936  1.00  0.00    -0.307 NA 
HETATM   25  C   UNL     1     -11.202  14.931  65.109  1.00  0.00    -0.386 A  
HETATM   26  C   UNL     1     -11.661  15.794  64.148  1.00  0.00    -0.079 A  
HETATM   27  C   UNL     1     -11.006  16.996  64.095  1.00  0.00     1.935 A  
HETATM   28  N   UNL     1      -9.998  17.334  64.918  1.00  0.00     0.778 NA 
ENDBRANCH  20  23
ENDBRANCH  16  17
ENDBRANCH  15  16
ENDBRANCH  14  15
ENDBRANCH  13  14
ENDBRANCH   9  13
TORSDOF 6
ENDMDL
MODEL      229
REMARK 921   NORMALIZED FREE ENERGY PREDICTED BY IDOCK:   59.99 KCAL/MOL
REMARK 922        TOTAL FREE ENERGY PREDICTED BY IDOCK:   80.05 KCAL/MOL
REMARK 923 INTER-LIGAND FREE ENERGY PREDICTED BY IDOCK:   25.22 KCAL/MOL
REMARK 924 INTRA-LIGAND FREE ENERGY PREDICTED BY IDOCK:   54.83 KCAL/MOL
REMARK 927      BINDING AFFINITY PREDICTED BY RF-SCORE:    0.00 PKD
ROOT
HETATM    1  O   UNL     1      -5.978   7.160  68.487  1.00  0.00    -0.024 OA 
HETATM    2  C   UNL     1      -7.125   7.543  68.269  1.00  0.00    -0.084 C  
HETATM    3  C   UNL     1      -8.317   6.707  68.654  1.00  0.00    -0.123 C  
HETATM    4  C   UNL     1      -9.409   6.682  67.579  1.00  0.00    -0.126 C  
HETATM    5  C   UNL     1      -9.667   8.095  67.058  1.00  0.00    -0.275 C  
HETATM    6  C   UNL     1     -10.702   6.089  68.192  1.00  0.00    -0.353 C  
HETATM    7  C   UNL     1      -8.393   8.834  66.734  1.00  0.00    -0.108 C  
HETATM    8  C   UNL     1     -11.064   4.882  67.339  1.00  0.00     1.316 C  
HETATM    9  N   UNL     1      -7.455   8.780  67.745  1.00  0.00    -0.092 N  
HETATM   10  C   UNL     1      -9.736   4.415  66.775  1.00  0.00    -0.235 C  
HETATM   11  O   UNL     1      -8.262   9.463  65.688  1.00  0.00    -0.115 OA 
HETATM   12  C   UNL     1      -9.033   5.720  66.429  1.00  0.00    -0.139 C  
ENDROOT
BRANCH   9  13
HETATM   13  C   UNL     1      -6.435   9.811  67.774  1.00  0.00    -0.057 C  
BRANCH  13  14
HETATM   14  C   UNL     1      -5.341   9.433  68.780  1.00  0.00    -0.037 C  
BRANCH  14  15
HETATM   15  C   UNL     1      -5.426   7.978  69.224  1.00  0.00    -0.030 C  
BRANCH  15  16
HETATM   16  C   UNL     1      -6.048   7.799  70.614  1.00  0.00    -0.034 C  
BRANCH  16  17
HETATM   17  N   UNL     1      -6.477   6.415  70.899  1.00  0.00    -0.047 NA 
HETATM   18  C   UNL     1      -7.562   6.354  71.910  1.00  0.00    -0.095 C  
HETATM   19  C   UNL     1      -8.864   7.066  71.479  1.00  0.00    -0.128 C  
HETATM   20  N   UNL     1      -9.316   6.565  70.179  1.00  0.00    -0.158 NA 
HETATM   21  C   UNL     1      -7.002   5.772  69.666  1.00  0.00    -0.063 C  
HETATM   22  C   UNL     1      -8.314   6.388  69.125  1.00  0.00    -0.122 C  
BRANCH  20  23
HETATM   23  C   UNL     1     -10.467   5.815  70.164  1.00  0.00    -0.278 A  
HETATM   24  N   UNL     1     -10.351   4.473  70.156  1.00  0.00    -0.036 NA 
HETATM   25  C   UNL     1     -11.475   3.741  70.209  1.00  0.00     6.918 A  
HETATM   26  C   UNL     1     -12.731   4.287  70.247  1.00  0.00    15.384 A  
HETATM   27  C   UNL     1     -12.763   5.656  70.239  1.00  0.00     4.751 A  
HETATM   28  N   UNL     1     -11.663   6.429  70.211  1.00  0.00    -0.393 NA 
ENDBRANCH  20  23
ENDBRANCH  16  17
ENDBRANCH  15  16
ENDBRANCH  14  15
ENDBRANCH  13  14
ENDBRANCH   9  13
TORSDOF 6
ENDMDL
