MODEL        1
REMARK 921   NORMALIZED FREE ENERGY PREDICTED BY IDOCK:   -5.16 KCAL/MOL
REMARK 922        TOTAL FREE ENERGY PREDICTED BY IDOCK:   -6.86 KCAL/MOL
REMARK 923 INTER-LIGAND FREE ENERGY PREDICTED BY IDOCK:   -6.67 KCAL/MOL
REMARK 924 INTRA-LIGAND FREE ENERGY PREDICTED BY IDOCK:   -0.19 KCAL/MOL
REMARK 927      BINDING AFFINITY PREDICTED BY RF-SCORE:    0.00 PKD
ROOT
HETATM    1  C   UNL     1     -12.933  15.637  73.439  1.00  0.00    -0.559 C  
HETATM    2  S   UNL     1     -13.595  14.682  72.095  1.00  0.00    -0.463 S  
HETATM    3  O   UNL     1     -12.182  14.333  71.362  1.00  0.00    -0.340 OA 
HETATM    4  O   UNL     1     -14.148  13.456  72.628  1.00  0.00    -0.767 OA 
HETATM    5  O   UNL     1     -14.357  15.560  71.234  1.00  0.00    -0.536 OA 
ENDROOT
BRANCH   3   6
HETATM    6  C   UNL     1     -12.257  13.583  70.157  1.00  0.00    -0.330 C  
BRANCH   6   7
HETATM    7  C   UNL     1     -11.923  14.477  68.968  1.00  0.00    -0.334 C  
BRANCH   7   8
HETATM    8  C   UNL     1     -11.269  13.743  67.789  1.00  0.00    -0.312 C  
BRANCH   8   9
HETATM    9  C   UNL     1     -11.455  14.435  66.443  1.00  0.00    -0.360 C  
BRANCH   9  10
HETATM   10  O   UNL     1     -11.019  13.568  65.407  1.00  0.00    -0.284 OA 
HETATM   11  S   UNL     1     -12.119  13.144  64.282  1.00  0.00    -0.421 S  
HETATM   12  O   UNL     1     -12.429  14.311  63.486  1.00  0.00    -0.798 OA 
HETATM   13  O   UNL     1     -13.147  12.348  64.918  1.00  0.00    -0.765 OA 
HETATM   14  C   UNL     1     -11.068  12.072  63.335  1.00  0.00    -0.398 C  
ENDBRANCH   9  10
ENDBRANCH   8   9
ENDBRANCH   7   8
ENDBRANCH   6   7
ENDBRANCH   3   6
TORSDOF 5
ENDMDL
MODEL        2
REMARK 921   NORMALIZED FREE ENERGY PREDICTED BY IDOCK:   -5.06 KCAL/MOL
REMARK 922        TOTAL FREE ENERGY PREDICTED BY IDOCK:   -6.73 KCAL/MOL
REMARK 923 INTER-LIGAND FREE ENERGY PREDICTED BY IDOCK:   -6.60 KCAL/MOL
REMARK 924 INTRA-LIGAND FREE ENERGY PREDICTED BY IDOCK:   -0.13 KCAL/MOL
REMARK 927      BINDING AFFINITY PREDICTED BY RF-SCORE:    0.00 PKD
ROOT
HETATM    1  C   UNL     1     -11.015  12.308  63.366  1.00  0.00    -0.405 C  
HETATM    2  S   UNL     1     -12.278  13.112  64.323  1.00  0.00    -0.388 S  
HETATM    3  O   UNL     1     -11.452  13.217  65.724  1.00  0.00    -0.310 OA 
HETATM    4  O   UNL     1     -12.469  14.449  63.804  1.00  0.00    -0.814 OA 
HETATM    5  O   UNL     1     -13.379  12.191  64.505  1.00  0.00    -0.691 OA 
ENDROOT
BRANCH   3   6
HETATM    6  C   UNL     1     -12.141  13.786  66.829  1.00  0.00    -0.418 C  
BRANCH   6   7
HETATM    7  C   UNL     1     -11.599  13.207  68.132  1.00  0.00    -0.375 C  
BRANCH   7   8
HETATM    8  C   UNL     1     -11.407  14.240  69.251  1.00  0.00    -0.322 C  
BRANCH   8   9
HETATM    9  C   UNL     1     -12.646  14.467  70.110  1.00  0.00    -0.286 C  
BRANCH   9  10
HETATM   10  O   UNL     1     -12.247  14.717  71.450  1.00  0.00    -0.318 OA 
HETATM   11  S   UNL     1     -13.412  14.685  72.588  1.00  0.00    -0.481 S  
HETATM   12  O   UNL     1     -13.867  13.321  72.738  1.00  0.00    -0.690 OA 
HETATM   13  O   UNL     1     -14.326  15.781  72.344  1.00  0.00    -0.514 OA 
HETATM   14  C   UNL     1     -12.382  15.097  73.974  1.00  0.00    -0.591 C  
ENDBRANCH   9  10
ENDBRANCH   8   9
ENDBRANCH   7   8
ENDBRANCH   6   7
ENDBRANCH   3   6
TORSDOF 5
ENDMDL
MODEL        3
REMARK 921   NORMALIZED FREE ENERGY PREDICTED BY IDOCK:   -4.98 KCAL/MOL
REMARK 922        TOTAL FREE ENERGY PREDICTED BY IDOCK:   -6.63 KCAL/MOL
REMARK 923 INTER-LIGAND FREE ENERGY PREDICTED BY IDOCK:   -6.45 KCAL/MOL
REMARK 924 INTRA-LIGAND FREE ENERGY PREDICTED BY IDOCK:   -0.18 KCAL/MOL
REMARK 927      BINDING AFFINITY PREDICTED BY RF-SCORE:    0.00 PKD
ROOT
HETATM    1  C   UNL     1     -12.347  12.025  63.598  1.00  0.00    -0.539 C  
HETATM    2  S   UNL     1     -11.953  13.165  64.902  1.00  0.00    -0.415 S  
HETATM    3  O   UNL     1     -11.921  12.089  66.126  1.00  0.00    -0.581 OA 
HETATM    4  O   UNL     1     -10.610  13.659  64.694  1.00  0.00    -0.398 OA 
HETATM    5  O   UNL     1     -13.080  14.052  65.099  1.00  0.00    -0.776 OA 
ENDROOT
BRANCH   3   6
HETATM    6  C   UNL     1     -11.673  12.608  67.426  1.00  0.00    -0.369 C  
BRANCH   6   7
HETATM    7  C   UNL     1     -11.822  11.500  68.464  1.00  0.00    -0.365 C  
BRANCH   7   8
HETATM    8  C   UNL     1     -12.119  12.000  69.883  1.00  0.00    -0.334 C  
BRANCH   8   9
HETATM    9  C   UNL     1     -12.082  13.517  70.031  1.00  0.00    -0.341 C  
BRANCH   9  10
HETATM   10  O   UNL     1     -12.324  13.862  71.387  1.00  0.00    -0.348 OA 
HETATM   11  S   UNL     1     -12.758  15.401  71.695  1.00  0.00    -0.447 S  
HETATM   12  O   UNL     1     -14.087  15.616  71.166  1.00  0.00    -0.539 OA 
HETATM   13  O   UNL     1     -11.647  16.269  71.366  1.00  0.00    -0.448 OA 
HETATM   14  C   UNL     1     -12.867  15.254  73.461  1.00  0.00    -0.550 C  
ENDBRANCH   9  10
ENDBRANCH   8   9
ENDBRANCH   7   8
ENDBRANCH   6   7
ENDBRANCH   3   6
TORSDOF 5
ENDMDL
MODEL        4
REMARK 921   NORMALIZED FREE ENERGY PREDICTED BY IDOCK:   -4.79 KCAL/MOL
REMARK 922        TOTAL FREE ENERGY PREDICTED BY IDOCK:   -6.38 KCAL/MOL
REMARK 923 INTER-LIGAND FREE ENERGY PREDICTED BY IDOCK:   -6.11 KCAL/MOL
REMARK 924 INTRA-LIGAND FREE ENERGY PREDICTED BY IDOCK:   -0.27 KCAL/MOL
REMARK 927      BINDING AFFINITY PREDICTED BY RF-SCORE:    0.00 PKD
ROOT
HETATM    1  C   UNL     1     -10.933  11.875  63.346  1.00  0.00    -0.395 C  
HETATM    2  S   UNL     1     -12.261  12.846  64.017  1.00  0.00    -0.428 S  
HETATM    3  O   UNL     1     -11.544  13.246  65.425  1.00  0.00    -0.308 OA 
HETATM    4  O   UNL     1     -12.403  14.046  63.221  1.00  0.00    -0.718 OA 
HETATM    5  O   UNL     1     -13.378  11.972  64.300  1.00  0.00    -0.709 OA 
ENDROOT
BRANCH   3   6
HETATM    6  C   UNL     1     -12.313  14.023  66.334  1.00  0.00    -0.431 C  
BRANCH   6   7
HETATM    7  C   UNL     1     -11.552  14.189  67.646  1.00  0.00    -0.394 C  
BRANCH   7   8
HETATM    8  C   UNL     1     -11.770  15.543  68.335  1.00  0.00    -0.323 C  
BRANCH   8   9
HETATM    9  C   UNL     1     -10.507  16.387  68.466  1.00  0.00    -0.291 C  
BRANCH   9  10
HETATM   10  O   UNL     1     -10.733  17.662  67.884  1.00  0.00    -0.394 OA 
HETATM   11  S   UNL     1      -9.798  18.072  66.614  1.00  0.00    -0.369 S  
HETATM   12  O   UNL     1     -10.165  17.241  65.489  1.00  0.00    -0.602 OA 
HETATM   13  O   UNL     1      -8.429  18.196  67.068  1.00  0.00    -0.234 OA 
HETATM   14  C   UNL     1     -10.466  19.698  66.361  1.00  0.00    -0.513 C  
ENDBRANCH   9  10
ENDBRANCH   8   9
ENDBRANCH   7   8
ENDBRANCH   6   7
ENDBRANCH   3   6
TORSDOF 5
ENDMDL
MODEL        5
REMARK 921   NORMALIZED FREE ENERGY PREDICTED BY IDOCK:   -4.75 KCAL/MOL
REMARK 922        TOTAL FREE ENERGY PREDICTED BY IDOCK:   -6.33 KCAL/MOL
REMARK 923 INTER-LIGAND FREE ENERGY PREDICTED BY IDOCK:   -6.12 KCAL/MOL
REMARK 924 INTRA-LIGAND FREE ENERGY PREDICTED BY IDOCK:   -0.22 KCAL/MOL
REMARK 927      BINDING AFFINITY PREDICTED BY RF-SCORE:    0.00 PKD
ROOT
HETATM    1  C   UNL     1     -10.918  12.604  63.648  1.00  0.00    -0.416 C  
HETATM    2  S   UNL     1     -12.258  13.297  64.587  1.00  0.00    -0.408 S  
HETATM    3  O   UNL     1     -11.425  13.611  65.951  1.00  0.00    -0.307 OA 
HETATM    4  O   UNL     1     -12.641  14.555  63.985  1.00  0.00    -0.797 OA 
HETATM    5  O   UNL     1     -13.220  12.252  64.864  1.00  0.00    -0.597 OA 
ENDROOT
BRANCH   3   6
HETATM    6  C   UNL     1     -12.161  14.159  67.037  1.00  0.00    -0.339 C  
BRANCH   6   7
HETATM    7  C   UNL     1     -11.210  14.551  68.163  1.00  0.00    -0.301 C  
BRANCH   7   8
HETATM    8  C   UNL     1     -11.637  15.801  68.944  1.00  0.00    -0.400 C  
BRANCH   8   9
HETATM    9  C   UNL     1     -11.382  15.716  70.445  1.00  0.00    -0.358 C  
BRANCH   9  10
HETATM   10  O   UNL     1     -12.053  14.581  70.971  1.00  0.00    -0.310 OA 
HETATM   11  S   UNL     1     -13.220  14.855  72.075  1.00  0.00    -0.388 S  
HETATM   12  O   UNL     1     -14.336  15.491  71.410  1.00  0.00    -0.531 OA 
HETATM   13  O   UNL     1     -12.611  15.413  73.263  1.00  0.00    -0.398 OA 
HETATM   14  C   UNL     1     -13.635  13.158  72.387  1.00  0.00    -0.567 C  
ENDBRANCH   9  10
ENDBRANCH   8   9
ENDBRANCH   7   8
ENDBRANCH   6   7
ENDBRANCH   3   6
TORSDOF 5
ENDMDL
MODEL        6
REMARK 921   NORMALIZED FREE ENERGY PREDICTED BY IDOCK:   -4.73 KCAL/MOL
REMARK 922        TOTAL FREE ENERGY PREDICTED BY IDOCK:   -6.30 KCAL/MOL
REMARK 923 INTER-LIGAND FREE ENERGY PREDICTED BY IDOCK:   -5.99 KCAL/MOL
REMARK 924 INTRA-LIGAND FREE ENERGY PREDICTED BY IDOCK:   -0.31 KCAL/MOL
REMARK 927      BINDING AFFINITY PREDICTED BY RF-SCORE:    0.00 PKD
ROOT
HETATM    1  C   UNL     1     -10.902  11.623  63.641  1.00  0.00    -0.432 C  
HETATM    2  S   UNL     1     -11.873  13.004  64.196  1.00  0.00    -0.448 S  
HETATM    3  O   UNL     1     -10.642  14.041  64.455  1.00  0.00    -0.416 OA 
HETATM    4  O   UNL     1     -12.656  13.494  63.083  1.00  0.00    -0.762 OA 
HETATM    5  O   UNL     1     -12.469  12.669  65.471  1.00  0.00    -0.622 OA 
ENDROOT
BRANCH   3   6
HETATM    6  C   UNL     1     -10.984  15.320  64.973  1.00  0.00    -0.437 C  
BRANCH   6   7
HETATM    7  C   UNL     1     -10.004  15.712  66.074  1.00  0.00    -0.359 C  
BRANCH   7   8
HETATM    8  C   UNL     1     -10.528  15.482  67.497  1.00  0.00    -0.282 C  
BRANCH   8   9
HETATM    9  C   UNL     1     -10.670  16.756  68.324  1.00  0.00    -0.364 C  
BRANCH   9  10
HETATM   10  O   UNL     1     -10.584  17.884  67.466  1.00  0.00    -0.388 OA 
HETATM   11  S   UNL     1      -9.584  19.087  67.920  1.00  0.00    -0.334 S  
HETATM   12  O   UNL     1      -8.222  18.614  67.809  1.00  0.00    -0.250 OA 
HETATM   13  O   UNL     1     -10.098  19.681  69.135  1.00  0.00    -0.438 OA 
HETATM   14  C   UNL     1      -9.918  20.180  66.561  1.00  0.00    -0.457 C  
ENDBRANCH   9  10
ENDBRANCH   8   9
ENDBRANCH   7   8
ENDBRANCH   6   7
ENDBRANCH   3   6
TORSDOF 5
ENDMDL
MODEL        7
REMARK 921   NORMALIZED FREE ENERGY PREDICTED BY IDOCK:   -4.72 KCAL/MOL
REMARK 922        TOTAL FREE ENERGY PREDICTED BY IDOCK:   -6.28 KCAL/MOL
REMARK 923 INTER-LIGAND FREE ENERGY PREDICTED BY IDOCK:   -6.11 KCAL/MOL
REMARK 924 INTRA-LIGAND FREE ENERGY PREDICTED BY IDOCK:   -0.18 KCAL/MOL
REMARK 927      BINDING AFFINITY PREDICTED BY RF-SCORE:    0.00 PKD
ROOT
HETATM    1  C   UNL     1     -10.259  20.044  67.019  1.00  0.00    -0.451 C  
HETATM    2  S   UNL     1     -10.001  18.431  66.320  1.00  0.00    -0.340 S  
HETATM    3  O   UNL     1     -10.395  17.559  67.640  1.00  0.00    -0.331 OA 
HETATM    4  O   UNL     1     -11.005  18.201  65.305  1.00  0.00    -0.571 OA 
HETATM    5  O   UNL     1      -8.588  18.258  66.060  1.00  0.00    -0.494 OA 
ENDROOT
BRANCH   3   6
HETATM    6  C   UNL     1     -10.279  16.147  67.530  1.00  0.00    -0.267 C  
BRANCH   6   7
HETATM    7  C   UNL     1     -11.450  15.473  68.238  1.00  0.00    -0.359 C  
BRANCH   7   8
HETATM    8  C   UNL     1     -11.039  14.413  69.269  1.00  0.00    -0.300 C  
BRANCH   8   9
HETATM    9  C   UNL     1     -12.190  13.899  70.127  1.00  0.00    -0.358 C  
BRANCH   9  10
HETATM   10  O   UNL     1     -12.112  14.488  71.417  1.00  0.00    -0.342 OA 
HETATM   11  S   UNL     1     -13.515  14.718  72.213  1.00  0.00    -0.456 S  
HETATM   12  O   UNL     1     -14.045  13.426  72.586  1.00  0.00    -0.767 OA 
HETATM   13  O   UNL     1     -14.301  15.696  71.491  1.00  0.00    -0.507 OA 
HETATM   14  C   UNL     1     -12.828  15.489  73.657  1.00  0.00    -0.563 C  
ENDBRANCH   9  10
ENDBRANCH   8   9
ENDBRANCH   7   8
ENDBRANCH   6   7
ENDBRANCH   3   6
TORSDOF 5
ENDMDL
MODEL        8
REMARK 921   NORMALIZED FREE ENERGY PREDICTED BY IDOCK:   -4.71 KCAL/MOL
REMARK 922        TOTAL FREE ENERGY PREDICTED BY IDOCK:   -6.27 KCAL/MOL
REMARK 923 INTER-LIGAND FREE ENERGY PREDICTED BY IDOCK:   -5.93 KCAL/MOL
REMARK 924 INTRA-LIGAND FREE ENERGY PREDICTED BY IDOCK:   -0.34 KCAL/MOL
REMARK 927      BINDING AFFINITY PREDICTED BY RF-SCORE:    0.00 PKD
ROOT
HETATM    1  C   UNL     1     -10.409  19.964  67.040  1.00  0.00    -0.461 C  
HETATM    2  S   UNL     1     -10.005  18.437  66.226  1.00  0.00    -0.340 S  
HETATM    3  O   UNL     1     -10.415  17.430  67.440  1.00  0.00    -0.337 OA 
HETATM    4  O   UNL     1     -10.932  18.237  65.134  1.00  0.00    -0.628 OA 
HETATM    5  O   UNL     1      -8.571  18.375  66.041  1.00  0.00    -0.501 OA 
ENDROOT
BRANCH   3   6
HETATM    6  C   UNL     1     -10.200  16.043  67.219  1.00  0.00    -0.277 C  
BRANCH   6   7
HETATM    7  C   UNL     1     -11.279  15.231  67.927  1.00  0.00    -0.333 C  
BRANCH   7   8
HETATM    8  C   UNL     1     -10.977  13.731  68.030  1.00  0.00    -0.268 C  
BRANCH   8   9
HETATM    9  C   UNL     1     -11.908  12.848  67.206  1.00  0.00    -0.356 C  
BRANCH   9  10
HETATM   10  O   UNL     1     -11.268  12.500  65.988  1.00  0.00    -0.288 OA 
HETATM   11  S   UNL     1     -11.954  13.037  64.610  1.00  0.00    -0.420 S  
HETATM   12  O   UNL     1     -11.792  14.472  64.550  1.00  0.00    -0.430 OA 
HETATM   13  O   UNL     1     -13.244  12.398  64.457  1.00  0.00    -0.834 OA 
HETATM   14  C   UNL     1     -10.806  12.287  63.483  1.00  0.00    -0.454 C  
ENDBRANCH   9  10
ENDBRANCH   8   9
ENDBRANCH   7   8
ENDBRANCH   6   7
ENDBRANCH   3   6
TORSDOF 5
ENDMDL
MODEL        9
REMARK 921   NORMALIZED FREE ENERGY PREDICTED BY IDOCK:   -4.71 KCAL/MOL
REMARK 922        TOTAL FREE ENERGY PREDICTED BY IDOCK:   -6.27 KCAL/MOL
REMARK 923 INTER-LIGAND FREE ENERGY PREDICTED BY IDOCK:   -5.95 KCAL/MOL
REMARK 924 INTRA-LIGAND FREE ENERGY PREDICTED BY IDOCK:   -0.32 KCAL/MOL
REMARK 927      BINDING AFFINITY PREDICTED BY RF-SCORE:    0.00 PKD
ROOT
HETATM    1  C   UNL     1     -10.994  11.887  63.268  1.00  0.00    -0.321 C  
HETATM    2  S   UNL     1     -12.242  12.833  64.108  1.00  0.00    -0.438 S  
HETATM    3  O   UNL     1     -11.463  13.004  65.529  1.00  0.00    -0.305 OA 
HETATM    4  O   UNL     1     -12.337  14.133  63.479  1.00  0.00    -0.738 OA 
HETATM    5  O   UNL     1     -13.401  11.992  64.317  1.00  0.00    -0.709 OA 
ENDROOT
BRANCH   3   6
HETATM    6  C   UNL     1     -12.157  13.697  66.558  1.00  0.00    -0.423 C  
BRANCH   6   7
HETATM    7  C   UNL     1     -11.209  14.661  67.265  1.00  0.00    -0.344 C  
BRANCH   7   8
HETATM    8  C   UNL     1     -10.113  15.244  66.363  1.00  0.00    -0.287 C  
BRANCH   8   9
HETATM    9  C   UNL     1     -10.457  16.603  65.763  1.00  0.00    -0.311 C  
BRANCH   9  10
HETATM   10  O   UNL     1     -10.402  17.592  66.780  1.00  0.00    -0.332 OA 
HETATM   11  S   UNL     1      -9.839  19.061  66.355  1.00  0.00    -0.391 S  
HETATM   12  O   UNL     1     -10.808  19.687  65.483  1.00  0.00    -0.452 OA 
HETATM   13  O   UNL     1      -8.443  18.934  65.993  1.00  0.00    -0.468 OA 
HETATM   14  C   UNL     1      -9.948  19.814  67.959  1.00  0.00    -0.433 C  
ENDBRANCH   9  10
ENDBRANCH   8   9
ENDBRANCH   7   8
ENDBRANCH   6   7
ENDBRANCH   3   6
TORSDOF 5
ENDMDL
MODEL       10
REMARK 921   NORMALIZED FREE ENERGY PREDICTED BY IDOCK:   -4.67 KCAL/MOL
REMARK 922        TOTAL FREE ENERGY PREDICTED BY IDOCK:   -6.22 KCAL/MOL
REMARK 923 INTER-LIGAND FREE ENERGY PREDICTED BY IDOCK:   -5.90 KCAL/MOL
REMARK 924 INTRA-LIGAND FREE ENERGY PREDICTED BY IDOCK:   -0.32 KCAL/MOL
REMARK 927      BINDING AFFINITY PREDICTED BY RF-SCORE:    0.00 PKD
ROOT
HETATM    1  C   UNL     1     -10.624  19.500  65.817  1.00  0.00    -0.427 C  
HETATM    2  S   UNL     1     -10.084  17.839  66.146  1.00  0.00    -0.262 S  
HETATM    3  O   UNL     1     -10.915  17.103  64.952  1.00  0.00    -0.743 OA 
HETATM    4  O   UNL     1      -8.673  17.744  65.845  1.00  0.00    -0.514 OA 
HETATM    5  O   UNL     1     -10.632  17.417  67.417  1.00  0.00    -0.349 OA 
ENDROOT
BRANCH   3   6
HETATM    6  C   UNL     1     -10.800  15.688  64.874  1.00  0.00    -0.418 C  
BRANCH   6   7
HETATM    7  C   UNL     1     -12.140  15.081  64.471  1.00  0.00    -0.373 C  
BRANCH   7   8
HETATM    8  C   UNL     1     -12.067  13.604  64.062  1.00  0.00    -0.474 C  
BRANCH   8   9
HETATM    9  C   UNL     1     -12.395  12.628  65.187  1.00  0.00    -0.484 C  
BRANCH   9  10
HETATM   10  O   UNL     1     -11.279  12.525  66.058  1.00  0.00    -0.288 OA 
HETATM   11  S   UNL     1     -11.582  12.550  67.659  1.00  0.00    -0.361 S  
HETATM   12  O   UNL     1     -12.261  11.323  68.013  1.00  0.00    -0.621 OA 
HETATM   13  O   UNL     1     -12.109  13.852  68.009  1.00  0.00    -0.367 OA 
HETATM   14  C   UNL     1      -9.897  12.447  68.207  1.00  0.00    -0.224 C  
ENDBRANCH   9  10
ENDBRANCH   8   9
ENDBRANCH   7   8
ENDBRANCH   6   7
ENDBRANCH   3   6
TORSDOF 5
ENDMDL
MODEL       11
REMARK 921   NORMALIZED FREE ENERGY PREDICTED BY IDOCK:   -4.65 KCAL/MOL
REMARK 922        TOTAL FREE ENERGY PREDICTED BY IDOCK:   -6.20 KCAL/MOL
REMARK 923 INTER-LIGAND FREE ENERGY PREDICTED BY IDOCK:   -5.92 KCAL/MOL
REMARK 924 INTRA-LIGAND FREE ENERGY PREDICTED BY IDOCK:   -0.28 KCAL/MOL
REMARK 927      BINDING AFFINITY PREDICTED BY RF-SCORE:    0.00 PKD
ROOT
HETATM    1  C   UNL     1      -8.248  19.852  66.951  1.00  0.00    -0.318 C  
HETATM    2  S   UNL     1      -9.919  19.475  67.423  1.00  0.00    -0.414 S  
HETATM    3  O   UNL     1      -9.721  17.873  67.653  1.00  0.00    -0.269 OA 
HETATM    4  O   UNL     1     -10.186  20.090  68.705  1.00  0.00    -0.437 OA 
HETATM    5  O   UNL     1     -10.781  19.673  66.278  1.00  0.00    -0.460 OA 
ENDROOT
BRANCH   3   6
HETATM    6  C   UNL     1     -10.879  17.133  68.016  1.00  0.00    -0.317 C  
BRANCH   6   7
HETATM    7  C   UNL     1     -10.745  15.692  67.535  1.00  0.00    -0.303 C  
BRANCH   7   8
HETATM    8  C   UNL     1      -9.916  15.527  66.255  1.00  0.00    -0.313 C  
BRANCH   8   9
HETATM    9  C   UNL     1     -10.749  15.326  64.993  1.00  0.00    -0.439 C  
BRANCH   9  10
HETATM   10  O   UNL     1     -10.536  14.013  64.496  1.00  0.00    -0.424 OA 
HETATM   11  S   UNL     1     -11.856  13.093  64.243  1.00  0.00    -0.433 S  
HETATM   12  O   UNL     1     -12.587  13.643  63.123  1.00  0.00    -0.792 OA 
HETATM   13  O   UNL     1     -12.485  12.825  65.518  1.00  0.00    -0.573 OA 
HETATM   14  C   UNL     1     -11.008  11.629  63.704  1.00  0.00    -0.431 C  
ENDBRANCH   9  10
ENDBRANCH   8   9
ENDBRANCH   7   8
ENDBRANCH   6   7
ENDBRANCH   3   6
TORSDOF 5
ENDMDL
MODEL       12
REMARK 921   NORMALIZED FREE ENERGY PREDICTED BY IDOCK:   -4.63 KCAL/MOL
REMARK 922        TOTAL FREE ENERGY PREDICTED BY IDOCK:   -6.17 KCAL/MOL
REMARK 923 INTER-LIGAND FREE ENERGY PREDICTED BY IDOCK:   -5.93 KCAL/MOL
REMARK 924 INTRA-LIGAND FREE ENERGY PREDICTED BY IDOCK:   -0.24 KCAL/MOL
REMARK 927      BINDING AFFINITY PREDICTED BY RF-SCORE:    0.00 PKD
ROOT
HETATM    1  C   UNL     1     -13.012  15.694  73.331  1.00  0.00    -0.559 C  
HETATM    2  S   UNL     1     -13.624  14.743  71.961  1.00  0.00    -0.454 S  
HETATM    3  O   UNL     1     -12.182  14.285  71.355  1.00  0.00    -0.340 OA 
HETATM    4  O   UNL     1     -14.296  13.571  72.476  1.00  0.00    -0.713 OA 
HETATM    5  O   UNL     1     -14.255  15.641  71.018  1.00  0.00    -0.465 OA 
ENDROOT
BRANCH   3   6
HETATM    6  C   UNL     1     -12.208  13.505  70.167  1.00  0.00    -0.330 C  
BRANCH   6   7
HETATM    7  C   UNL     1     -11.182  14.041  69.173  1.00  0.00    -0.308 C  
BRANCH   7   8
HETATM    8  C   UNL     1     -11.256  15.556  68.944  1.00  0.00    -0.306 C  
BRANCH   8   9
HETATM    9  C   UNL     1     -11.155  15.972  67.480  1.00  0.00    -0.207 C  
BRANCH   9  10
HETATM   10  O   UNL     1     -10.965  17.377  67.405  1.00  0.00    -0.225 OA 
HETATM   11  S   UNL     1     -10.223  17.954  66.074  1.00  0.00    -0.224 S  
HETATM   12  O   UNL     1     -11.113  17.785  64.946  1.00  0.00    -0.821 OA 
HETATM   13  O   UNL     1      -8.858  17.472  66.059  1.00  0.00    -0.499 OA 
HETATM   14  C   UNL     1     -10.221  19.666  66.544  1.00  0.00    -0.480 C  
ENDBRANCH   9  10
ENDBRANCH   8   9
ENDBRANCH   7   8
ENDBRANCH   6   7
ENDBRANCH   3   6
TORSDOF 5
ENDMDL
MODEL       13
REMARK 921   NORMALIZED FREE ENERGY PREDICTED BY IDOCK:   -4.61 KCAL/MOL
REMARK 922        TOTAL FREE ENERGY PREDICTED BY IDOCK:   -6.15 KCAL/MOL
REMARK 923 INTER-LIGAND FREE ENERGY PREDICTED BY IDOCK:   -5.80 KCAL/MOL
REMARK 924 INTRA-LIGAND FREE ENERGY PREDICTED BY IDOCK:   -0.35 KCAL/MOL
REMARK 927      BINDING AFFINITY PREDICTED BY RF-SCORE:    0.00 PKD
ROOT
HETATM    1  C   UNL     1     -12.819  15.501  73.642  1.00  0.00    -0.563 C  
HETATM    2  S   UNL     1     -13.508  14.688  72.220  1.00  0.00    -0.453 S  
HETATM    3  O   UNL     1     -12.103  14.279  71.504  1.00  0.00    -0.336 OA 
HETATM    4  O   UNL     1     -14.168  13.477  72.655  1.00  0.00    -0.751 OA 
HETATM    5  O   UNL     1     -14.174  15.676  71.398  1.00  0.00    -0.535 OA 
ENDROOT
BRANCH   3   6
HETATM    6  C   UNL     1     -12.195  13.615  70.250  1.00  0.00    -0.353 C  
BRANCH   6   7
HETATM    7  C   UNL     1     -11.692  14.532  69.140  1.00  0.00    -0.349 C  
BRANCH   7   8
HETATM    8  C   UNL     1     -10.857  15.722  69.632  1.00  0.00    -0.300 C  
BRANCH   8   9
HETATM    9  C   UNL     1     -10.319  16.611  68.517  1.00  0.00    -0.303 C  
BRANCH   9  10
HETATM   10  O   UNL     1     -10.907  16.223  67.283  1.00  0.00    -0.302 OA 
HETATM   11  S   UNL     1      -9.892  15.824  66.072  1.00  0.00    -0.364 S  
HETATM   12  O   UNL     1      -9.241  14.579  66.415  1.00  0.00    -0.274 OA 
HETATM   13  O   UNL     1      -9.148  17.003  65.685  1.00  0.00    -0.500 OA 
HETATM   14  C   UNL     1     -11.131  15.498  64.842  1.00  0.00    -0.416 C  
ENDBRANCH   9  10
ENDBRANCH   8   9
ENDBRANCH   7   8
ENDBRANCH   6   7
ENDBRANCH   3   6
TORSDOF 5
ENDMDL
MODEL       14
REMARK 921   NORMALIZED FREE ENERGY PREDICTED BY IDOCK:   -4.59 KCAL/MOL
REMARK 922        TOTAL FREE ENERGY PREDICTED BY IDOCK:   -6.12 KCAL/MOL
REMARK 923 INTER-LIGAND FREE ENERGY PREDICTED BY IDOCK:   -5.89 KCAL/MOL
REMARK 924 INTRA-LIGAND FREE ENERGY PREDICTED BY IDOCK:   -0.23 KCAL/MOL
REMARK 927      BINDING AFFINITY PREDICTED BY RF-SCORE:    0.00 PKD
ROOT
HETATM    1  C   UNL     1     -12.456  12.213  63.338  1.00  0.00    -0.512 C  
HETATM    2  S   UNL     1     -11.211  12.241  64.606  1.00  0.00    -0.330 S  
HETATM    3  O   UNL     1     -12.210  12.391  65.885  1.00  0.00    -0.629 OA 
HETATM    4  O   UNL     1     -10.585  10.938  64.667  1.00  0.00    -0.334 OA 
HETATM    5  O   UNL     1     -10.442  13.460  64.476  1.00  0.00    -0.404 OA 
ENDROOT
BRANCH   3   6
HETATM    6  C   UNL     1     -11.598  12.500  67.164  1.00  0.00    -0.368 C  
BRANCH   6   7
HETATM    7  C   UNL     1     -11.896  13.869  67.767  1.00  0.00    -0.415 C  
BRANCH   7   8
HETATM    8  C   UNL     1     -10.649  14.698  68.099  1.00  0.00    -0.237 C  
BRANCH   8   9
HETATM    9  C   UNL     1     -10.172  15.592  66.959  1.00  0.00    -0.271 C  
BRANCH   9  10
HETATM   10  O   UNL     1     -10.539  16.936  67.233  1.00  0.00    -0.320 OA 
HETATM   11  S   UNL     1     -10.206  18.043  66.085  1.00  0.00    -0.311 S  
HETATM   12  O   UNL     1     -11.069  17.799  64.951  1.00  0.00    -0.821 OA 
HETATM   13  O   UNL     1      -8.769  18.153  65.951  1.00  0.00    -0.505 OA 
HETATM   14  C   UNL     1     -10.809  19.463  66.963  1.00  0.00    -0.432 C  
ENDBRANCH   9  10
ENDBRANCH   8   9
ENDBRANCH   7   8
ENDBRANCH   6   7
ENDBRANCH   3   6
TORSDOF 5
ENDMDL
MODEL       15
REMARK 921   NORMALIZED FREE ENERGY PREDICTED BY IDOCK:   -4.59 KCAL/MOL
REMARK 922        TOTAL FREE ENERGY PREDICTED BY IDOCK:   -6.12 KCAL/MOL
REMARK 923 INTER-LIGAND FREE ENERGY PREDICTED BY IDOCK:   -5.86 KCAL/MOL
REMARK 924 INTRA-LIGAND FREE ENERGY PREDICTED BY IDOCK:   -0.26 KCAL/MOL
REMARK 927      BINDING AFFINITY PREDICTED BY RF-SCORE:    0.00 PKD
ROOT
HETATM    1  C   UNL     1     -13.598  12.950  72.236  1.00  0.00    -0.515 C  
HETATM    2  S   UNL     1     -13.045  14.605  71.900  1.00  0.00    -0.360 S  
HETATM    3  O   UNL     1     -12.078  14.255  70.636  1.00  0.00    -0.305 OA 
HETATM    4  O   UNL     1     -14.168  15.377  71.416  1.00  0.00    -0.502 OA 
HETATM    5  O   UNL     1     -12.220  15.051  73.002  1.00  0.00    -0.352 OA 
ENDROOT
BRANCH   3   6
HETATM    6  C   UNL     1     -11.365  15.342  70.058  1.00  0.00    -0.290 C  
BRANCH   6   7
HETATM    7  C   UNL     1     -11.711  15.460  68.577  1.00  0.00    -0.355 C  
BRANCH   7   8
HETATM    8  C   UNL     1     -10.597  14.996  67.630  1.00  0.00    -0.267 C  
BRANCH   8   9
HETATM    9  C   UNL     1     -10.631  15.657  66.256  1.00  0.00    -0.307 C  
BRANCH   9  10
HETATM   10  O   UNL     1     -10.806  14.660  65.260  1.00  0.00    -0.328 OA 
HETATM   11  S   UNL     1     -12.275  14.557  64.564  1.00  0.00    -0.401 S  
HETATM   12  O   UNL     1     -12.476  15.732  63.746  1.00  0.00    -0.674 OA 
HETATM   13  O   UNL     1     -13.234  14.142  65.567  1.00  0.00    -0.688 OA 
HETATM   14  C   UNL     1     -11.924  13.178  63.503  1.00  0.00    -0.513 C  
ENDBRANCH   9  10
ENDBRANCH   8   9
ENDBRANCH   7   8
ENDBRANCH   6   7
ENDBRANCH   3   6
TORSDOF 5
ENDMDL
MODEL       16
REMARK 921   NORMALIZED FREE ENERGY PREDICTED BY IDOCK:   -4.57 KCAL/MOL
REMARK 922        TOTAL FREE ENERGY PREDICTED BY IDOCK:   -6.10 KCAL/MOL
REMARK 923 INTER-LIGAND FREE ENERGY PREDICTED BY IDOCK:   -5.83 KCAL/MOL
REMARK 924 INTRA-LIGAND FREE ENERGY PREDICTED BY IDOCK:   -0.26 KCAL/MOL
REMARK 927      BINDING AFFINITY PREDICTED BY RF-SCORE:    0.00 PKD
ROOT
HETATM    1  C   UNL     1     -11.988  12.023  63.770  1.00  0.00    -0.490 C  
HETATM    2  S   UNL     1     -12.118  12.917  65.301  1.00  0.00    -0.475 S  
HETATM    3  O   UNL     1     -10.648  13.620  65.264  1.00  0.00    -0.313 OA 
HETATM    4  O   UNL     1     -13.121  13.948  65.149  1.00  0.00    -0.773 OA 
HETATM    5  O   UNL     1     -12.147  11.967  66.392  1.00  0.00    -0.610 OA 
ENDROOT
BRANCH   3   6
HETATM    6  C   UNL     1     -10.301  14.431  66.379  1.00  0.00    -0.287 C  
BRANCH   6   7
HETATM    7  C   UNL     1      -9.536  15.663  65.906  1.00  0.00    -0.376 C  
BRANCH   7   8
HETATM    8  C   UNL     1      -8.226  15.922  66.662  1.00  0.00    -0.317 C  
BRANCH   8   9
HETATM    9  C   UNL     1      -7.629  17.304  66.421  1.00  0.00    -0.314 C  
BRANCH   9  10
HETATM   10  O   UNL     1      -8.646  18.179  65.954  1.00  0.00    -0.507 OA 
HETATM   11  S   UNL     1      -9.207  19.291  67.004  1.00  0.00    -0.320 S  
HETATM   12  O   UNL     1      -8.162  20.263  67.241  1.00  0.00    -0.323 OA 
HETATM   13  O   UNL     1      -9.883  18.606  68.086  1.00  0.00    -0.319 OA 
HETATM   14  C   UNL     1     -10.425  20.014  65.934  1.00  0.00    -0.406 C  
ENDBRANCH   9  10
ENDBRANCH   8   9
ENDBRANCH   7   8
ENDBRANCH   6   7
ENDBRANCH   3   6
TORSDOF 5
ENDMDL
MODEL       17
REMARK 921   NORMALIZED FREE ENERGY PREDICTED BY IDOCK:   -4.55 KCAL/MOL
REMARK 922        TOTAL FREE ENERGY PREDICTED BY IDOCK:   -6.07 KCAL/MOL
REMARK 923 INTER-LIGAND FREE ENERGY PREDICTED BY IDOCK:   -5.85 KCAL/MOL
REMARK 924 INTRA-LIGAND FREE ENERGY PREDICTED BY IDOCK:   -0.21 KCAL/MOL
REMARK 927      BINDING AFFINITY PREDICTED BY RF-SCORE:    0.00 PKD
ROOT
HETATM    1  C   UNL     1     -12.357  12.133  63.576  1.00  0.00    -0.574 C  
HETATM    2  S   UNL     1     -12.014  13.160  64.985  1.00  0.00    -0.410 S  
HETATM    3  O   UNL     1     -11.922  11.974  66.099  1.00  0.00    -0.581 OA 
HETATM    4  O   UNL     1     -10.698  13.738  64.825  1.00  0.00    -0.371 OA 
HETATM    5  O   UNL     1     -13.182  13.967  65.267  1.00  0.00    -0.774 OA 
ENDROOT
BRANCH   3   6
HETATM    6  C   UNL     1     -11.693  12.376  67.443  1.00  0.00    -0.347 C  
BRANCH   6   7
HETATM    7  C   UNL     1     -11.781  11.167  68.368  1.00  0.00    -0.349 C  
BRANCH   7   8
HETATM    8  C   UNL     1     -11.723  11.510  69.862  1.00  0.00    -0.420 C  
BRANCH   8   9
HETATM    9  C   UNL     1     -12.610  10.632  70.739  1.00  0.00    -0.386 C  
BRANCH   9  10
HETATM   10  O   UNL     1     -11.795   9.886  71.630  1.00  0.00    -0.379 OA 
HETATM   11  S   UNL     1     -11.803   8.265  71.462  1.00  0.00    -0.307 S  
HETATM   12  O   UNL     1     -11.143   7.932  70.219  1.00  0.00    -0.257 OA 
HETATM   13  O   UNL     1     -13.124   7.773  71.791  1.00  0.00    -0.326 OA 
HETATM   14  C   UNL     1     -10.703   7.896  72.806  1.00  0.00    -0.371 C  
ENDBRANCH   9  10
ENDBRANCH   8   9
ENDBRANCH   7   8
ENDBRANCH   6   7
ENDBRANCH   3   6
TORSDOF 5
ENDMDL
MODEL       18
REMARK 921   NORMALIZED FREE ENERGY PREDICTED BY IDOCK:   -4.55 KCAL/MOL
REMARK 922        TOTAL FREE ENERGY PREDICTED BY IDOCK:   -6.06 KCAL/MOL
REMARK 923 INTER-LIGAND FREE ENERGY PREDICTED BY IDOCK:   -5.89 KCAL/MOL
REMARK 924 INTRA-LIGAND FREE ENERGY PREDICTED BY IDOCK:   -0.18 KCAL/MOL
REMARK 927      BINDING AFFINITY PREDICTED BY RF-SCORE:    0.00 PKD
ROOT
HETATM    1  C   UNL     1     -12.410  12.022  63.448  1.00  0.00    -0.523 C  
HETATM    2  S   UNL     1     -12.185  12.875  64.990  1.00  0.00    -0.486 S  
HETATM    3  O   UNL     1     -10.754  13.574  64.644  1.00  0.00    -0.373 OA 
HETATM    4  O   UNL     1     -13.187  13.913  65.094  1.00  0.00    -0.768 OA 
HETATM    5  O   UNL     1     -11.979  11.896  66.036  1.00  0.00    -0.511 OA 
ENDROOT
BRANCH   3   6
HETATM    6  C   UNL     1     -10.159  14.353  65.673  1.00  0.00    -0.353 C  
BRANCH   6   7
HETATM    7  C   UNL     1     -10.288  15.836  65.341  1.00  0.00    -0.417 C  
BRANCH   7   8
HETATM    8  C   UNL     1     -10.003  16.775  66.521  1.00  0.00    -0.308 C  
BRANCH   8   9
HETATM    9  C   UNL     1     -10.304  18.242  66.238  1.00  0.00    -0.405 C  
BRANCH   9  10
HETATM   10  O   UNL     1      -9.091  18.980  66.247  1.00  0.00    -0.341 OA 
HETATM   11  S   UNL     1      -8.854  20.002  67.493  1.00  0.00    -0.342 S  
HETATM   12  O   UNL     1      -8.653  19.220  68.693  1.00  0.00    -0.354 OA 
HETATM   13  O   UNL     1      -9.840  21.059  67.418  1.00  0.00    -0.393 OA 
HETATM   14  C   UNL     1      -7.286  20.642  66.962  1.00  0.00    -0.316 C  
ENDBRANCH   9  10
ENDBRANCH   8   9
ENDBRANCH   7   8
ENDBRANCH   6   7
ENDBRANCH   3   6
TORSDOF 5
ENDMDL
MODEL       19
REMARK 921   NORMALIZED FREE ENERGY PREDICTED BY IDOCK:   -4.49 KCAL/MOL
REMARK 922        TOTAL FREE ENERGY PREDICTED BY IDOCK:   -5.99 KCAL/MOL
REMARK 923 INTER-LIGAND FREE ENERGY PREDICTED BY IDOCK:   -5.72 KCAL/MOL
REMARK 924 INTRA-LIGAND FREE ENERGY PREDICTED BY IDOCK:   -0.28 KCAL/MOL
REMARK 927      BINDING AFFINITY PREDICTED BY RF-SCORE:    0.00 PKD
ROOT
HETATM    1  C   UNL     1     -13.590  13.263  72.206  1.00  0.00    -0.605 C  
HETATM    2  S   UNL     1     -12.796  14.754  71.653  1.00  0.00    -0.358 S  
HETATM    3  O   UNL     1     -11.895  14.090  70.468  1.00  0.00    -0.306 OA 
HETATM    4  O   UNL     1     -13.792  15.609  71.045  1.00  0.00    -0.567 OA 
HETATM    5  O   UNL     1     -11.911  15.223  72.697  1.00  0.00    -0.409 OA 
ENDROOT
BRANCH   3   6
HETATM    6  C   UNL     1     -11.030  14.966  69.758  1.00  0.00    -0.258 C  
BRANCH   6   7
HETATM    7  C   UNL     1     -11.132  14.695  68.260  1.00  0.00    -0.283 C  
BRANCH   7   8
HETATM    8  C   UNL     1     -12.149  13.610  67.883  1.00  0.00    -0.318 C  
BRANCH   8   9
HETATM    9  C   UNL     1     -11.540  12.402  67.179  1.00  0.00    -0.365 C  
BRANCH   9  10
HETATM   10  O   UNL     1     -12.165  12.232  65.915  1.00  0.00    -0.634 OA 
HETATM   11  S   UNL     1     -11.190  12.099  64.617  1.00  0.00    -0.333 S  
HETATM   12  O   UNL     1     -10.493  10.835  64.697  1.00  0.00    -0.344 OA 
HETATM   13  O   UNL     1     -10.493  13.354  64.433  1.00  0.00    -0.426 OA 
HETATM   14  C   UNL     1     -12.467  11.968  63.391  1.00  0.00    -0.509 C  
ENDBRANCH   9  10
ENDBRANCH   8   9
ENDBRANCH   7   8
ENDBRANCH   6   7
ENDBRANCH   3   6
TORSDOF 5
ENDMDL
MODEL       20
REMARK 921   NORMALIZED FREE ENERGY PREDICTED BY IDOCK:   -4.48 KCAL/MOL
REMARK 922        TOTAL FREE ENERGY PREDICTED BY IDOCK:   -5.97 KCAL/MOL
REMARK 923 INTER-LIGAND FREE ENERGY PREDICTED BY IDOCK:   -5.62 KCAL/MOL
REMARK 924 INTRA-LIGAND FREE ENERGY PREDICTED BY IDOCK:   -0.35 KCAL/MOL
REMARK 927      BINDING AFFINITY PREDICTED BY RF-SCORE:    0.00 PKD
ROOT
HETATM    1  C   UNL     1     -12.197  14.606  64.365  1.00  0.00    -0.452 C  
HETATM    2  S   UNL     1     -10.904  15.190  65.435  1.00  0.00    -0.406 S  
HETATM    3  O   UNL     1     -11.726  15.090  66.839  1.00  0.00    -0.300 OA 
HETATM    4  O   UNL     1      -9.844  14.207  65.456  1.00  0.00    -0.300 OA 
HETATM    5  O   UNL     1     -10.657  16.586  65.145  1.00  0.00    -0.632 OA 
ENDROOT
BRANCH   3   6
HETATM    6  C   UNL     1     -11.046  15.525  68.009  1.00  0.00    -0.322 C  
BRANCH   6   7
HETATM    7  C   UNL     1     -10.536  14.319  68.791  1.00  0.00    -0.249 C  
BRANCH   7   8
HETATM    8  C   UNL     1     -11.525  13.149  68.864  1.00  0.00    -0.343 C  
BRANCH   8   9
HETATM    9  C   UNL     1     -12.269  13.041  70.191  1.00  0.00    -0.272 C  
BRANCH   9  10
HETATM   10  O   UNL     1     -11.853  14.094  71.048  1.00  0.00    -0.301 OA 
HETATM   11  S   UNL     1     -13.020  14.916  71.832  1.00  0.00    -0.361 S  
HETATM   12  O   UNL     1     -13.611  14.041  72.819  1.00  0.00    -0.629 OA 
HETATM   13  O   UNL     1     -13.817  15.630  70.857  1.00  0.00    -0.516 OA 
HETATM   14  C   UNL     1     -11.959  16.074  72.661  1.00  0.00    -0.541 C  
ENDBRANCH   9  10
ENDBRANCH   8   9
ENDBRANCH   7   8
ENDBRANCH   6   7
ENDBRANCH   3   6
TORSDOF 5
ENDMDL
MODEL       21
REMARK 921   NORMALIZED FREE ENERGY PREDICTED BY IDOCK:   -4.48 KCAL/MOL
REMARK 922        TOTAL FREE ENERGY PREDICTED BY IDOCK:   -5.97 KCAL/MOL
REMARK 923 INTER-LIGAND FREE ENERGY PREDICTED BY IDOCK:   -5.72 KCAL/MOL
REMARK 924 INTRA-LIGAND FREE ENERGY PREDICTED BY IDOCK:   -0.25 KCAL/MOL
REMARK 927      BINDING AFFINITY PREDICTED BY RF-SCORE:    0.00 PKD
ROOT
HETATM    1  C   UNL     1      -8.164  17.081  66.726  1.00  0.00    -0.238 C  
HETATM    2  S   UNL     1      -9.928  16.885  66.637  1.00  0.00    -0.309 S  
HETATM    3  O   UNL     1      -9.966  15.257  66.690  1.00  0.00    -0.241 OA 
HETATM    4  O   UNL     1     -10.511  17.396  67.858  1.00  0.00    -0.353 OA 
HETATM    5  O   UNL     1     -10.377  17.315  65.330  1.00  0.00    -0.626 OA 
ENDROOT
BRANCH   3   6
HETATM    6  C   UNL     1     -11.246  14.646  66.595  1.00  0.00    -0.349 C  
BRANCH   6   7
HETATM    7  C   UNL     1     -11.486  13.753  67.809  1.00  0.00    -0.354 C  
BRANCH   7   8
HETATM    8  C   UNL     1     -11.852  14.513  69.090  1.00  0.00    -0.354 C  
BRANCH   8   9
HETATM    9  C   UNL     1     -12.327  13.621  70.231  1.00  0.00    -0.322 C  
BRANCH   9  10
HETATM   10  O   UNL     1     -12.293  14.355  71.446  1.00  0.00    -0.330 OA 
HETATM   11  S   UNL     1     -13.725  14.755  72.111  1.00  0.00    -0.491 S  
HETATM   12  O   UNL     1     -14.356  13.547  72.595  1.00  0.00    -0.716 OA 
HETATM   13  O   UNL     1     -14.403  15.680  71.228  1.00  0.00    -0.521 OA 
HETATM   14  C   UNL     1     -13.083  15.655  73.500  1.00  0.00    -0.516 C  
ENDBRANCH   9  10
ENDBRANCH   8   9
ENDBRANCH   7   8
ENDBRANCH   6   7
ENDBRANCH   3   6
TORSDOF 5
ENDMDL
MODEL       22
REMARK 921   NORMALIZED FREE ENERGY PREDICTED BY IDOCK:   -4.46 KCAL/MOL
REMARK 922        TOTAL FREE ENERGY PREDICTED BY IDOCK:   -5.95 KCAL/MOL
REMARK 923 INTER-LIGAND FREE ENERGY PREDICTED BY IDOCK:   -5.74 KCAL/MOL
REMARK 924 INTRA-LIGAND FREE ENERGY PREDICTED BY IDOCK:   -0.22 KCAL/MOL
REMARK 927      BINDING AFFINITY PREDICTED BY RF-SCORE:    0.00 PKD
ROOT
HETATM    1  C   UNL     1     -11.027  12.517  63.957  1.00  0.00    -0.398 C  
HETATM    2  S   UNL     1     -11.932  13.125  65.360  1.00  0.00    -0.433 S  
HETATM    3  O   UNL     1     -10.775  14.109  65.952  1.00  0.00    -0.287 OA 
HETATM    4  O   UNL     1     -13.027  13.941  64.885  1.00  0.00    -0.711 OA 
HETATM    5  O   UNL     1     -12.131  12.035  66.292  1.00  0.00    -0.596 OA 
ENDROOT
BRANCH   3   6
HETATM    6  C   UNL     1     -11.078  14.796  67.159  1.00  0.00    -0.333 C  
BRANCH   6   7
HETATM    7  C   UNL     1      -9.804  15.003  67.971  1.00  0.00    -0.218 C  
BRANCH   7   8
HETATM    8  C   UNL     1     -10.003  15.807  69.263  1.00  0.00    -0.262 C  
BRANCH   8   9
HETATM    9  C   UNL     1     -11.458  16.139  69.575  1.00  0.00    -0.292 C  
BRANCH   9  10
HETATM   10  O   UNL     1     -11.597  16.375  70.968  1.00  0.00    -0.380 OA 
HETATM   11  S   UNL     1     -12.694  15.474  71.767  1.00  0.00    -0.456 S  
HETATM   12  O   UNL     1     -12.217  14.110  71.814  1.00  0.00    -0.288 OA 
HETATM   13  O   UNL     1     -14.014  15.813  71.279  1.00  0.00    -0.526 OA 
HETATM   14  C   UNL     1     -12.468  16.211  73.366  1.00  0.00    -0.555 C  
ENDBRANCH   9  10
ENDBRANCH   8   9
ENDBRANCH   7   8
ENDBRANCH   6   7
ENDBRANCH   3   6
TORSDOF 5
ENDMDL
MODEL       23
REMARK 921   NORMALIZED FREE ENERGY PREDICTED BY IDOCK:   -4.46 KCAL/MOL
REMARK 922        TOTAL FREE ENERGY PREDICTED BY IDOCK:   -5.95 KCAL/MOL
REMARK 923 INTER-LIGAND FREE ENERGY PREDICTED BY IDOCK:   -5.83 KCAL/MOL
REMARK 924 INTRA-LIGAND FREE ENERGY PREDICTED BY IDOCK:   -0.12 KCAL/MOL
REMARK 927      BINDING AFFINITY PREDICTED BY RF-SCORE:    0.00 PKD
ROOT
HETATM    1  C   UNL     1     -10.697   7.844  73.033  1.00  0.00    -0.342 C  
HETATM    2  S   UNL     1     -12.111   8.303  72.059  1.00  0.00    -0.372 S  
HETATM    3  O   UNL     1     -11.516   9.697  71.459  1.00  0.00    -0.377 OA 
HETATM    4  O   UNL     1     -12.249   7.360  70.972  1.00  0.00    -0.315 OA 
HETATM    5  O   UNL     1     -13.206   8.617  72.952  1.00  0.00    -0.248 OA 
ENDROOT
BRANCH   3   6
HETATM    6  C   UNL     1     -12.381  10.451  70.621  1.00  0.00    -0.346 C  
BRANCH   6   7
HETATM    7  C   UNL     1     -11.568  11.441  69.793  1.00  0.00    -0.407 C  
BRANCH   7   8
HETATM    8  C   UNL     1     -11.569  11.155  68.286  1.00  0.00    -0.359 C  
BRANCH   8   9
HETATM    9  C   UNL     1     -11.783  12.388  67.416  1.00  0.00    -0.347 C  
BRANCH   9  10
HETATM   10  O   UNL     1     -12.066  11.980  66.086  1.00  0.00    -0.582 OA 
HETATM   11  S   UNL     1     -12.079  13.140  64.941  1.00  0.00    -0.430 S  
HETATM   12  O   UNL     1     -10.725  13.608  64.751  1.00  0.00    -0.363 OA 
HETATM   13  O   UNL     1     -13.177  14.043  65.211  1.00  0.00    -0.782 OA 
HETATM   14  C   UNL     1     -12.518  12.097  63.573  1.00  0.00    -0.555 C  
ENDBRANCH   9  10
ENDBRANCH   8   9
ENDBRANCH   7   8
ENDBRANCH   6   7
ENDBRANCH   3   6
TORSDOF 5
ENDMDL
MODEL       24
REMARK 921   NORMALIZED FREE ENERGY PREDICTED BY IDOCK:   -4.44 KCAL/MOL
REMARK 922        TOTAL FREE ENERGY PREDICTED BY IDOCK:   -5.93 KCAL/MOL
REMARK 923 INTER-LIGAND FREE ENERGY PREDICTED BY IDOCK:   -5.65 KCAL/MOL
REMARK 924 INTRA-LIGAND FREE ENERGY PREDICTED BY IDOCK:   -0.27 KCAL/MOL
REMARK 927      BINDING AFFINITY PREDICTED BY RF-SCORE:    0.00 PKD
ROOT
HETATM    1  C   UNL     1     -11.361  15.646  64.597  1.00  0.00    -0.349 C  
HETATM    2  S   UNL     1     -11.969  13.978  64.669  1.00  0.00    -0.452 S  
HETATM    3  O   UNL     1     -10.894  13.404  65.751  1.00  0.00    -0.273 OA 
HETATM    4  O   UNL     1     -13.277  13.990  65.287  1.00  0.00    -0.782 OA 
HETATM    5  O   UNL     1     -11.724  13.340  63.394  1.00  0.00    -0.421 OA 
ENDROOT
BRANCH   3   6
HETATM    6  C   UNL     1     -10.995  12.025  66.080  1.00  0.00    -0.302 C  
BRANCH   6   7
HETATM    7  C   UNL     1     -11.514  11.868  67.506  1.00  0.00    -0.396 C  
BRANCH   7   8
HETATM    8  C   UNL     1     -11.473  13.156  68.338  1.00  0.00    -0.350 C  
BRANCH   8   9
HETATM    9  C   UNL     1     -11.845  12.964  69.804  1.00  0.00    -0.310 C  
BRANCH   9  10
HETATM   10  O   UNL     1     -12.850  13.903  70.159  1.00  0.00    -0.215 OA 
HETATM   11  S   UNL     1     -12.945  14.328  71.729  1.00  0.00    -0.376 S  
HETATM   12  O   UNL     1     -11.776  15.112  72.061  1.00  0.00    -0.388 OA 
HETATM   13  O   UNL     1     -13.341  13.169  72.499  1.00  0.00    -0.534 OA 
HETATM   14  C   UNL     1     -14.337  15.420  71.580  1.00  0.00    -0.505 C  
ENDBRANCH   9  10
ENDBRANCH   8   9
ENDBRANCH   7   8
ENDBRANCH   6   7
ENDBRANCH   3   6
TORSDOF 5
ENDMDL
MODEL       25
REMARK 921   NORMALIZED FREE ENERGY PREDICTED BY IDOCK:   -4.43 KCAL/MOL
REMARK 922        TOTAL FREE ENERGY PREDICTED BY IDOCK:   -5.91 KCAL/MOL
REMARK 923 INTER-LIGAND FREE ENERGY PREDICTED BY IDOCK:   -5.66 KCAL/MOL
REMARK 924 INTRA-LIGAND FREE ENERGY PREDICTED BY IDOCK:   -0.25 KCAL/MOL
REMARK 927      BINDING AFFINITY PREDICTED BY RF-SCORE:    0.00 PKD
ROOT
HETATM    1  C   UNL     1      -7.784  20.118  67.368  1.00  0.00    -0.306 C  
HETATM    2  S   UNL     1      -9.036  19.183  66.520  1.00  0.00    -0.346 S  
HETATM    3  O   UNL     1      -9.695  18.470  67.828  1.00  0.00    -0.289 OA 
HETATM    4  O   UNL     1     -10.003  20.105  65.965  1.00  0.00    -0.456 OA 
HETATM    5  O   UNL     1      -8.391  18.166  65.717  1.00  0.00    -0.499 OA 
ENDROOT
BRANCH   3   6
HETATM    6  C   UNL     1     -10.758  17.557  67.589  1.00  0.00    -0.306 C  
BRANCH   6   7
HETATM    7  C   UNL     1     -10.491  16.247  68.324  1.00  0.00    -0.284 C  
BRANCH   7   8
HETATM    8  C   UNL     1     -11.755  15.526  68.810  1.00  0.00    -0.372 C  
BRANCH   8   9
HETATM    9  C   UNL     1     -11.996  14.174  68.147  1.00  0.00    -0.332 C  
BRANCH   9  10
HETATM   10  O   UNL     1     -11.346  14.149  66.885  1.00  0.00    -0.307 OA 
HETATM   11  S   UNL     1     -12.030  13.242  65.717  1.00  0.00    -0.443 S  
HETATM   12  O   UNL     1     -13.271  13.869  65.320  1.00  0.00    -0.774 OA 
HETATM   13  O   UNL     1     -11.959  11.851  66.111  1.00  0.00    -0.537 OA 
HETATM   14  C   UNL     1     -10.813  13.543  64.459  1.00  0.00    -0.410 C  
ENDBRANCH   9  10
ENDBRANCH   8   9
ENDBRANCH   7   8
ENDBRANCH   6   7
ENDBRANCH   3   6
TORSDOF 5
ENDMDL
MODEL       26
REMARK 921   NORMALIZED FREE ENERGY PREDICTED BY IDOCK:   -4.42 KCAL/MOL
REMARK 922        TOTAL FREE ENERGY PREDICTED BY IDOCK:   -5.90 KCAL/MOL
REMARK 923 INTER-LIGAND FREE ENERGY PREDICTED BY IDOCK:   -5.61 KCAL/MOL
REMARK 924 INTRA-LIGAND FREE ENERGY PREDICTED BY IDOCK:   -0.29 KCAL/MOL
REMARK 927      BINDING AFFINITY PREDICTED BY RF-SCORE:    0.00 PKD
ROOT
HETATM    1  C   UNL     1     -10.659  19.458  65.921  1.00  0.00    -0.459 C  
HETATM    2  S   UNL     1     -10.075  17.832  66.337  1.00  0.00    -0.353 S  
HETATM    3  O   UNL     1     -10.906  17.009  65.202  1.00  0.00    -0.617 OA 
HETATM    4  O   UNL     1      -8.666  17.752  66.019  1.00  0.00    -0.495 OA 
HETATM    5  O   UNL     1     -10.593  17.472  67.639  1.00  0.00    -0.364 OA 
ENDROOT
BRANCH   3   6
HETATM    6  C   UNL     1     -10.759  15.595  65.204  1.00  0.00    -0.443 C  
BRANCH   6   7
HETATM    7  C   UNL     1     -11.959  14.948  64.519  1.00  0.00    -0.420 C  
BRANCH   7   8
HETATM    8  C   UNL     1     -12.598  13.802  65.313  1.00  0.00    -0.510 C  
BRANCH   8   9
HETATM    9  C   UNL     1     -11.641  12.660  65.641  1.00  0.00    -0.377 C  
BRANCH   9  10
HETATM   10  O   UNL     1     -11.947  12.149  66.930  1.00  0.00    -0.603 OA 
HETATM   11  S   UNL     1     -10.782  12.251  68.064  1.00  0.00    -0.228 S  
HETATM   12  O   UNL     1     -10.602  13.643  68.410  1.00  0.00    -0.238 OA 
HETATM   13  O   UNL     1      -9.676  11.405  67.667  1.00  0.00    -0.169 OA 
HETATM   14  C   UNL     1     -11.674  11.450  69.374  1.00  0.00    -0.338 C  
ENDBRANCH   9  10
ENDBRANCH   8   9
ENDBRANCH   7   8
ENDBRANCH   6   7
ENDBRANCH   3   6
TORSDOF 5
ENDMDL
MODEL       27
REMARK 921   NORMALIZED FREE ENERGY PREDICTED BY IDOCK:   -4.42 KCAL/MOL
REMARK 922        TOTAL FREE ENERGY PREDICTED BY IDOCK:   -5.90 KCAL/MOL
REMARK 923 INTER-LIGAND FREE ENERGY PREDICTED BY IDOCK:   -5.74 KCAL/MOL
REMARK 924 INTRA-LIGAND FREE ENERGY PREDICTED BY IDOCK:   -0.16 KCAL/MOL
REMARK 927      BINDING AFFINITY PREDICTED BY RF-SCORE:    0.00 PKD
ROOT
HETATM    1  C   UNL     1     -12.339   6.748  71.196  1.00  0.00    -0.333 C  
HETATM    2  S   UNL     1     -12.066   8.409  71.765  1.00  0.00    -0.351 S  
HETATM    3  O   UNL     1     -11.621   9.055  70.336  1.00  0.00    -0.226 OA 
HETATM    4  O   UNL     1     -13.338   8.981  72.148  1.00  0.00    -0.389 OA 
HETATM    5  O   UNL     1     -10.920   8.414  72.649  1.00  0.00    -0.353 OA 
ENDROOT
BRANCH   3   6
HETATM    6  C   UNL     1     -11.253  10.428  70.344  1.00  0.00    -0.321 C  
BRANCH   6   7
HETATM    7  C   UNL     1     -11.996  11.171  69.239  1.00  0.00    -0.421 C  
BRANCH   7   8
HETATM    8  C   UNL     1     -11.086  11.786  68.168  1.00  0.00    -0.297 C  
BRANCH   8   9
HETATM    9  C   UNL     1     -11.764  12.846  67.306  1.00  0.00    -0.373 C  
BRANCH   9  10
HETATM   10  O   UNL     1     -12.095  12.284  66.045  1.00  0.00    -0.623 OA 
HETATM   11  S   UNL     1     -11.936  13.245  64.740  1.00  0.00    -0.413 S  
HETATM   12  O   UNL     1     -10.528  13.485  64.518  1.00  0.00    -0.418 OA 
HETATM   13  O   UNL     1     -12.896  14.325  64.841  1.00  0.00    -0.680 OA 
HETATM   14  C   UNL     1     -12.512  12.079  63.532  1.00  0.00    -0.540 C  
ENDBRANCH   9  10
ENDBRANCH   8   9
ENDBRANCH   7   8
ENDBRANCH   6   7
ENDBRANCH   3   6
TORSDOF 5
ENDMDL
MODEL       28
REMARK 921   NORMALIZED FREE ENERGY PREDICTED BY IDOCK:   -4.37 KCAL/MOL
REMARK 922        TOTAL FREE ENERGY PREDICTED BY IDOCK:   -5.84 KCAL/MOL
REMARK 923 INTER-LIGAND FREE ENERGY PREDICTED BY IDOCK:   -5.32 KCAL/MOL
REMARK 924 INTRA-LIGAND FREE ENERGY PREDICTED BY IDOCK:   -0.52 KCAL/MOL
REMARK 927      BINDING AFFINITY PREDICTED BY RF-SCORE:    0.00 PKD
ROOT
HETATM    1  C   UNL     1      -9.549  15.575  65.704  1.00  0.00    -0.293 C  
HETATM    2  S   UNL     1     -11.188  15.277  65.087  1.00  0.00    -0.347 S  
HETATM    3  O   UNL     1     -10.852  13.939  64.220  1.00  0.00    -0.343 OA 
HETATM    4  O   UNL     1     -12.037  14.901  66.197  1.00  0.00    -0.158 OA 
HETATM    5  O   UNL     1     -11.541  16.342  64.173  1.00  0.00    -0.962 OA 
ENDROOT
BRANCH   3   6
HETATM    6  C   UNL     1     -11.928  13.366  63.489  1.00  0.00    -0.407 C  
BRANCH   6   7
HETATM    7  C   UNL     1     -11.885  11.846  63.610  1.00  0.00    -0.573 C  
BRANCH   7   8
HETATM    8  C   UNL     1     -10.471  11.252  63.609  1.00  0.00    -0.464 C  
BRANCH   8   9
HETATM    9  C   UNL     1     -10.155  10.390  64.827  1.00  0.00    -0.317 C  
BRANCH   9  10
HETATM   10  O   UNL     1      -9.712  11.223  65.888  1.00  0.00    -0.207 OA 
HETATM   11  S   UNL     1     -10.558  11.163  67.279  1.00  0.00    -0.254 S  
HETATM   12  O   UNL     1     -10.334   9.874  67.894  1.00  0.00    -0.184 OA 
HETATM   13  O   UNL     1     -11.887  11.682  67.034  1.00  0.00    -0.591 OA 
HETATM   14  C   UNL     1      -9.620  12.385  68.163  1.00  0.00    -0.218 C  
ENDBRANCH   9  10
ENDBRANCH   8   9
ENDBRANCH   7   8
ENDBRANCH   6   7
ENDBRANCH   3   6
TORSDOF 5
ENDMDL
MODEL       29
REMARK 921   NORMALIZED FREE ENERGY PREDICTED BY IDOCK:   -4.36 KCAL/MOL
REMARK 922        TOTAL FREE ENERGY PREDICTED BY IDOCK:   -5.82 KCAL/MOL
REMARK 923 INTER-LIGAND FREE ENERGY PREDICTED BY IDOCK:   -5.68 KCAL/MOL
REMARK 924 INTRA-LIGAND FREE ENERGY PREDICTED BY IDOCK:   -0.14 KCAL/MOL
REMARK 927      BINDING AFFINITY PREDICTED BY RF-SCORE:    0.00 PKD
ROOT
HETATM    1  C   UNL     1     -12.266  12.185  63.863  1.00  0.00    -0.489 C  
HETATM    2  S   UNL     1     -11.965  13.210  65.283  1.00  0.00    -0.426 S  
HETATM    3  O   UNL     1     -11.987  12.030  66.408  1.00  0.00    -0.611 OA 
HETATM    4  O   UNL     1     -10.619  13.733  65.197  1.00  0.00    -0.330 OA 
HETATM    5  O   UNL     1     -13.113  14.066  65.490  1.00  0.00    -0.713 OA 
ENDROOT
BRANCH   3   6
HETATM    6  C   UNL     1     -11.821  12.435  67.761  1.00  0.00    -0.298 C  
BRANCH   6   7
HETATM    7  C   UNL     1     -11.797  11.211  68.669  1.00  0.00    -0.357 C  
BRANCH   7   8
HETATM    8  C   UNL     1     -12.013  11.523  70.156  1.00  0.00    -0.452 C  
BRANCH   8   9
HETATM    9  C   UNL     1     -12.643  10.383  70.948  1.00  0.00    -0.383 C  
BRANCH   9  10
HETATM   10  O   UNL     1     -12.024   9.159  70.581  1.00  0.00    -0.239 OA 
HETATM   11  S   UNL     1     -12.265   7.881  71.562  1.00  0.00    -0.319 S  
HETATM   12  O   UNL     1     -13.650   7.477  71.453  1.00  0.00    -0.362 OA 
HETATM   13  O   UNL     1     -11.640   8.154  72.839  1.00  0.00    -0.386 OA 
HETATM   14  C   UNL     1     -11.262   6.720  70.670  1.00  0.00    -0.312 C  
ENDBRANCH   9  10
ENDBRANCH   8   9
ENDBRANCH   7   8
ENDBRANCH   6   7
ENDBRANCH   3   6
TORSDOF 5
ENDMDL
MODEL       30
REMARK 921   NORMALIZED FREE ENERGY PREDICTED BY IDOCK:   -4.35 KCAL/MOL
REMARK 922        TOTAL FREE ENERGY PREDICTED BY IDOCK:   -5.81 KCAL/MOL
REMARK 923 INTER-LIGAND FREE ENERGY PREDICTED BY IDOCK:   -5.62 KCAL/MOL
REMARK 924 INTRA-LIGAND FREE ENERGY PREDICTED BY IDOCK:   -0.19 KCAL/MOL
REMARK 927      BINDING AFFINITY PREDICTED BY RF-SCORE:    0.00 PKD
ROOT
HETATM    1  C   UNL     1     -12.465  12.116  63.595  1.00  0.00    -0.549 C  
HETATM    2  S   UNL     1     -11.914  13.290  64.810  1.00  0.00    -0.413 S  
HETATM    3  O   UNL     1     -11.939  12.293  66.099  1.00  0.00    -0.579 OA 
HETATM    4  O   UNL     1     -10.539  13.636  64.527  1.00  0.00    -0.417 OA 
HETATM    5  O   UNL     1     -12.942  14.294  64.985  1.00  0.00    -0.693 OA 
ENDROOT
BRANCH   3   6
HETATM    6  C   UNL     1     -11.592  12.864  67.354  1.00  0.00    -0.360 C  
BRANCH   6   7
HETATM    7  C   UNL     1     -11.758  11.826  68.459  1.00  0.00    -0.390 C  
BRANCH   7   8
HETATM    8  C   UNL     1     -10.878  10.580  68.293  1.00  0.00    -0.293 C  
BRANCH   8   9
HETATM    9  C   UNL     1     -10.320  10.031  69.601  1.00  0.00    -0.247 C  
BRANCH   9  10
HETATM   10  O   UNL     1     -11.110   8.928  70.021  1.00  0.00    -0.237 OA 
HETATM   11  S   UNL     1     -11.531   8.874  71.594  1.00  0.00    -0.364 S  
HETATM   12  O   UNL     1     -12.475   9.939  71.850  1.00  0.00    -0.384 OA 
HETATM   13  O   UNL     1     -10.334   8.697  72.388  1.00  0.00    -0.319 OA 
HETATM   14  C   UNL     1     -12.413   7.334  71.536  1.00  0.00    -0.373 C  
ENDBRANCH   9  10
ENDBRANCH   8   9
ENDBRANCH   7   8
ENDBRANCH   6   7
ENDBRANCH   3   6
TORSDOF 5
ENDMDL
MODEL       31
REMARK 921   NORMALIZED FREE ENERGY PREDICTED BY IDOCK:   -4.33 KCAL/MOL
REMARK 922        TOTAL FREE ENERGY PREDICTED BY IDOCK:   -5.78 KCAL/MOL
REMARK 923 INTER-LIGAND FREE ENERGY PREDICTED BY IDOCK:   -5.44 KCAL/MOL
REMARK 924 INTRA-LIGAND FREE ENERGY PREDICTED BY IDOCK:   -0.34 KCAL/MOL
REMARK 927      BINDING AFFINITY PREDICTED BY RF-SCORE:    0.00 PKD
ROOT
HETATM    1  C   UNL     1     -10.840  11.625  63.337  1.00  0.00    -0.379 C  
HETATM    2  S   UNL     1     -11.865  12.898  64.036  1.00  0.00    -0.482 S  
HETATM    3  O   UNL     1     -10.670  13.884  64.539  1.00  0.00    -0.412 OA 
HETATM    4  O   UNL     1     -12.579  13.555  62.964  1.00  0.00    -0.716 OA 
HETATM    5  O   UNL     1     -12.541  12.363  65.199  1.00  0.00    -0.622 OA 
ENDROOT
BRANCH   3   6
HETATM    6  C   UNL     1     -11.064  15.064  65.228  1.00  0.00    -0.386 C  
BRANCH   6   7
HETATM    7  C   UNL     1     -10.026  15.416  66.288  1.00  0.00    -0.308 C  
BRANCH   7   8
HETATM    8  C   UNL     1      -9.552  14.224  67.130  1.00  0.00    -0.245 C  
BRANCH   8   9
HETATM    9  C   UNL     1     -10.641  13.601  67.997  1.00  0.00    -0.249 C  
BRANCH   9  10
HETATM   10  O   UNL     1     -10.174  12.365  68.518  1.00  0.00    -0.226 OA 
HETATM   11  S   UNL     1     -11.285  11.368  69.170  1.00  0.00    -0.296 S  
HETATM   12  O   UNL     1     -12.125  10.863  68.107  1.00  0.00    -0.563 OA 
HETATM   13  O   UNL     1     -11.834  11.998  70.353  1.00  0.00    -0.322 OA 
HETATM   14  C   UNL     1     -10.167  10.084  69.671  1.00  0.00    -0.239 C  
ENDBRANCH   9  10
ENDBRANCH   8   9
ENDBRANCH   7   8
ENDBRANCH   6   7
ENDBRANCH   3   6
TORSDOF 5
ENDMDL
MODEL       32
REMARK 921   NORMALIZED FREE ENERGY PREDICTED BY IDOCK:   -4.30 KCAL/MOL
REMARK 922        TOTAL FREE ENERGY PREDICTED BY IDOCK:   -5.75 KCAL/MOL
REMARK 923 INTER-LIGAND FREE ENERGY PREDICTED BY IDOCK:   -5.52 KCAL/MOL
REMARK 924 INTRA-LIGAND FREE ENERGY PREDICTED BY IDOCK:   -0.23 KCAL/MOL
REMARK 927      BINDING AFFINITY PREDICTED BY RF-SCORE:    0.00 PKD
ROOT
HETATM    1  C   UNL     1     -10.650  11.207  64.073  1.00  0.00    -0.368 C  
HETATM    2  S   UNL     1     -11.963  12.322  64.511  1.00  0.00    -0.368 S  
HETATM    3  O   UNL     1     -11.171  13.714  64.213  1.00  0.00    -0.379 OA 
HETATM    4  O   UNL     1     -13.027  12.185  63.542  1.00  0.00    -0.794 OA 
HETATM    5  O   UNL     1     -12.200  12.222  65.935  1.00  0.00    -0.634 OA 
ENDROOT
BRANCH   3   6
HETATM    6  C   UNL     1     -11.874  14.919  64.487  1.00  0.00    -0.396 C  
BRANCH   6   7
HETATM    7  C   UNL     1     -10.908  15.976  65.013  1.00  0.00    -0.421 C  
BRANCH   7   8
HETATM    8  C   UNL     1     -10.080  15.528  66.224  1.00  0.00    -0.312 C  
BRANCH   8   9
HETATM    9  C   UNL     1      -8.636  16.018  66.210  1.00  0.00    -0.328 C  
BRANCH   9  10
HETATM   10  O   UNL     1      -8.613  17.398  65.876  1.00  0.00    -0.525 OA 
HETATM   11  S   UNL     1      -7.426  18.300  66.533  1.00  0.00    -0.250 S  
HETATM   12  O   UNL     1      -6.169  17.902  65.940  1.00  0.00    -0.220 OA 
HETATM   13  O   UNL     1      -7.622  18.348  67.966  1.00  0.00    -0.246 OA 
HETATM   14  C   UNL     1      -7.917  19.857  65.835  1.00  0.00    -0.276 C  
ENDBRANCH   9  10
ENDBRANCH   8   9
ENDBRANCH   7   8
ENDBRANCH   6   7
ENDBRANCH   3   6
TORSDOF 5
ENDMDL
MODEL       33
REMARK 921   NORMALIZED FREE ENERGY PREDICTED BY IDOCK:   -4.29 KCAL/MOL
REMARK 922        TOTAL FREE ENERGY PREDICTED BY IDOCK:   -5.73 KCAL/MOL
REMARK 923 INTER-LIGAND FREE ENERGY PREDICTED BY IDOCK:   -5.41 KCAL/MOL
REMARK 924 INTRA-LIGAND FREE ENERGY PREDICTED BY IDOCK:   -0.32 KCAL/MOL
REMARK 927      BINDING AFFINITY PREDICTED BY RF-SCORE:    0.00 PKD
ROOT
HETATM    1  C   UNL     1     -10.260  19.892  65.971  1.00  0.00    -0.487 C  
HETATM    2  S   UNL     1      -8.764  19.124  66.543  1.00  0.00    -0.343 S  
HETATM    3  O   UNL     1      -9.182  17.580  66.231  1.00  0.00    -0.369 OA 
HETATM    4  O   UNL     1      -7.686  19.494  65.653  1.00  0.00    -0.423 OA 
HETATM    5  O   UNL     1      -8.673  19.295  67.977  1.00  0.00    -0.298 OA 
ENDROOT
BRANCH   3   6
HETATM    6  C   UNL     1      -8.241  16.578  66.595  1.00  0.00    -0.271 C  
BRANCH   6   7
HETATM    7  C   UNL     1      -8.917  15.525  67.467  1.00  0.00    -0.196 C  
BRANCH   7   8
HETATM    8  C   UNL     1     -10.419  15.754  67.684  1.00  0.00    -0.282 C  
BRANCH   8   9
HETATM    9  C   UNL     1     -11.288  14.545  67.357  1.00  0.00    -0.356 C  
BRANCH   9  10
HETATM   10  O   UNL     1     -11.045  14.141  66.018  1.00  0.00    -0.307 OA 
HETATM   11  S   UNL     1     -12.118  13.115  65.347  1.00  0.00    -0.459 S  
HETATM   12  O   UNL     1     -13.364  13.822  65.148  1.00  0.00    -0.688 OA 
HETATM   13  O   UNL     1     -12.052  11.851  66.050  1.00  0.00    -0.500 OA 
HETATM   14  C   UNL     1     -11.307  12.939  63.777  1.00  0.00    -0.435 C  
ENDBRANCH   9  10
ENDBRANCH   8   9
ENDBRANCH   7   8
ENDBRANCH   6   7
ENDBRANCH   3   6
TORSDOF 5
ENDMDL
MODEL       34
REMARK 921   NORMALIZED FREE ENERGY PREDICTED BY IDOCK:   -4.27 KCAL/MOL
REMARK 922        TOTAL FREE ENERGY PREDICTED BY IDOCK:   -5.71 KCAL/MOL
REMARK 923 INTER-LIGAND FREE ENERGY PREDICTED BY IDOCK:   -5.72 KCAL/MOL
REMARK 924 INTRA-LIGAND FREE ENERGY PREDICTED BY IDOCK:    0.01 KCAL/MOL
REMARK 927      BINDING AFFINITY PREDICTED BY RF-SCORE:    0.00 PKD
ROOT
HETATM    1  C   UNL     1     -10.491  18.196  66.799  1.00  0.00    -0.348 C  
HETATM    2  S   UNL     1     -10.363  16.816  65.687  1.00  0.00    -0.186 S  
HETATM    3  O   UNL     1     -11.156  15.726  66.603  1.00  0.00    -0.241 OA 
HETATM    4  O   UNL     1     -11.162  17.094  64.513  1.00  0.00    -1.104 OA 
HETATM    5  O   UNL     1      -8.974  16.420  65.598  1.00  0.00    -0.427 OA 
ENDROOT
BRANCH   3   6
HETATM    6  C   UNL     1     -11.251  14.406  66.085  1.00  0.00    -0.336 C  
BRANCH   6   7
HETATM    7  C   UNL     1     -10.757  13.404  67.123  1.00  0.00    -0.268 C  
BRANCH   7   8
HETATM    8  C   UNL     1     -11.631  13.316  68.381  1.00  0.00    -0.372 C  
BRANCH   8   9
HETATM    9  C   UNL     1     -11.414  14.453  69.373  1.00  0.00    -0.288 C  
BRANCH   9  10
HETATM   10  O   UNL     1     -11.964  14.089  70.631  1.00  0.00    -0.318 OA 
HETATM   11  S   UNL     1     -12.753  15.249  71.459  1.00  0.00    -0.424 S  
HETATM   12  O   UNL     1     -13.979  15.558  70.756  1.00  0.00    -0.421 OA 
HETATM   13  O   UNL     1     -11.803  16.273  71.839  1.00  0.00    -0.496 OA 
HETATM   14  C   UNL     1     -13.148  14.274  72.889  1.00  0.00    -0.491 C  
ENDBRANCH   9  10
ENDBRANCH   8   9
ENDBRANCH   7   8
ENDBRANCH   6   7
ENDBRANCH   3   6
TORSDOF 5
ENDMDL
MODEL       35
REMARK 921   NORMALIZED FREE ENERGY PREDICTED BY IDOCK:   -4.25 KCAL/MOL
REMARK 922        TOTAL FREE ENERGY PREDICTED BY IDOCK:   -5.68 KCAL/MOL
REMARK 923 INTER-LIGAND FREE ENERGY PREDICTED BY IDOCK:   -5.39 KCAL/MOL
REMARK 924 INTRA-LIGAND FREE ENERGY PREDICTED BY IDOCK:   -0.29 KCAL/MOL
REMARK 927      BINDING AFFINITY PREDICTED BY RF-SCORE:    0.00 PKD
ROOT
HETATM    1  C   UNL     1     -10.208   6.871  70.939  1.00  0.00    -0.197 C  
HETATM    2  S   UNL     1     -10.510   8.250  72.018  1.00  0.00    -0.307 S  
HETATM    3  O   UNL     1     -11.577   9.036  71.070  1.00  0.00    -0.277 OA 
HETATM    4  O   UNL     1     -11.207   7.773  73.192  1.00  0.00    -0.402 OA 
HETATM    5  O   UNL     1      -9.302   9.042  72.108  1.00  0.00    -0.356 OA 
ENDROOT
BRANCH   3   6
HETATM    6  C   UNL     1     -12.067  10.279  71.556  1.00  0.00    -0.314 C  
BRANCH   6   7
HETATM    7  C   UNL     1     -12.617  11.106  70.399  1.00  0.00    -0.328 C  
BRANCH   7   8
HETATM    8  C   UNL     1     -11.670  12.206  69.902  1.00  0.00    -0.361 C  
BRANCH   8   9
HETATM    9  C   UNL     1     -12.240  13.616  70.009  1.00  0.00    -0.329 C  
BRANCH   9  10
HETATM   10  O   UNL     1     -12.044  14.103  71.328  1.00  0.00    -0.351 OA 
HETATM   11  S   UNL     1     -13.374  14.535  72.165  1.00  0.00    -0.423 S  
HETATM   12  O   UNL     1     -14.127  13.339  72.474  1.00  0.00    -0.709 OA 
HETATM   13  O   UNL     1     -13.976  15.680  71.516  1.00  0.00    -0.503 OA 
HETATM   14  C   UNL     1     -12.544  15.080  73.636  1.00  0.00    -0.533 C  
ENDBRANCH   9  10
ENDBRANCH   8   9
ENDBRANCH   7   8
ENDBRANCH   6   7
ENDBRANCH   3   6
TORSDOF 5
ENDMDL
MODEL       36
REMARK 921   NORMALIZED FREE ENERGY PREDICTED BY IDOCK:   -4.25 KCAL/MOL
REMARK 922        TOTAL FREE ENERGY PREDICTED BY IDOCK:   -5.68 KCAL/MOL
REMARK 923 INTER-LIGAND FREE ENERGY PREDICTED BY IDOCK:   -5.36 KCAL/MOL
REMARK 924 INTRA-LIGAND FREE ENERGY PREDICTED BY IDOCK:   -0.33 KCAL/MOL
REMARK 927      BINDING AFFINITY PREDICTED BY RF-SCORE:    0.00 PKD
ROOT
HETATM    1  C   UNL     1      -8.696  18.894  66.433  1.00  0.00    -0.303 C  
HETATM    2  S   UNL     1     -10.245  18.038  66.269  1.00  0.00    -0.347 S  
HETATM    3  O   UNL     1      -9.643  16.531  66.118  1.00  0.00    -0.290 OA 
HETATM    4  O   UNL     1     -10.955  18.122  67.526  1.00  0.00    -0.324 OA 
HETATM    5  O   UNL     1     -10.854  18.418  65.012  1.00  0.00    -0.641 OA 
ENDROOT
BRANCH   3   6
HETATM    6  C   UNL     1     -10.584  15.486  65.910  1.00  0.00    -0.339 C  
BRANCH   6   7
HETATM    7  C   UNL     1     -10.542  14.510  67.082  1.00  0.00    -0.274 C  
BRANCH   7   8
HETATM    8  C   UNL     1     -11.707  14.659  68.069  1.00  0.00    -0.371 C  
BRANCH   8   9
HETATM    9  C   UNL     1     -11.277  14.801  69.525  1.00  0.00    -0.278 C  
BRANCH   9  10
HETATM   10  O   UNL     1     -12.088  13.965  70.337  1.00  0.00    -0.315 OA 
HETATM   11  S   UNL     1     -12.833  14.661  71.607  1.00  0.00    -0.355 S  
HETATM   12  O   UNL     1     -13.856  15.551  71.105  1.00  0.00    -0.549 OA 
HETATM   13  O   UNL     1     -11.826  15.098  72.551  1.00  0.00    -0.390 OA 
HETATM   14  C   UNL     1     -13.613  13.197  72.239  1.00  0.00    -0.581 C  
ENDBRANCH   9  10
ENDBRANCH   8   9
ENDBRANCH   7   8
ENDBRANCH   6   7
ENDBRANCH   3   6
TORSDOF 5
ENDMDL
MODEL       37
REMARK 921   NORMALIZED FREE ENERGY PREDICTED BY IDOCK:   -4.24 KCAL/MOL
REMARK 922        TOTAL FREE ENERGY PREDICTED BY IDOCK:   -5.67 KCAL/MOL
REMARK 923 INTER-LIGAND FREE ENERGY PREDICTED BY IDOCK:   -5.47 KCAL/MOL
REMARK 924 INTRA-LIGAND FREE ENERGY PREDICTED BY IDOCK:   -0.19 KCAL/MOL
REMARK 927      BINDING AFFINITY PREDICTED BY RF-SCORE:    0.00 PKD
ROOT
HETATM    1  C   UNL     1      -9.855   7.361  73.304  1.00  0.00    -0.272 C  
HETATM    2  S   UNL     1     -10.898   7.418  71.866  1.00  0.00    -0.235 S  
HETATM    3  O   UNL     1     -11.493   8.919  72.091  1.00  0.00    -0.362 OA 
HETATM    4  O   UNL     1     -10.060   7.431  70.688  1.00  0.00    -0.190 OA 
HETATM    5  O   UNL     1     -11.975   6.466  72.036  1.00  0.00    -0.329 OA 
ENDROOT
BRANCH   3   6
HETATM    6  C   UNL     1     -12.450   9.374  71.145  1.00  0.00    -0.293 C  
BRANCH   6   7
HETATM    7  C   UNL     1     -12.666  10.875  71.307  1.00  0.00    -0.542 C  
BRANCH   7   8
HETATM    8  C   UNL     1     -11.917  11.735  70.280  1.00  0.00    -0.429 C  
BRANCH   8   9
HETATM    9  C   UNL     1     -12.401  13.179  70.203  1.00  0.00    -0.213 C  
BRANCH   9  10
HETATM   10  O   UNL     1     -12.182  13.814  71.454  1.00  0.00    -0.305 OA 
HETATM   11  S   UNL     1     -13.465  14.533  72.155  1.00  0.00    -0.446 S  
HETATM   12  O   UNL     1     -14.388  13.505  72.581  1.00  0.00    -0.716 OA 
HETATM   13  O   UNL     1     -13.879  15.647  71.329  1.00  0.00    -0.573 OA 
HETATM   14  C   UNL     1     -12.617  15.163  73.582  1.00  0.00    -0.569 C  
ENDBRANCH   9  10
ENDBRANCH   8   9
ENDBRANCH   7   8
ENDBRANCH   6   7
ENDBRANCH   3   6
TORSDOF 5
ENDMDL
MODEL       38
REMARK 921   NORMALIZED FREE ENERGY PREDICTED BY IDOCK:   -4.23 KCAL/MOL
REMARK 922        TOTAL FREE ENERGY PREDICTED BY IDOCK:   -5.65 KCAL/MOL
REMARK 923 INTER-LIGAND FREE ENERGY PREDICTED BY IDOCK:   -5.49 KCAL/MOL
REMARK 924 INTRA-LIGAND FREE ENERGY PREDICTED BY IDOCK:   -0.15 KCAL/MOL
REMARK 927      BINDING AFFINITY PREDICTED BY RF-SCORE:    0.00 PKD
ROOT
HETATM    1  C   UNL     1     -11.116   6.044  69.584  1.00  0.00    -0.404 C  
HETATM    2  S   UNL     1     -11.224   6.757  71.208  1.00  0.00    -0.292 S  
HETATM    3  O   UNL     1     -11.410   8.310  70.750  1.00  0.00    -0.268 OA 
HETATM    4  O   UNL     1     -12.454   6.313  71.826  1.00  0.00    -0.248 OA 
HETATM    5  O   UNL     1      -9.940   6.620  71.861  1.00  0.00    -0.178 OA 
ENDROOT
BRANCH   3   6
HETATM    6  C   UNL     1     -11.496   9.276  71.789  1.00  0.00    -0.378 C  
BRANCH   6   7
HETATM    7  C   UNL     1     -12.835  10.002  71.713  1.00  0.00    -0.546 C  
BRANCH   7   8
HETATM    8  C   UNL     1     -12.760  11.404  71.095  1.00  0.00    -0.479 C  
BRANCH   8   9
HETATM    9  C   UNL     1     -13.303  12.512  71.990  1.00  0.00    -0.426 C  
BRANCH   9  10
HETATM   10  O   UNL     1     -12.623  13.724  71.701  1.00  0.00    -0.332 OA 
HETATM   11  S   UNL     1     -12.890  14.981  72.703  1.00  0.00    -0.422 S  
HETATM   12  O   UNL     1     -12.286  14.681  73.982  1.00  0.00    -0.474 OA 
HETATM   13  O   UNL     1     -14.275  15.385  72.579  1.00  0.00    -0.523 OA 
HETATM   14  C   UNL     1     -11.871  16.162  71.855  1.00  0.00    -0.525 C  
ENDBRANCH   9  10
ENDBRANCH   8   9
ENDBRANCH   7   8
ENDBRANCH   6   7
ENDBRANCH   3   6
TORSDOF 5
ENDMDL
MODEL       39
REMARK 921   NORMALIZED FREE ENERGY PREDICTED BY IDOCK:   -4.22 KCAL/MOL
REMARK 922        TOTAL FREE ENERGY PREDICTED BY IDOCK:   -5.65 KCAL/MOL
REMARK 923 INTER-LIGAND FREE ENERGY PREDICTED BY IDOCK:   -5.38 KCAL/MOL
REMARK 924 INTRA-LIGAND FREE ENERGY PREDICTED BY IDOCK:   -0.27 KCAL/MOL
REMARK 927      BINDING AFFINITY PREDICTED BY RF-SCORE:    0.00 PKD
ROOT
HETATM    1  C   UNL     1     -12.144  15.364  73.631  1.00  0.00    -0.522 C  
HETATM    2  S   UNL     1     -13.106  14.645  72.322  1.00  0.00    -0.397 S  
HETATM    3  O   UNL     1     -11.941  14.630  71.182  1.00  0.00    -0.322 OA 
HETATM    4  O   UNL     1     -13.417  13.277  72.675  1.00  0.00    -0.560 OA 
HETATM    5  O   UNL     1     -14.128  15.589  71.924  1.00  0.00    -0.495 OA 
ENDROOT
BRANCH   3   6
HETATM    6  C   UNL     1     -12.312  14.149  69.897  1.00  0.00    -0.327 C  
BRANCH   6   7
HETATM    7  C   UNL     1     -11.291  13.126  69.411  1.00  0.00    -0.276 C  
BRANCH   7   8
HETATM    8  C   UNL     1     -11.800  11.679  69.406  1.00  0.00    -0.408 C  
BRANCH   8   9
HETATM    9  C   UNL     1     -11.405  10.882  68.167  1.00  0.00    -0.315 C  
BRANCH   9  10
HETATM   10  O   UNL     1     -11.802  11.596  67.005  1.00  0.00    -0.591 OA 
HETATM   11  S   UNL     1     -10.655  11.886  65.885  1.00  0.00    -0.276 S  
HETATM   12  O   UNL     1     -10.293  10.630  65.267  1.00  0.00    -0.290 OA 
HETATM   13  O   UNL     1      -9.668  12.779  66.455  1.00  0.00    -0.251 OA 
HETATM   14  C   UNL     1     -11.672  12.804  64.756  1.00  0.00    -0.352 C  
ENDBRANCH   9  10
ENDBRANCH   8   9
ENDBRANCH   7   8
ENDBRANCH   6   7
ENDBRANCH   3   6
TORSDOF 5
ENDMDL
MODEL       40
REMARK 921   NORMALIZED FREE ENERGY PREDICTED BY IDOCK:   -4.18 KCAL/MOL
REMARK 922        TOTAL FREE ENERGY PREDICTED BY IDOCK:   -5.59 KCAL/MOL
REMARK 923 INTER-LIGAND FREE ENERGY PREDICTED BY IDOCK:   -5.44 KCAL/MOL
REMARK 924 INTRA-LIGAND FREE ENERGY PREDICTED BY IDOCK:   -0.15 KCAL/MOL
REMARK 927      BINDING AFFINITY PREDICTED BY RF-SCORE:    0.00 PKD
ROOT
HETATM    1  C   UNL     1      -6.746  19.208  68.134  1.00  0.00    -0.239 C  
HETATM    2  S   UNL     1      -8.221  19.310  67.148  1.00  0.00    -0.276 S  
HETATM    3  O   UNL     1      -9.162  18.348  68.067  1.00  0.00    -0.280 OA 
HETATM    4  O   UNL     1      -8.734  20.660  67.224  1.00  0.00    -0.334 OA 
HETATM    5  O   UNL     1      -7.981  18.647  65.884  1.00  0.00    -0.475 OA 
ENDROOT
BRANCH   3   6
HETATM    6  C   UNL     1     -10.482  18.109  67.596  1.00  0.00    -0.416 C  
BRANCH   6   7
HETATM    7  C   UNL     1     -10.759  16.609  67.572  1.00  0.00    -0.278 C  
BRANCH   7   8
HETATM    8  C   UNL     1     -10.658  15.971  66.181  1.00  0.00    -0.302 C  
BRANCH   8   9
HETATM    9  C   UNL     1     -10.156  14.531  66.190  1.00  0.00    -0.305 C  
BRANCH   9  10
HETATM   10  O   UNL     1     -10.758  13.818  65.120  1.00  0.00    -0.318 OA 
HETATM   11  S   UNL     1     -12.160  13.051  65.436  1.00  0.00    -0.468 S  
HETATM   12  O   UNL     1     -13.187  14.047  65.651  1.00  0.00    -0.634 OA 
HETATM   13  O   UNL     1     -11.903  11.991  66.387  1.00  0.00    -0.578 OA 
HETATM   14  C   UNL     1     -12.390  12.335  63.828  1.00  0.00    -0.538 C  
ENDBRANCH   9  10
ENDBRANCH   8   9
ENDBRANCH   7   8
ENDBRANCH   6   7
ENDBRANCH   3   6
TORSDOF 5
ENDMDL
MODEL       41
REMARK 921   NORMALIZED FREE ENERGY PREDICTED BY IDOCK:   -4.17 KCAL/MOL
REMARK 922        TOTAL FREE ENERGY PREDICTED BY IDOCK:   -5.57 KCAL/MOL
REMARK 923 INTER-LIGAND FREE ENERGY PREDICTED BY IDOCK:   -5.04 KCAL/MOL
REMARK 924 INTRA-LIGAND FREE ENERGY PREDICTED BY IDOCK:   -0.54 KCAL/MOL
REMARK 927      BINDING AFFINITY PREDICTED BY RF-SCORE:    0.00 PKD
ROOT
HETATM    1  C   UNL     1     -11.471  14.737  65.369  1.00  0.00    -0.341 C  
HETATM    2  S   UNL     1     -11.886  13.334  64.361  1.00  0.00    -0.422 S  
HETATM    3  O   UNL     1     -10.369  12.792  64.111  1.00  0.00    -0.390 OA 
HETATM    4  O   UNL     1     -12.587  12.369  65.179  1.00  0.00    -0.622 OA 
HETATM    5  O   UNL     1     -12.418  13.809  63.101  1.00  0.00    -0.786 OA 
ENDROOT
BRANCH   3   6
HETATM    6  C   UNL     1     -10.229  11.651  63.275  1.00  0.00    -0.407 C  
BRANCH   6   7
HETATM    7  C   UNL     1      -9.841  10.438  64.114  1.00  0.00    -0.379 C  
BRANCH   7   8
HETATM    8  C   UNL     1      -8.946  10.761  65.317  1.00  0.00    -0.211 C  
BRANCH   8   9
HETATM    9  C   UNL     1      -9.571  10.431  66.668  1.00  0.00    -0.177 C  
BRANCH   9  10
HETATM   10  O   UNL     1      -9.994  11.632  67.295  1.00  0.00    -0.190 OA 
HETATM   11  S   UNL     1     -11.032  11.492  68.543  1.00  0.00    -0.244 S  
HETATM   12  O   UNL     1     -10.329  10.891  69.655  1.00  0.00    -0.170 OA 
HETATM   13  O   UNL     1     -12.284  10.964  68.046  1.00  0.00    -0.422 OA 
HETATM   14  C   UNL     1     -11.229  13.227  68.866  1.00  0.00    -0.277 C  
ENDBRANCH   9  10
ENDBRANCH   8   9
ENDBRANCH   7   8
ENDBRANCH   6   7
ENDBRANCH   3   6
TORSDOF 5
ENDMDL
MODEL       42
REMARK 921   NORMALIZED FREE ENERGY PREDICTED BY IDOCK:   -4.15 KCAL/MOL
REMARK 922        TOTAL FREE ENERGY PREDICTED BY IDOCK:   -5.56 KCAL/MOL
REMARK 923 INTER-LIGAND FREE ENERGY PREDICTED BY IDOCK:   -5.30 KCAL/MOL
REMARK 924 INTRA-LIGAND FREE ENERGY PREDICTED BY IDOCK:   -0.26 KCAL/MOL
REMARK 927      BINDING AFFINITY PREDICTED BY RF-SCORE:    0.00 PKD
ROOT
HETATM    1  C   UNL     1     -10.227  19.923  68.067  1.00  0.00    -0.436 C  
HETATM    2  S   UNL     1      -9.681  18.578  67.042  1.00  0.00    -0.325 S  
HETATM    3  O   UNL     1     -10.343  17.366  67.908  1.00  0.00    -0.334 OA 
HETATM    4  O   UNL     1     -10.367  18.658  65.771  1.00  0.00    -0.573 OA 
HETATM    5  O   UNL     1      -8.240  18.478  67.136  1.00  0.00    -0.244 OA 
ENDROOT
BRANCH   3   6
HETATM    6  C   UNL     1     -10.102  16.045  67.444  1.00  0.00    -0.258 C  
BRANCH   6   7
HETATM    7  C   UNL     1     -10.876  15.046  68.297  1.00  0.00    -0.259 C  
BRANCH   7   8
HETATM    8  C   UNL     1     -12.028  14.347  67.563  1.00  0.00    -0.389 C  
BRANCH   8   9
HETATM    9  C   UNL     1     -11.744  12.895  67.194  1.00  0.00    -0.377 C  
BRANCH   9  10
HETATM   10  O   UNL     1     -12.204  12.649  65.873  1.00  0.00    -0.548 OA 
HETATM   11  S   UNL     1     -11.073  12.484  64.713  1.00  0.00    -0.317 S  
HETATM   12  O   UNL     1     -10.363  11.245  64.940  1.00  0.00    -0.271 OA 
HETATM   13  O   UNL     1     -10.387  13.748  64.553  1.00  0.00    -0.437 OA 
HETATM   14  C   UNL     1     -12.185  12.259  63.347  1.00  0.00    -0.527 C  
ENDBRANCH   9  10
ENDBRANCH   8   9
ENDBRANCH   7   8
ENDBRANCH   6   7
ENDBRANCH   3   6
TORSDOF 5
ENDMDL
MODEL       43
REMARK 921   NORMALIZED FREE ENERGY PREDICTED BY IDOCK:   -4.12 KCAL/MOL
REMARK 922        TOTAL FREE ENERGY PREDICTED BY IDOCK:   -5.52 KCAL/MOL
REMARK 923 INTER-LIGAND FREE ENERGY PREDICTED BY IDOCK:   -5.34 KCAL/MOL
REMARK 924 INTRA-LIGAND FREE ENERGY PREDICTED BY IDOCK:   -0.17 KCAL/MOL
REMARK 927      BINDING AFFINITY PREDICTED BY RF-SCORE:    0.00 PKD
ROOT
HETATM    1  C   UNL     1     -11.007   8.006  72.785  1.00  0.00    -0.382 C  
HETATM    2  S   UNL     1     -12.294   8.675  71.758  1.00  0.00    -0.370 S  
HETATM    3  O   UNL     1     -11.492   9.997  71.242  1.00  0.00    -0.364 OA 
HETATM    4  O   UNL     1     -12.489   7.791  70.630  1.00  0.00    -0.030 OA 
HETATM    5  O   UNL     1     -13.388   9.101  72.603  1.00  0.00    -0.454 OA 
ENDROOT
BRANCH   3   6
HETATM    6  C   UNL     1     -12.204  10.883  70.389  1.00  0.00    -0.365 C  
BRANCH   6   7
HETATM    7  C   UNL     1     -11.571  10.889  69.002  1.00  0.00    -0.387 C  
BRANCH   7   8
HETATM    8  C   UNL     1     -11.758  12.200  68.227  1.00  0.00    -0.401 C  
BRANCH   8   9
HETATM    9  C   UNL     1     -11.258  12.151  66.788  1.00  0.00    -0.322 C  
BRANCH   9  10
HETATM   10  O   UNL     1     -10.979  13.471  66.344  1.00  0.00    -0.291 OA 
HETATM   11  S   UNL     1     -11.644  13.933  64.930  1.00  0.00    -0.379 S  
HETATM   12  O   UNL     1     -13.073  14.054  65.116  1.00  0.00    -0.776 OA 
HETATM   13  O   UNL     1     -11.069  13.138  63.866  1.00  0.00    -0.388 OA 
HETATM   14  C   UNL     1     -10.939  15.561  64.874  1.00  0.00    -0.436 C  
ENDBRANCH   9  10
ENDBRANCH   8   9
ENDBRANCH   7   8
ENDBRANCH   6   7
ENDBRANCH   3   6
TORSDOF 5
ENDMDL
MODEL       44
REMARK 921   NORMALIZED FREE ENERGY PREDICTED BY IDOCK:   -4.09 KCAL/MOL
REMARK 922        TOTAL FREE ENERGY PREDICTED BY IDOCK:   -5.48 KCAL/MOL
REMARK 923 INTER-LIGAND FREE ENERGY PREDICTED BY IDOCK:   -5.32 KCAL/MOL
REMARK 924 INTRA-LIGAND FREE ENERGY PREDICTED BY IDOCK:   -0.16 KCAL/MOL
REMARK 927      BINDING AFFINITY PREDICTED BY RF-SCORE:    0.00 PKD
ROOT
HETATM    1  C   UNL     1     -12.868  15.559  73.521  1.00  0.00    -0.560 C  
HETATM    2  S   UNL     1     -13.593  14.692  72.149  1.00  0.00    -0.463 S  
HETATM    3  O   UNL     1     -12.213  14.103  71.514  1.00  0.00    -0.334 OA 
HETATM    4  O   UNL     1     -14.369  13.584  72.662  1.00  0.00    -0.716 OA 
HETATM    5  O   UNL     1     -14.147  15.661  71.228  1.00  0.00    -0.560 OA 
ENDROOT
BRANCH   3   6
HETATM    6  C   UNL     1     -12.334  13.346  70.316  1.00  0.00    -0.284 C  
BRANCH   6   7
HETATM    7  C   UNL     1     -12.234  11.857  70.632  1.00  0.00    -0.424 C  
BRANCH   7   8
HETATM    8  C   UNL     1     -11.432  11.047  69.606  1.00  0.00    -0.375 C  
BRANCH   8   9
HETATM    9  C   UNL     1     -10.656   9.878  70.203  1.00  0.00    -0.297 C  
BRANCH   9  10
HETATM   10  O   UNL     1     -11.565   8.977  70.817  1.00  0.00    -0.276 OA 
HETATM   11  S   UNL     1     -11.150   7.402  70.836  1.00  0.00    -0.269 S  
HETATM   12  O   UNL     1     -10.027   7.236  71.731  1.00  0.00    -0.172 OA 
HETATM   13  O   UNL     1     -11.129   6.913  69.473  1.00  0.00    -0.252 OA 
HETATM   14  C   UNL     1     -12.612   6.795  71.639  1.00  0.00    -0.333 C  
ENDBRANCH   9  10
ENDBRANCH   8   9
ENDBRANCH   7   8
ENDBRANCH   6   7
ENDBRANCH   3   6
TORSDOF 5
ENDMDL
MODEL       45
REMARK 921   NORMALIZED FREE ENERGY PREDICTED BY IDOCK:   -4.09 KCAL/MOL
REMARK 922        TOTAL FREE ENERGY PREDICTED BY IDOCK:   -5.47 KCAL/MOL
REMARK 923 INTER-LIGAND FREE ENERGY PREDICTED BY IDOCK:   -5.21 KCAL/MOL
REMARK 924 INTRA-LIGAND FREE ENERGY PREDICTED BY IDOCK:   -0.26 KCAL/MOL
REMARK 927      BINDING AFFINITY PREDICTED BY RF-SCORE:    0.00 PKD
ROOT
HETATM    1  C   UNL     1     -10.318  19.842  65.832  1.00  0.00    -0.483 C  
HETATM    2  S   UNL     1      -9.445  18.749  66.928  1.00  0.00    -0.323 S  
HETATM    3  O   UNL     1     -10.734  17.908  67.464  1.00  0.00    -0.389 OA 
HETATM    4  O   UNL     1      -8.619  17.865  66.137  1.00  0.00    -0.449 OA 
HETATM    5  O   UNL     1      -8.912  19.524  68.028  1.00  0.00    -0.312 OA 
ENDROOT
BRANCH   3   6
HETATM    6  C   UNL     1     -10.481  16.908  68.442  1.00  0.00    -0.355 C  
BRANCH   6   7
HETATM    7  C   UNL     1     -11.373  15.697  68.188  1.00  0.00    -0.340 C  
BRANCH   7   8
HETATM    8  C   UNL     1     -11.682  14.866  69.441  1.00  0.00    -0.349 C  
BRANCH   8   9
HETATM    9  C   UNL     1     -11.832  13.372  69.178  1.00  0.00    -0.336 C  
BRANCH   9  10
HETATM   10  O   UNL     1     -10.852  12.961  68.236  1.00  0.00    -0.225 OA 
HETATM   11  S   UNL     1     -11.309  11.866  67.120  1.00  0.00    -0.325 S  
HETATM   12  O   UNL     1     -12.242  12.500  66.215  1.00  0.00    -0.600 OA 
HETATM   13  O   UNL     1     -11.612  10.620  67.792  1.00  0.00    -0.501 OA 
HETATM   14  C   UNL     1      -9.741  11.711  66.304  1.00  0.00    -0.218 C  
ENDBRANCH   9  10
ENDBRANCH   8   9
ENDBRANCH   7   8
ENDBRANCH   6   7
ENDBRANCH   3   6
TORSDOF 5
ENDMDL
MODEL       46
REMARK 921   NORMALIZED FREE ENERGY PREDICTED BY IDOCK:   -4.08 KCAL/MOL
REMARK 922        TOTAL FREE ENERGY PREDICTED BY IDOCK:   -5.46 KCAL/MOL
REMARK 923 INTER-LIGAND FREE ENERGY PREDICTED BY IDOCK:   -5.31 KCAL/MOL
REMARK 924 INTRA-LIGAND FREE ENERGY PREDICTED BY IDOCK:   -0.16 KCAL/MOL
REMARK 927      BINDING AFFINITY PREDICTED BY RF-SCORE:    0.00 PKD
ROOT
HETATM    1  C   UNL     1     -10.320   8.053  72.532  1.00  0.00    -0.306 C  
HETATM    2  S   UNL     1     -11.557   8.389  71.302  1.00  0.00    -0.291 S  
HETATM    3  O   UNL     1     -11.591  10.010  71.469  1.00  0.00    -0.353 OA 
HETATM    4  O   UNL     1     -11.011   8.076  70.000  1.00  0.00    -0.249 OA 
HETATM    5  O   UNL     1     -12.822   7.853  71.757  1.00  0.00    -0.317 OA 
ENDROOT
BRANCH   3   6
HETATM    6  C   UNL     1     -12.525  10.716  70.662  1.00  0.00    -0.371 C  
BRANCH   6   7
HETATM    7  C   UNL     1     -12.050  12.149  70.451  1.00  0.00    -0.395 C  
BRANCH   7   8
HETATM    8  C   UNL     1     -11.460  12.422  69.062  1.00  0.00    -0.352 C  
BRANCH   8   9
HETATM    9  C   UNL     1     -12.026  13.661  68.376  1.00  0.00    -0.356 C  
BRANCH   9  10
HETATM   10  O   UNL     1     -11.310  13.899  67.173  1.00  0.00    -0.302 OA 
HETATM   11  S   UNL     1     -12.029  13.451  65.781  1.00  0.00    -0.434 S  
HETATM   12  O   UNL     1     -13.158  14.326  65.550  1.00  0.00    -0.639 OA 
HETATM   13  O   UNL     1     -12.155  12.010  65.768  1.00  0.00    -0.536 OA 
HETATM   14  C   UNL     1     -10.712  13.922  64.688  1.00  0.00    -0.407 C  
ENDBRANCH   9  10
ENDBRANCH   8   9
ENDBRANCH   7   8
ENDBRANCH   6   7
ENDBRANCH   3   6
TORSDOF 5
ENDMDL
MODEL       47
REMARK 921   NORMALIZED FREE ENERGY PREDICTED BY IDOCK:   -4.08 KCAL/MOL
REMARK 922        TOTAL FREE ENERGY PREDICTED BY IDOCK:   -5.46 KCAL/MOL
REMARK 923 INTER-LIGAND FREE ENERGY PREDICTED BY IDOCK:   -5.19 KCAL/MOL
REMARK 924 INTRA-LIGAND FREE ENERGY PREDICTED BY IDOCK:   -0.27 KCAL/MOL
REMARK 927      BINDING AFFINITY PREDICTED BY RF-SCORE:    0.00 PKD
ROOT
HETATM    1  C   UNL     1      -5.953  16.807  66.889  1.00  0.00    -0.158 C  
HETATM    2  S   UNL     1      -7.413  17.819  66.851  1.00  0.00    -0.214 S  
HETATM    3  O   UNL     1      -8.465  16.700  67.396  1.00  0.00    -0.183 OA 
HETATM    4  O   UNL     1      -7.285  18.851  67.856  1.00  0.00    -0.233 OA 
HETATM    5  O   UNL     1      -7.733  18.120  65.473  1.00  0.00    -0.507 OA 
ENDROOT
BRANCH   3   6
HETATM    6  C   UNL     1      -9.828  17.094  67.482  1.00  0.00    -0.266 C  
BRANCH   6   7
HETATM    7  C   UNL     1     -10.720  16.007  66.892  1.00  0.00    -0.262 C  
BRANCH   7   8
HETATM    8  C   UNL     1     -10.616  15.862  65.368  1.00  0.00    -0.439 C  
BRANCH   8   9
HETATM    9  C   UNL     1     -11.658  14.932  64.756  1.00  0.00    -0.410 C  
BRANCH   9  10
HETATM   10  O   UNL     1     -11.037  13.710  64.388  1.00  0.00    -0.375 OA 
HETATM   11  S   UNL     1     -11.890  12.343  64.627  1.00  0.00    -0.381 S  
HETATM   12  O   UNL     1     -12.995  12.325  63.693  1.00  0.00    -0.777 OA 
HETATM   13  O   UNL     1     -12.080  12.158  66.050  1.00  0.00    -0.612 OA 
HETATM   14  C   UNL     1     -10.651  11.204  64.062  1.00  0.00    -0.368 C  
ENDBRANCH   9  10
ENDBRANCH   8   9
ENDBRANCH   7   8
ENDBRANCH   6   7
ENDBRANCH   3   6
TORSDOF 5
ENDMDL
MODEL       48
REMARK 921   NORMALIZED FREE ENERGY PREDICTED BY IDOCK:   -4.06 KCAL/MOL
REMARK 922        TOTAL FREE ENERGY PREDICTED BY IDOCK:   -5.44 KCAL/MOL
REMARK 923 INTER-LIGAND FREE ENERGY PREDICTED BY IDOCK:   -5.32 KCAL/MOL
REMARK 924 INTRA-LIGAND FREE ENERGY PREDICTED BY IDOCK:   -0.12 KCAL/MOL
REMARK 927      BINDING AFFINITY PREDICTED BY RF-SCORE:    0.00 PKD
ROOT
HETATM    1  C   UNL     1      -9.675  11.232  68.484  1.00  0.00    -0.198 C  
HETATM    2  S   UNL     1     -11.293  11.920  68.226  1.00  0.00    -0.304 S  
HETATM    3  O   UNL     1     -10.826  13.292  67.479  1.00  0.00    -0.256 OA 
HETATM    4  O   UNL     1     -11.997  11.097  67.269  1.00  0.00    -0.452 OA 
HETATM    5  O   UNL     1     -11.860  12.266  69.511  1.00  0.00    -0.305 OA 
ENDROOT
BRANCH   3   6
HETATM    6  C   UNL     1     -11.855  14.204  67.119  1.00  0.00    -0.423 C  
BRANCH   6   7
HETATM    7  C   UNL     1     -12.111  14.131  65.618  1.00  0.00    -0.425 C  
BRANCH   7   8
HETATM    8  C   UNL     1     -11.063  14.856  64.762  1.00  0.00    -0.395 C  
BRANCH   8   9
HETATM    9  C   UNL     1     -10.114  15.745  65.558  1.00  0.00    -0.351 C  
BRANCH   9  10
HETATM   10  O   UNL     1     -10.484  17.104  65.379  1.00  0.00    -0.633 OA 
HETATM   11  S   UNL     1      -9.829  18.192  66.399  1.00  0.00    -0.339 S  
HETATM   12  O   UNL     1      -8.417  18.301  66.105  1.00  0.00    -0.451 OA 
HETATM   13  O   UNL     1     -10.321  17.927  67.735  1.00  0.00    -0.352 OA 
HETATM   14  C   UNL     1     -10.656  19.626  65.758  1.00  0.00    -0.438 C  
ENDBRANCH   9  10
ENDBRANCH   8   9
ENDBRANCH   7   8
ENDBRANCH   6   7
ENDBRANCH   3   6
TORSDOF 5
ENDMDL
MODEL       49
REMARK 921   NORMALIZED FREE ENERGY PREDICTED BY IDOCK:   -4.06 KCAL/MOL
REMARK 922        TOTAL FREE ENERGY PREDICTED BY IDOCK:   -5.43 KCAL/MOL
REMARK 923 INTER-LIGAND FREE ENERGY PREDICTED BY IDOCK:   -5.14 KCAL/MOL
REMARK 924 INTRA-LIGAND FREE ENERGY PREDICTED BY IDOCK:   -0.29 KCAL/MOL
REMARK 927      BINDING AFFINITY PREDICTED BY RF-SCORE:    0.00 PKD
ROOT
HETATM    1  C   UNL     1      -9.868   8.729  66.406  1.00  0.00    -0.282 C  
HETATM    2  S   UNL     1      -9.856  10.480  66.102  1.00  0.00    -0.228 S  
HETATM    3  O   UNL     1     -10.473  10.440  64.594  1.00  0.00    -0.259 OA 
HETATM    4  O   UNL     1     -10.823  11.106  66.975  1.00  0.00    -0.258 OA 
HETATM    5  O   UNL     1      -8.482  10.928  66.026  1.00  0.00    -0.163 OA 
ENDROOT
BRANCH   3   6
HETATM    6  C   UNL     1     -10.600  11.688  63.924  1.00  0.00    -0.391 C  
BRANCH   6   7
HETATM    7  C   UNL     1     -12.024  12.213  64.070  1.00  0.00    -0.533 C  
BRANCH   7   8
HETATM    8  C   UNL     1     -12.116  13.711  64.388  1.00  0.00    -0.470 C  
BRANCH   8   9
HETATM    9  C   UNL     1     -10.788  14.348  64.783  1.00  0.00    -0.399 C  
BRANCH   9  10
HETATM   10  O   UNL     1     -10.991  15.197  65.903  1.00  0.00    -0.333 OA 
HETATM   11  S   UNL     1     -10.400  16.711  65.802  1.00  0.00    -0.262 S  
HETATM   12  O   UNL     1     -11.176  17.439  64.822  1.00  0.00    -0.895 OA 
HETATM   13  O   UNL     1      -8.956  16.641  65.745  1.00  0.00    -0.498 OA 
HETATM   14  C   UNL     1     -10.884  17.249  67.423  1.00  0.00    -0.167 C  
ENDBRANCH   9  10
ENDBRANCH   8   9
ENDBRANCH   7   8
ENDBRANCH   6   7
ENDBRANCH   3   6
TORSDOF 5
ENDMDL
MODEL       50
REMARK 921   NORMALIZED FREE ENERGY PREDICTED BY IDOCK:   -4.04 KCAL/MOL
REMARK 922        TOTAL FREE ENERGY PREDICTED BY IDOCK:   -5.41 KCAL/MOL
REMARK 923 INTER-LIGAND FREE ENERGY PREDICTED BY IDOCK:   -5.18 KCAL/MOL
REMARK 924 INTRA-LIGAND FREE ENERGY PREDICTED BY IDOCK:   -0.23 KCAL/MOL
REMARK 927      BINDING AFFINITY PREDICTED BY RF-SCORE:    0.00 PKD
ROOT
HETATM    1  C   UNL     1     -11.419   6.925  70.859  1.00  0.00    -0.323 C  
HETATM    2  S   UNL     1     -11.418   8.505  71.672  1.00  0.00    -0.323 S  
HETATM    3  O   UNL     1     -11.703   9.425  70.357  1.00  0.00    -0.239 OA 
HETATM    4  O   UNL     1     -12.574   8.578  72.539  1.00  0.00    -0.376 OA 
HETATM    5  O   UNL     1     -10.080   8.782  72.147  1.00  0.00    -0.320 OA 
ENDROOT
BRANCH   3   6
HETATM    6  C   UNL     1     -11.739  10.831  70.558  1.00  0.00    -0.351 C  
BRANCH   6   7
HETATM    7  C   UNL     1     -11.902  11.542  69.218  1.00  0.00    -0.414 C  
BRANCH   7   8
HETATM    8  C   UNL     1     -11.477  13.016  69.230  1.00  0.00    -0.348 C  
BRANCH   8   9
HETATM    9  C   UNL     1     -12.266  13.901  68.271  1.00  0.00    -0.150 C  
BRANCH   9  10
HETATM   10  O   UNL     1     -11.525  14.070  67.071  1.00  0.00    -0.318 OA 
HETATM   11  S   UNL     1     -12.212  13.536  65.694  1.00  0.00    -0.480 S  
HETATM   12  O   UNL     1     -13.338  14.389  65.386  1.00  0.00    -0.568 OA 
HETATM   13  O   UNL     1     -12.331  12.095  65.765  1.00  0.00    -0.564 OA 
HETATM   14  C   UNL     1     -10.872  13.947  64.603  1.00  0.00    -0.408 C  
ENDBRANCH   9  10
ENDBRANCH   8   9
ENDBRANCH   7   8
ENDBRANCH   6   7
ENDBRANCH   3   6
TORSDOF 5
ENDMDL
MODEL       51
REMARK 921   NORMALIZED FREE ENERGY PREDICTED BY IDOCK:   -4.04 KCAL/MOL
REMARK 922        TOTAL FREE ENERGY PREDICTED BY IDOCK:   -5.41 KCAL/MOL
REMARK 923 INTER-LIGAND FREE ENERGY PREDICTED BY IDOCK:   -5.09 KCAL/MOL
REMARK 924 INTRA-LIGAND FREE ENERGY PREDICTED BY IDOCK:   -0.33 KCAL/MOL
REMARK 927      BINDING AFFINITY PREDICTED BY RF-SCORE:    0.00 PKD
ROOT
HETATM    1  C   UNL     1     -10.472   7.237  73.445  1.00  0.00    -0.377 C  
HETATM    2  S   UNL     1     -11.401   7.517  71.956  1.00  0.00    -0.287 S  
HETATM    3  O   UNL     1     -12.112   8.913  72.406  1.00  0.00    -0.349 OA 
HETATM    4  O   UNL     1     -10.475   7.802  70.882  1.00  0.00    -0.205 OA 
HETATM    5  O   UNL     1     -12.420   6.496  71.846  1.00  0.00    -0.347 OA 
ENDROOT
BRANCH   3   6
HETATM    6  C   UNL     1     -13.021   9.493  71.481  1.00  0.00    -0.386 C  
BRANCH   6   7
HETATM    7  C   UNL     1     -12.980  11.013  71.597  1.00  0.00    -0.561 C  
BRANCH   7   8
HETATM    8  C   UNL     1     -12.108  11.705  70.541  1.00  0.00    -0.458 C  
BRANCH   8   9
HETATM    9  C   UNL     1     -11.813  10.847  69.316  1.00  0.00    -0.324 C  
BRANCH   9  10
HETATM   10  O   UNL     1     -12.221  11.543  68.147  1.00  0.00    -0.576 OA 
HETATM   11  S   UNL     1     -11.047  12.036  67.131  1.00  0.00    -0.309 S  
HETATM   12  O   UNL     1     -10.463  10.870  66.507  1.00  0.00    -0.243 OA 
HETATM   13  O   UNL     1     -10.245  13.036  67.802  1.00  0.00    -0.219 OA 
HETATM   14  C   UNL     1     -12.099  12.845  65.951  1.00  0.00    -0.444 C  
ENDBRANCH   9  10
ENDBRANCH   8   9
ENDBRANCH   7   8
ENDBRANCH   6   7
ENDBRANCH   3   6
TORSDOF 5
ENDMDL
MODEL       52
REMARK 921   NORMALIZED FREE ENERGY PREDICTED BY IDOCK:   -4.04 KCAL/MOL
REMARK 922        TOTAL FREE ENERGY PREDICTED BY IDOCK:   -5.41 KCAL/MOL
REMARK 923 INTER-LIGAND FREE ENERGY PREDICTED BY IDOCK:   -5.12 KCAL/MOL
REMARK 924 INTRA-LIGAND FREE ENERGY PREDICTED BY IDOCK:   -0.29 KCAL/MOL
REMARK 927      BINDING AFFINITY PREDICTED BY RF-SCORE:    0.00 PKD
ROOT
HETATM    1  C   UNL     1     -12.498  15.301  73.705  1.00  0.00    -0.615 C  
HETATM    2  S   UNL     1     -13.435  14.712  72.315  1.00  0.00    -0.453 S  
HETATM    3  O   UNL     1     -12.180  14.429  71.315  1.00  0.00    -0.330 OA 
HETATM    4  O   UNL     1     -14.033  13.443  72.666  1.00  0.00    -0.755 OA 
HETATM    5  O   UNL     1     -14.212  15.809  71.780  1.00  0.00    -0.433 OA 
ENDROOT
BRANCH   3   6
HETATM    6  C   UNL     1     -12.497  13.966  70.008  1.00  0.00    -0.266 C  
BRANCH   6   7
HETATM    7  C   UNL     1     -11.974  14.951  68.968  1.00  0.00    -0.307 C  
BRANCH   7   8
HETATM    8  C   UNL     1     -11.141  14.308  67.851  1.00  0.00    -0.293 C  
BRANCH   8   9
HETATM    9  C   UNL     1     -10.075  13.337  68.347  1.00  0.00    -0.237 C  
BRANCH   9  10
HETATM   10  O   UNL     1     -10.143  12.139  67.588  1.00  0.00    -0.194 OA 
HETATM   11  S   UNL     1     -10.769  10.828  68.325  1.00  0.00    -0.234 S  
HETATM   12  O   UNL     1     -12.184  11.050  68.526  1.00  0.00    -0.582 OA 
HETATM   13  O   UNL     1      -9.887  10.441  69.406  1.00  0.00    -0.220 OA 
HETATM   14  C   UNL     1     -10.557   9.691  66.978  1.00  0.00    -0.197 C  
ENDBRANCH   9  10
ENDBRANCH   8   9
ENDBRANCH   7   8
ENDBRANCH   6   7
ENDBRANCH   3   6
TORSDOF 5
ENDMDL
MODEL       53
REMARK 921   NORMALIZED FREE ENERGY PREDICTED BY IDOCK:   -4.03 KCAL/MOL
REMARK 922        TOTAL FREE ENERGY PREDICTED BY IDOCK:   -5.40 KCAL/MOL
REMARK 923 INTER-LIGAND FREE ENERGY PREDICTED BY IDOCK:   -5.13 KCAL/MOL
REMARK 924 INTRA-LIGAND FREE ENERGY PREDICTED BY IDOCK:   -0.27 KCAL/MOL
REMARK 927      BINDING AFFINITY PREDICTED BY RF-SCORE:    0.00 PKD
ROOT
HETATM    1  C   UNL     1     -10.477  11.227  63.731  1.00  0.00    -0.399 C  
HETATM    2  S   UNL     1     -11.871  12.187  64.272  1.00  0.00    -0.371 S  
HETATM    3  O   UNL     1     -11.196  13.660  64.103  1.00  0.00    -0.367 OA 
HETATM    4  O   UNL     1     -12.929  12.055  63.295  1.00  0.00    -0.736 OA 
HETATM    5  O   UNL     1     -12.087  11.938  65.681  1.00  0.00    -0.439 OA 
ENDROOT
BRANCH   3   6
HETATM    6  C   UNL     1     -11.991  14.774  64.488  1.00  0.00    -0.440 C  
BRANCH   6   7
HETATM    7  C   UNL     1     -11.094  15.969  64.799  1.00  0.00    -0.378 C  
BRANCH   7   8
HETATM    8  C   UNL     1      -9.830  15.619  65.596  1.00  0.00    -0.369 C  
BRANCH   8   9
HETATM    9  C   UNL     1      -9.706  16.358  66.924  1.00  0.00    -0.251 C  
BRANCH   9  10
HETATM   10  O   UNL     1     -10.787  15.991  67.767  1.00  0.00    -0.318 OA 
HETATM   11  S   UNL     1     -10.483  14.886  68.925  1.00  0.00    -0.247 S  
HETATM   12  O   UNL     1      -9.618  15.488  69.915  1.00  0.00    -0.275 OA 
HETATM   13  O   UNL     1     -10.167  13.625  68.288  1.00  0.00    -0.231 OA 
HETATM   14  C   UNL     1     -12.129  14.797  69.586  1.00  0.00    -0.304 C  
ENDBRANCH   9  10
ENDBRANCH   8   9
ENDBRANCH   7   8
ENDBRANCH   6   7
ENDBRANCH   3   6
TORSDOF 5
ENDMDL
MODEL       54
REMARK 921   NORMALIZED FREE ENERGY PREDICTED BY IDOCK:   -4.03 KCAL/MOL
REMARK 922        TOTAL FREE ENERGY PREDICTED BY IDOCK:   -5.39 KCAL/MOL
REMARK 923 INTER-LIGAND FREE ENERGY PREDICTED BY IDOCK:   -5.02 KCAL/MOL
REMARK 924 INTRA-LIGAND FREE ENERGY PREDICTED BY IDOCK:   -0.38 KCAL/MOL
REMARK 927      BINDING AFFINITY PREDICTED BY RF-SCORE:    0.00 PKD
ROOT
HETATM    1  C   UNL     1      -9.860  10.566  69.309  1.00  0.00    -0.205 C  
HETATM    2  S   UNL     1     -11.418  11.402  69.121  1.00  0.00    -0.331 S  
HETATM    3  O   UNL     1     -10.828  12.871  68.733  1.00  0.00    -0.249 OA 
HETATM    4  O   UNL     1     -12.095  10.861  67.963  1.00  0.00    -0.563 OA 
HETATM    5  O   UNL     1     -12.056  11.489  70.416  1.00  0.00    -0.350 OA 
ENDROOT
BRANCH   3   6
HETATM    6  C   UNL     1     -11.780  13.907  68.530  1.00  0.00    -0.355 C  
BRANCH   6   7
HETATM    7  C   UNL     1     -11.971  14.151  67.037  1.00  0.00    -0.471 C  
BRANCH   7   8
HETATM    8  C   UNL     1     -10.794  14.865  66.358  1.00  0.00    -0.325 C  
BRANCH   8   9
HETATM    9  C   UNL     1     -10.343  14.222  65.052  1.00  0.00    -0.421 C  
BRANCH   9  10
HETATM   10  O   UNL     1     -10.065  12.848  65.277  1.00  0.00    -0.284 OA 
HETATM   11  S   UNL     1     -10.424  11.811  64.072  1.00  0.00    -0.412 S  
HETATM   12  O   UNL     1      -9.509  12.051  62.978  1.00  0.00    -0.332 OA 
HETATM   13  O   UNL     1     -11.859  11.795  63.888  1.00  0.00    -0.396 OA 
HETATM   14  C   UNL     1      -9.935  10.322  64.906  1.00  0.00    -0.323 C  
ENDBRANCH   9  10
ENDBRANCH   8   9
ENDBRANCH   7   8
ENDBRANCH   6   7
ENDBRANCH   3   6
TORSDOF 5
ENDMDL
MODEL       55
REMARK 921   NORMALIZED FREE ENERGY PREDICTED BY IDOCK:   -4.00 KCAL/MOL
REMARK 922        TOTAL FREE ENERGY PREDICTED BY IDOCK:   -5.36 KCAL/MOL
REMARK 923 INTER-LIGAND FREE ENERGY PREDICTED BY IDOCK:   -5.18 KCAL/MOL
REMARK 924 INTRA-LIGAND FREE ENERGY PREDICTED BY IDOCK:   -0.19 KCAL/MOL
REMARK 927      BINDING AFFINITY PREDICTED BY RF-SCORE:    0.00 PKD
ROOT
HETATM    1  C   UNL     1     -11.550  12.403  66.459  1.00  0.00    -0.387 C  
HETATM    2  S   UNL     1     -11.626  13.655  65.201  1.00  0.00    -0.334 S  
HETATM    3  O   UNL     1     -10.887  14.844  66.035  1.00  0.00    -0.313 OA 
HETATM    4  O   UNL     1     -10.766  13.263  64.106  1.00  0.00    -0.405 OA 
HETATM    5  O   UNL     1     -13.010  14.026  64.999  1.00  0.00    -0.728 OA 
ENDROOT
BRANCH   3   6
HETATM    6  C   UNL     1     -10.770  16.103  65.384  1.00  0.00    -0.358 C  
BRANCH   6   7
HETATM    7  C   UNL     1      -9.938  17.053  66.240  1.00  0.00    -0.324 C  
BRANCH   7   8
HETATM    8  C   UNL     1     -10.638  18.376  66.577  1.00  0.00    -0.344 C  
BRANCH   8   9
HETATM    9  C   UNL     1      -9.696  19.569  66.695  1.00  0.00    -0.375 C  
BRANCH   9  10
HETATM   10  O   UNL     1      -8.355  19.104  66.737  1.00  0.00    -0.271 OA 
HETATM   11  S   UNL     1      -7.335  19.873  67.750  1.00  0.00    -0.295 S  
HETATM   12  O   UNL     1      -7.725  19.566  69.108  1.00  0.00    -0.355 OA 
HETATM   13  O   UNL     1      -7.160  21.232  67.285  1.00  0.00    -0.522 OA 
HETATM   14  C   UNL     1      -5.879  18.939  67.351  1.00  0.00    -0.166 C  
ENDBRANCH   9  10
ENDBRANCH   8   9
ENDBRANCH   7   8
ENDBRANCH   6   7
ENDBRANCH   3   6
TORSDOF 5
ENDMDL
MODEL       56
REMARK 921   NORMALIZED FREE ENERGY PREDICTED BY IDOCK:   -3.93 KCAL/MOL
REMARK 922        TOTAL FREE ENERGY PREDICTED BY IDOCK:   -5.27 KCAL/MOL
REMARK 923 INTER-LIGAND FREE ENERGY PREDICTED BY IDOCK:   -4.77 KCAL/MOL
REMARK 924 INTRA-LIGAND FREE ENERGY PREDICTED BY IDOCK:   -0.51 KCAL/MOL
REMARK 927      BINDING AFFINITY PREDICTED BY RF-SCORE:    0.00 PKD
ROOT
HETATM    1  C   UNL     1     -10.595  10.680  67.564  1.00  0.00    -0.252 C  
HETATM    2  S   UNL     1      -8.972  11.332  67.252  1.00  0.00    -0.151 S  
HETATM    3  O   UNL     1      -9.292  12.887  67.620  1.00  0.00    -0.181 OA 
HETATM    4  O   UNL     1      -8.064  10.805  68.246  1.00  0.00    -0.111 OA 
HETATM    5  O   UNL     1      -8.701  11.241  65.833  1.00  0.00    -0.193 OA 
ENDROOT
BRANCH   3   6
HETATM    6  C   UNL     1      -8.225  13.813  67.457  1.00  0.00    -0.188 C  
BRANCH   6   7
HETATM    7  C   UNL     1      -8.720  15.047  66.709  1.00  0.00    -0.293 C  
BRANCH   7   8
HETATM    8  C   UNL     1     -10.247  15.149  66.599  1.00  0.00    -0.270 C  
BRANCH   8   9
HETATM    9  C   UNL     1     -10.768  15.188  65.166  1.00  0.00    -0.422 C  
BRANCH   9  10
HETATM   10  O   UNL     1     -10.593  13.912  64.569  1.00  0.00    -0.424 OA 
HETATM   11  S   UNL     1     -11.940  13.058  64.237  1.00  0.00    -0.431 S  
HETATM   12  O   UNL     1     -12.645  13.717  63.160  1.00  0.00    -0.793 OA 
HETATM   13  O   UNL     1     -12.587  12.712  65.484  1.00  0.00    -0.634 OA 
HETATM   14  C   UNL     1     -11.135  11.614  63.589  1.00  0.00    -0.425 C  
ENDBRANCH   9  10
ENDBRANCH   8   9
ENDBRANCH   7   8
ENDBRANCH   6   7
ENDBRANCH   3   6
TORSDOF 5
ENDMDL
MODEL       57
REMARK 921   NORMALIZED FREE ENERGY PREDICTED BY IDOCK:   -3.92 KCAL/MOL
REMARK 922        TOTAL FREE ENERGY PREDICTED BY IDOCK:   -5.25 KCAL/MOL
REMARK 923 INTER-LIGAND FREE ENERGY PREDICTED BY IDOCK:   -5.12 KCAL/MOL
REMARK 924 INTRA-LIGAND FREE ENERGY PREDICTED BY IDOCK:   -0.13 KCAL/MOL
REMARK 927      BINDING AFFINITY PREDICTED BY RF-SCORE:    0.00 PKD
ROOT
HETATM    1  C   UNL     1     -10.262  10.367  69.581  1.00  0.00    -0.209 C  
HETATM    2  S   UNL     1     -11.385  11.596  68.961  1.00  0.00    -0.302 S  
HETATM    3  O   UNL     1     -10.270  12.628  68.371  1.00  0.00    -0.230 OA 
HETATM    4  O   UNL     1     -12.119  11.032  67.850  1.00  0.00    -0.600 OA 
HETATM    5  O   UNL     1     -12.049  12.226  70.082  1.00  0.00    -0.327 OA 
ENDROOT
BRANCH   3   6
HETATM    6  C   UNL     1     -10.758  13.833  67.795  1.00  0.00    -0.246 C  
BRANCH   6   7
HETATM    7  C   UNL     1     -10.965  13.644  66.296  1.00  0.00    -0.300 C  
BRANCH   7   8
HETATM    8  C   UNL     1     -10.080  14.537  65.418  1.00  0.00    -0.394 C  
BRANCH   8   9
HETATM    9  C   UNL     1     -10.579  15.972  65.283  1.00  0.00    -0.402 C  
BRANCH   9  10
HETATM   10  O   UNL     1      -9.602  16.859  65.805  1.00  0.00    -0.515 OA 
HETATM   11  S   UNL     1     -10.136  18.266  66.431  1.00  0.00    -0.397 S  
HETATM   12  O   UNL     1     -10.855  17.978  67.651  1.00  0.00    -0.390 OA 
HETATM   13  O   UNL     1     -10.711  19.057  65.364  1.00  0.00    -0.520 OA 
HETATM   14  C   UNL     1      -8.548  18.940  66.852  1.00  0.00    -0.291 C  
ENDBRANCH   9  10
ENDBRANCH   8   9
ENDBRANCH   7   8
ENDBRANCH   6   7
ENDBRANCH   3   6
TORSDOF 5
ENDMDL
MODEL       58
REMARK 921   NORMALIZED FREE ENERGY PREDICTED BY IDOCK:   -3.91 KCAL/MOL
REMARK 922        TOTAL FREE ENERGY PREDICTED BY IDOCK:   -5.25 KCAL/MOL
REMARK 923 INTER-LIGAND FREE ENERGY PREDICTED BY IDOCK:   -5.02 KCAL/MOL
REMARK 924 INTRA-LIGAND FREE ENERGY PREDICTED BY IDOCK:   -0.23 KCAL/MOL
REMARK 927      BINDING AFFINITY PREDICTED BY RF-SCORE:    0.00 PKD
ROOT
HETATM    1  C   UNL     1      -9.895  10.868  67.612  1.00  0.00    -0.171 C  
HETATM    2  S   UNL     1     -11.491  11.621  67.827  1.00  0.00    -0.290 S  
HETATM    3  O   UNL     1     -10.978  13.033  68.459  1.00  0.00    -0.243 OA 
HETATM    4  O   UNL     1     -12.056  11.884  66.522  1.00  0.00    -0.568 OA 
HETATM    5  O   UNL     1     -12.213  10.894  68.848  1.00  0.00    -0.494 OA 
ENDROOT
BRANCH   3   6
HETATM    6  C   UNL     1     -11.983  13.964  68.838  1.00  0.00    -0.358 C  
BRANCH   6   7
HETATM    7  C   UNL     1     -11.463  14.861  69.957  1.00  0.00    -0.317 C  
BRANCH   7   8
HETATM    8  C   UNL     1     -11.229  16.319  69.540  1.00  0.00    -0.308 C  
BRANCH   8   9
HETATM    9  C   UNL     1     -11.074  16.522  68.037  1.00  0.00    -0.275 C  
BRANCH   9  10
HETATM   10  O   UNL     1      -9.862  17.215  67.780  1.00  0.00    -0.261 OA 
HETATM   11  S   UNL     1      -9.943  18.511  66.797  1.00  0.00    -0.384 S  
HETATM   12  O   UNL     1     -10.663  19.561  67.483  1.00  0.00    -0.465 OA 
HETATM   13  O   UNL     1     -10.312  18.063  65.471  1.00  0.00    -0.606 OA 
HETATM   14  C   UNL     1      -8.213  18.909  66.807  1.00  0.00    -0.279 C  
ENDBRANCH   9  10
ENDBRANCH   8   9
ENDBRANCH   7   8
ENDBRANCH   6   7
ENDBRANCH   3   6
TORSDOF 5
ENDMDL
MODEL       59
REMARK 921   NORMALIZED FREE ENERGY PREDICTED BY IDOCK:   -3.89 KCAL/MOL
REMARK 922        TOTAL FREE ENERGY PREDICTED BY IDOCK:   -5.21 KCAL/MOL
REMARK 923 INTER-LIGAND FREE ENERGY PREDICTED BY IDOCK:   -4.92 KCAL/MOL
REMARK 924 INTRA-LIGAND FREE ENERGY PREDICTED BY IDOCK:   -0.29 KCAL/MOL
REMARK 927      BINDING AFFINITY PREDICTED BY RF-SCORE:    0.00 PKD
ROOT
HETATM    1  C   UNL     1     -12.205  14.857  64.365  1.00  0.00    -0.381 C  
HETATM    2  S   UNL     1     -12.067  13.204  65.003  1.00  0.00    -0.444 S  
HETATM    3  O   UNL     1     -12.111  13.581  66.588  1.00  0.00    -0.399 OA 
HETATM    4  O   UNL     1     -13.274  12.479  64.672  1.00  0.00    -0.848 OA 
HETATM    5  O   UNL     1     -10.750  12.694  64.688  1.00  0.00    -0.294 OA 
ENDROOT
BRANCH   3   6
HETATM    6  C   UNL     1     -11.978  12.502  67.504  1.00  0.00    -0.219 C  
BRANCH   6   7
HETATM    7  C   UNL     1     -11.568  13.033  68.874  1.00  0.00    -0.355 C  
BRANCH   7   8
HETATM    8  C   UNL     1     -11.752  14.546  69.046  1.00  0.00    -0.346 C  
BRANCH   8   9
HETATM    9  C   UNL     1     -10.458  15.306  69.320  1.00  0.00    -0.258 C  
BRANCH   9  10
HETATM   10  O   UNL     1     -10.011  15.916  68.118  1.00  0.00    -0.219 OA 
HETATM   11  S   UNL     1      -9.309  17.381  68.247  1.00  0.00    -0.286 S  
HETATM   12  O   UNL     1      -8.033  17.218  68.908  1.00  0.00    -0.255 OA 
HETATM   13  O   UNL     1     -10.301  18.330  68.707  1.00  0.00    -0.354 OA 
HETATM   14  C   UNL     1      -9.023  17.645  66.515  1.00  0.00    -0.262 C  
ENDBRANCH   9  10
ENDBRANCH   8   9
ENDBRANCH   7   8
ENDBRANCH   6   7
ENDBRANCH   3   6
TORSDOF 5
ENDMDL
MODEL       60
REMARK 921   NORMALIZED FREE ENERGY PREDICTED BY IDOCK:   -3.88 KCAL/MOL
REMARK 922        TOTAL FREE ENERGY PREDICTED BY IDOCK:   -5.20 KCAL/MOL
REMARK 923 INTER-LIGAND FREE ENERGY PREDICTED BY IDOCK:   -4.59 KCAL/MOL
REMARK 924 INTRA-LIGAND FREE ENERGY PREDICTED BY IDOCK:   -0.61 KCAL/MOL
REMARK 927      BINDING AFFINITY PREDICTED BY RF-SCORE:    0.00 PKD
ROOT
HETATM    1  C   UNL     1      -7.964  10.212  66.763  1.00  0.00    -0.115 C  
HETATM    2  S   UNL     1      -9.031   9.518  65.523  1.00  0.00    -0.209 S  
HETATM    3  O   UNL     1      -9.173  10.849  64.593  1.00  0.00    -0.201 OA 
HETATM    4  O   UNL     1      -8.291   8.521  64.782  1.00  0.00    -0.160 OA 
HETATM    5  O   UNL     1     -10.317   9.236  66.123  1.00  0.00    -0.229 OA 
ENDROOT
BRANCH   3   6
HETATM    6  C   UNL     1     -10.020  10.745  63.456  1.00  0.00    -0.344 C  
BRANCH   6   7
HETATM    7  C   UNL     1     -10.783  12.051  63.257  1.00  0.00    -0.400 C  
BRANCH   7   8
HETATM    8  C   UNL     1     -12.256  11.993  63.680  1.00  0.00    -0.642 C  
BRANCH   8   9
HETATM    9  C   UNL     1     -12.608  12.909  64.846  1.00  0.00    -0.458 C  
BRANCH   9  10
HETATM   10  O   UNL     1     -12.155  12.322  66.057  1.00  0.00    -0.623 OA 
HETATM   11  S   UNL     1     -11.203  13.235  67.013  1.00  0.00    -0.303 S  
HETATM   12  O   UNL     1     -12.003  14.305  67.566  1.00  0.00    -0.389 OA 
HETATM   13  O   UNL     1      -9.955  13.482  66.322  1.00  0.00    -0.285 OA 
HETATM   14  C   UNL     1     -10.926  12.020  68.278  1.00  0.00    -0.234 C  
ENDBRANCH   9  10
ENDBRANCH   8   9
ENDBRANCH   7   8
ENDBRANCH   6   7
ENDBRANCH   3   6
TORSDOF 5
ENDMDL
MODEL       61
REMARK 921   NORMALIZED FREE ENERGY PREDICTED BY IDOCK:   -3.87 KCAL/MOL
REMARK 922        TOTAL FREE ENERGY PREDICTED BY IDOCK:   -5.20 KCAL/MOL
REMARK 923 INTER-LIGAND FREE ENERGY PREDICTED BY IDOCK:   -4.79 KCAL/MOL
REMARK 924 INTRA-LIGAND FREE ENERGY PREDICTED BY IDOCK:   -0.40 KCAL/MOL
REMARK 927      BINDING AFFINITY PREDICTED BY RF-SCORE:    0.00 PKD
ROOT
HETATM    1  C   UNL     1      -9.932   8.797  66.455  1.00  0.00    -0.275 C  
HETATM    2  S   UNL     1      -9.241   9.871  65.219  1.00  0.00    -0.246 S  
HETATM    3  O   UNL     1     -10.636  10.553  64.723  1.00  0.00    -0.253 OA 
HETATM    4  O   UNL     1      -8.448  10.884  65.880  1.00  0.00    -0.162 OA 
HETATM    5  O   UNL     1      -8.715   9.061  64.142  1.00  0.00    -0.181 OA 
ENDROOT
BRANCH   3   6
HETATM    6  C   UNL     1     -10.544  11.490  63.658  1.00  0.00    -0.429 C  
BRANCH   6   7
HETATM    7  C   UNL     1     -11.886  12.187  63.463  1.00  0.00    -0.597 C  
BRANCH   7   8
HETATM    8  C   UNL     1     -11.956  13.600  64.057  1.00  0.00    -0.478 C  
BRANCH   8   9
HETATM    9  C   UNL     1     -10.765  13.968  64.935  1.00  0.00    -0.418 C  
BRANCH   9  10
HETATM   10  O   UNL     1     -11.233  14.371  66.214  1.00  0.00    -0.325 OA 
HETATM   11  S   UNL     1     -11.165  13.267  67.410  1.00  0.00    -0.302 S  
HETATM   12  O   UNL     1      -9.776  13.036  67.739  1.00  0.00    -0.206 OA 
HETATM   13  O   UNL     1     -12.074  12.186  67.092  1.00  0.00    -0.575 OA 
HETATM   14  C   UNL     1     -11.891  14.271  68.681  1.00  0.00    -0.344 C  
ENDBRANCH   9  10
ENDBRANCH   8   9
ENDBRANCH   7   8
ENDBRANCH   6   7
ENDBRANCH   3   6
TORSDOF 5
ENDMDL
MODEL       62
REMARK 921   NORMALIZED FREE ENERGY PREDICTED BY IDOCK:   -3.86 KCAL/MOL
REMARK 922        TOTAL FREE ENERGY PREDICTED BY IDOCK:   -5.18 KCAL/MOL
REMARK 923 INTER-LIGAND FREE ENERGY PREDICTED BY IDOCK:   -4.97 KCAL/MOL
REMARK 924 INTRA-LIGAND FREE ENERGY PREDICTED BY IDOCK:   -0.21 KCAL/MOL
REMARK 927      BINDING AFFINITY PREDICTED BY RF-SCORE:    0.00 PKD
ROOT
HETATM    1  C   UNL     1     -13.892   7.590  71.540  1.00  0.00    -0.387 C  
HETATM    2  S   UNL     1     -12.655   8.801  71.938  1.00  0.00    -0.398 S  
HETATM    3  O   UNL     1     -11.942   8.869  70.474  1.00  0.00    -0.149 OA 
HETATM    4  O   UNL     1     -13.310  10.066  72.185  1.00  0.00    -0.444 OA 
HETATM    5  O   UNL     1     -11.721   8.220  72.878  1.00  0.00    -0.348 OA 
ENDROOT
BRANCH   3   6
HETATM    6  C   UNL     1     -10.816   9.728  70.351  1.00  0.00    -0.311 C  
BRANCH   6   7
HETATM    7  C   UNL     1     -10.193   9.572  68.968  1.00  0.00    -0.211 C  
BRANCH   7   8
HETATM    8  C   UNL     1     -11.006  10.210  67.833  1.00  0.00    -0.335 C  
BRANCH   8   9
HETATM    9  C   UNL     1     -11.567  11.588  68.166  1.00  0.00    -0.308 C  
BRANCH   9  10
HETATM   10  O   UNL     1     -12.123  12.163  66.992  1.00  0.00    -0.591 OA 
HETATM   11  S   UNL     1     -11.605  13.652  66.579  1.00  0.00    -0.386 S  
HETATM   12  O   UNL     1     -10.227  13.554  66.153  1.00  0.00    -0.288 OA 
HETATM   13  O   UNL     1     -12.033  14.589  67.596  1.00  0.00    -0.374 OA 
HETATM   14  C   UNL     1     -12.631  13.855  65.145  1.00  0.00    -0.434 C  
ENDBRANCH   9  10
ENDBRANCH   8   9
ENDBRANCH   7   8
ENDBRANCH   6   7
ENDBRANCH   3   6
TORSDOF 5
ENDMDL
MODEL       63
REMARK 921   NORMALIZED FREE ENERGY PREDICTED BY IDOCK:   -3.86 KCAL/MOL
REMARK 922        TOTAL FREE ENERGY PREDICTED BY IDOCK:   -5.18 KCAL/MOL
REMARK 923 INTER-LIGAND FREE ENERGY PREDICTED BY IDOCK:   -4.96 KCAL/MOL
REMARK 924 INTRA-LIGAND FREE ENERGY PREDICTED BY IDOCK:   -0.22 KCAL/MOL
REMARK 927      BINDING AFFINITY PREDICTED BY RF-SCORE:    0.00 PKD
ROOT
HETATM    1  C   UNL     1     -10.575  19.819  65.954  1.00  0.00    -0.453 C  
HETATM    2  S   UNL     1     -10.004  18.141  66.092  1.00  0.00    -0.248 S  
HETATM    3  O   UNL     1     -10.613  17.828  67.571  1.00  0.00    -0.377 OA 
HETATM    4  O   UNL     1     -10.713  17.332  65.126  1.00  0.00    -0.687 OA 
HETATM    5  O   UNL     1      -8.560  18.149  66.181  1.00  0.00    -0.456 OA 
ENDROOT
BRANCH   3   6
HETATM    6  C   UNL     1     -10.338  16.544  68.115  1.00  0.00    -0.296 C  
BRANCH   6   7
HETATM    7  C   UNL     1     -11.643  15.840  68.468  1.00  0.00    -0.367 C  
BRANCH   7   8
HETATM    8  C   UNL     1     -11.558  14.932  69.702  1.00  0.00    -0.337 C  
BRANCH   8   9
HETATM    9  C   UNL     1     -12.379  13.652  69.594  1.00  0.00    -0.203 C  
BRANCH   9  10
HETATM   10  O   UNL     1     -11.530  12.531  69.791  1.00  0.00    -0.233 OA 
HETATM   11  S   UNL     1     -10.891  11.842  68.461  1.00  0.00    -0.237 S  
HETATM   12  O   UNL     1      -9.929  12.758  67.889  1.00  0.00    -0.215 OA 
HETATM   13  O   UNL     1     -11.963  11.262  67.680  1.00  0.00    -0.634 OA 
HETATM   14  C   UNL     1     -10.013  10.537  69.286  1.00  0.00    -0.213 C  
ENDBRANCH   9  10
ENDBRANCH   8   9
ENDBRANCH   7   8
ENDBRANCH   6   7
ENDBRANCH   3   6
TORSDOF 5
ENDMDL
MODEL       64
REMARK 921   NORMALIZED FREE ENERGY PREDICTED BY IDOCK:   -3.85 KCAL/MOL
REMARK 922        TOTAL FREE ENERGY PREDICTED BY IDOCK:   -5.17 KCAL/MOL
REMARK 923 INTER-LIGAND FREE ENERGY PREDICTED BY IDOCK:   -4.85 KCAL/MOL
REMARK 924 INTRA-LIGAND FREE ENERGY PREDICTED BY IDOCK:   -0.31 KCAL/MOL
REMARK 927      BINDING AFFINITY PREDICTED BY RF-SCORE:    0.00 PKD
ROOT
HETATM    1  C   UNL     1     -10.873  16.790  67.855  1.00  0.00    -0.311 C  
HETATM    2  S   UNL     1     -10.125  15.835  66.556  1.00  0.00    -0.297 S  
HETATM    3  O   UNL     1     -11.395  14.862  66.247  1.00  0.00    -0.343 OA 
HETATM    4  O   UNL     1      -9.920  16.695  65.412  1.00  0.00    -0.565 OA 
HETATM    5  O   UNL     1      -9.059  15.036  67.122  1.00  0.00    -0.194 OA 
ENDROOT
BRANCH   3   6
HETATM    6  C   UNL     1     -11.206  13.863  65.252  1.00  0.00    -0.313 C  
BRANCH   6   7
HETATM    7  C   UNL     1     -11.645  12.506  65.791  1.00  0.00    -0.439 C  
BRANCH   7   8
HETATM    8  C   UNL     1     -11.911  12.481  67.302  1.00  0.00    -0.381 C  
BRANCH   8   9
HETATM    9  C   UNL     1     -11.296  11.288  68.025  1.00  0.00    -0.304 C  
BRANCH   9  10
HETATM   10  O   UNL     1     -12.260  10.723  68.900  1.00  0.00    -0.447 OA 
HETATM   11  S   UNL     1     -11.958  10.820  70.498  1.00  0.00    -0.387 S  
HETATM   12  O   UNL     1     -12.071  12.205  70.900  1.00  0.00    -0.303 OA 
HETATM   13  O   UNL     1     -10.787  10.023  70.797  1.00  0.00    -0.312 OA 
HETATM   14  C   UNL     1     -13.401   9.948  71.052  1.00  0.00    -0.256 C  
ENDBRANCH   9  10
ENDBRANCH   8   9
ENDBRANCH   7   8
ENDBRANCH   6   7
ENDBRANCH   3   6
TORSDOF 5
ENDMDL
MODEL       65
REMARK 921   NORMALIZED FREE ENERGY PREDICTED BY IDOCK:   -3.84 KCAL/MOL
REMARK 922        TOTAL FREE ENERGY PREDICTED BY IDOCK:   -5.15 KCAL/MOL
REMARK 923 INTER-LIGAND FREE ENERGY PREDICTED BY IDOCK:   -5.03 KCAL/MOL
REMARK 924 INTRA-LIGAND FREE ENERGY PREDICTED BY IDOCK:   -0.12 KCAL/MOL
REMARK 927      BINDING AFFINITY PREDICTED BY RF-SCORE:    0.00 PKD
ROOT
HETATM    1  C   UNL     1      -8.653  19.603  66.248  1.00  0.00    -0.366 C  
HETATM    2  S   UNL     1     -10.189  18.710  66.224  1.00  0.00    -0.421 S  
HETATM    3  O   UNL     1      -9.586  17.258  65.794  1.00  0.00    -0.528 OA 
HETATM    4  O   UNL     1     -10.688  18.614  67.578  1.00  0.00    -0.432 OA 
HETATM    5  O   UNL     1     -11.001  19.212  65.136  1.00  0.00    -0.464 OA 
ENDROOT
BRANCH   3   6
HETATM    6  C   UNL     1     -10.525  16.207  65.609  1.00  0.00    -0.383 C  
BRANCH   6   7
HETATM    7  C   UNL     1      -9.806  14.862  65.617  1.00  0.00    -0.372 C  
BRANCH   7   8
HETATM    8  C   UNL     1     -10.660  13.692  66.123  1.00  0.00    -0.291 C  
BRANCH   8   9
HETATM    9  C   UNL     1      -9.981  12.331  66.016  1.00  0.00    -0.252 C  
BRANCH   9  10
HETATM   10  O   UNL     1      -9.802  11.792  67.317  1.00  0.00    -0.184 OA 
HETATM   11  S   UNL     1     -10.877  10.671  67.810  1.00  0.00    -0.306 S  
HETATM   12  O   UNL     1     -10.668   9.468  67.036  1.00  0.00    -0.231 OA 
HETATM   13  O   UNL     1     -12.177  11.297  67.928  1.00  0.00    -0.570 OA 
HETATM   14  C   UNL     1     -10.211  10.424  69.437  1.00  0.00    -0.234 C  
ENDBRANCH   9  10
ENDBRANCH   8   9
ENDBRANCH   7   8
ENDBRANCH   6   7
ENDBRANCH   3   6
TORSDOF 5
ENDMDL
MODEL       66
REMARK 921   NORMALIZED FREE ENERGY PREDICTED BY IDOCK:   -3.84 KCAL/MOL
REMARK 922        TOTAL FREE ENERGY PREDICTED BY IDOCK:   -5.15 KCAL/MOL
REMARK 923 INTER-LIGAND FREE ENERGY PREDICTED BY IDOCK:   -4.97 KCAL/MOL
REMARK 924 INTRA-LIGAND FREE ENERGY PREDICTED BY IDOCK:   -0.19 KCAL/MOL
REMARK 927      BINDING AFFINITY PREDICTED BY RF-SCORE:    0.00 PKD
ROOT
HETATM    1  C   UNL     1     -11.190   6.884  70.331  1.00  0.00    -0.312 C  
HETATM    2  S   UNL     1     -12.177   7.629  71.607  1.00  0.00    -0.329 S  
HETATM    3  O   UNL     1     -12.256   9.127  70.971  1.00  0.00    -0.294 OA 
HETATM    4  O   UNL     1     -13.500   7.045  71.568  1.00  0.00    -0.360 OA 
HETATM    5  O   UNL     1     -11.395   7.686  72.824  1.00  0.00    -0.356 OA 
ENDROOT
BRANCH   3   6
HETATM    6  C   UNL     1     -12.952  10.107  71.730  1.00  0.00    -0.462 C  
BRANCH   6   7
HETATM    7  C   UNL     1     -12.726  11.488  71.126  1.00  0.00    -0.458 C  
BRANCH   7   8
HETATM    8  C   UNL     1     -11.927  11.482  69.816  1.00  0.00    -0.415 C  
BRANCH   8   9
HETATM    9  C   UNL     1     -11.636  12.869  69.255  1.00  0.00    -0.310 C  
BRANCH   9  10
HETATM   10  O   UNL     1     -11.890  13.843  70.257  1.00  0.00    -0.302 OA 
HETATM   11  S   UNL     1     -11.351  15.354  69.976  1.00  0.00    -0.338 S  
HETATM   12  O   UNL     1     -12.133  15.925  68.902  1.00  0.00    -0.315 OA 
HETATM   13  O   UNL     1      -9.904  15.331  69.948  1.00  0.00    -0.229 OA 
HETATM   14  C   UNL     1     -11.883  16.070  71.511  1.00  0.00    -0.486 C  
ENDBRANCH   9  10
ENDBRANCH   8   9
ENDBRANCH   7   8
ENDBRANCH   6   7
ENDBRANCH   3   6
TORSDOF 5
ENDMDL
MODEL       67
REMARK 921   NORMALIZED FREE ENERGY PREDICTED BY IDOCK:   -3.83 KCAL/MOL
REMARK 922        TOTAL FREE ENERGY PREDICTED BY IDOCK:   -5.14 KCAL/MOL
REMARK 923 INTER-LIGAND FREE ENERGY PREDICTED BY IDOCK:   -4.76 KCAL/MOL
REMARK 924 INTRA-LIGAND FREE ENERGY PREDICTED BY IDOCK:   -0.38 KCAL/MOL
REMARK 927      BINDING AFFINITY PREDICTED BY RF-SCORE:    0.00 PKD
ROOT
HETATM    1  C   UNL     1      -8.306  17.775  66.617  1.00  0.00    -0.259 C  
HETATM    2  S   UNL     1     -10.044  17.540  66.326  1.00  0.00    -0.315 S  
HETATM    3  O   UNL     1      -9.920  16.304  65.272  1.00  0.00    -0.505 OA 
HETATM    4  O   UNL     1     -10.652  17.045  67.541  1.00  0.00    -0.333 OA 
HETATM    5  O   UNL     1     -10.557  18.696  65.623  1.00  0.00    -0.610 OA 
ENDROOT
BRANCH   3   6
HETATM    6  C   UNL     1     -11.135  15.809  64.724  1.00  0.00    -0.400 C  
BRANCH   6   7
HETATM    7  C   UNL     1     -11.160  14.286  64.811  1.00  0.00    -0.398 C  
BRANCH   7   8
HETATM    8  C   UNL     1     -12.309  13.721  65.656  1.00  0.00    -0.517 C  
BRANCH   8   9
HETATM    9  C   UNL     1     -11.886  12.629  66.633  1.00  0.00    -0.380 C  
BRANCH   9  10
HETATM   10  O   UNL     1     -10.482  12.439  66.546  1.00  0.00    -0.227 OA 
HETATM   11  S   UNL     1      -9.625  12.600  67.922  1.00  0.00    -0.216 S  
HETATM   12  O   UNL     1      -9.949  11.493  68.793  1.00  0.00    -0.205 OA 
HETATM   13  O   UNL     1      -9.708  13.977  68.360  1.00  0.00    -0.217 OA 
HETATM   14  C   UNL     1      -8.019  12.319  67.219  1.00  0.00    -0.177 C  
ENDBRANCH   9  10
ENDBRANCH   8   9
ENDBRANCH   7   8
ENDBRANCH   6   7
ENDBRANCH   3   6
TORSDOF 5
ENDMDL
MODEL       68
REMARK 921   NORMALIZED FREE ENERGY PREDICTED BY IDOCK:   -3.83 KCAL/MOL
REMARK 922        TOTAL FREE ENERGY PREDICTED BY IDOCK:   -5.14 KCAL/MOL
REMARK 923 INTER-LIGAND FREE ENERGY PREDICTED BY IDOCK:   -4.90 KCAL/MOL
REMARK 924 INTRA-LIGAND FREE ENERGY PREDICTED BY IDOCK:   -0.25 KCAL/MOL
REMARK 927      BINDING AFFINITY PREDICTED BY RF-SCORE:    0.00 PKD
ROOT
HETATM    1  C   UNL     1      -8.458   8.184  68.597  1.00  0.00    -0.127 C  
HETATM    2  S   UNL     1     -10.159   8.699  68.575  1.00  0.00    -0.194 S  
HETATM    3  O   UNL     1      -9.902  10.296  68.780  1.00  0.00    -0.165 OA 
HETATM    4  O   UNL     1     -10.688   8.489  67.246  1.00  0.00    -0.279 OA 
HETATM    5  O   UNL     1     -10.815   8.183  69.757  1.00  0.00    -0.245 OA 
ENDROOT
BRANCH   3   6
HETATM    6  C   UNL     1     -11.056  11.121  68.869  1.00  0.00    -0.237 C  
BRANCH   6   7
HETATM    7  C   UNL     1     -10.701  12.553  68.483  1.00  0.00    -0.263 C  
BRANCH   7   8
HETATM    8  C   UNL     1     -11.909  13.486  68.333  1.00  0.00    -0.408 C  
BRANCH   8   9
HETATM    9  C   UNL     1     -12.042  14.119  66.953  1.00  0.00    -0.432 C  
BRANCH   9  10
HETATM   10  O   UNL     1     -12.259  13.100  65.989  1.00  0.00    -0.426 OA 
HETATM   11  S   UNL     1     -11.816  13.423  64.455  1.00  0.00    -0.429 S  
HETATM   12  O   UNL     1     -10.372  13.483  64.400  1.00  0.00    -0.433 OA 
HETATM   13  O   UNL     1     -12.652  14.490  63.947  1.00  0.00    -0.827 OA 
HETATM   14  C   UNL     1     -12.349  11.888  63.740  1.00  0.00    -0.434 C  
ENDBRANCH   9  10
ENDBRANCH   8   9
ENDBRANCH   7   8
ENDBRANCH   6   7
ENDBRANCH   3   6
TORSDOF 5
ENDMDL
MODEL       69
REMARK 921   NORMALIZED FREE ENERGY PREDICTED BY IDOCK:   -3.83 KCAL/MOL
REMARK 922        TOTAL FREE ENERGY PREDICTED BY IDOCK:   -5.14 KCAL/MOL
REMARK 923 INTER-LIGAND FREE ENERGY PREDICTED BY IDOCK:   -4.69 KCAL/MOL
REMARK 924 INTRA-LIGAND FREE ENERGY PREDICTED BY IDOCK:   -0.45 KCAL/MOL
REMARK 927      BINDING AFFINITY PREDICTED BY RF-SCORE:    0.00 PKD
ROOT
HETATM    1  C   UNL     1     -11.516  12.422  63.934  1.00  0.00    -0.436 C  
HETATM    2  S   UNL     1     -12.102  13.986  64.541  1.00  0.00    -0.455 S  
HETATM    3  O   UNL     1     -10.648  14.693  64.750  1.00  0.00    -0.421 OA 
HETATM    4  O   UNL     1     -12.791  14.668  63.468  1.00  0.00    -0.570 OA 
HETATM    5  O   UNL     1     -12.706  13.783  65.840  1.00  0.00    -0.467 OA 
ENDROOT
BRANCH   3   6
HETATM    6  C   UNL     1     -10.651  16.008  65.291  1.00  0.00    -0.402 C  
BRANCH   6   7
HETATM    7  C   UNL     1     -10.165  15.975  66.736  1.00  0.00    -0.275 C  
BRANCH   7   8
HETATM    8  C   UNL     1      -9.364  14.720  67.105  1.00  0.00    -0.233 C  
BRANCH   8   9
HETATM    9  C   UNL     1     -10.052  13.817  68.123  1.00  0.00    -0.245 C  
BRANCH   9  10
HETATM   10  O   UNL     1     -10.233  14.532  69.337  1.00  0.00    -0.158 OA 
HETATM   11  S   UNL     1     -11.715  14.487  70.011  1.00  0.00    -0.314 S  
HETATM   12  O   UNL     1     -11.954  13.147  70.499  1.00  0.00    -0.320 OA 
HETATM   13  O   UNL     1     -12.644  15.163  69.131  1.00  0.00     0.001 OA 
HETATM   14  C   UNL     1     -11.364  15.542  71.394  1.00  0.00    -0.395 C  
ENDBRANCH   9  10
ENDBRANCH   8   9
ENDBRANCH   7   8
ENDBRANCH   6   7
ENDBRANCH   3   6
TORSDOF 5
ENDMDL
MODEL       70
REMARK 921   NORMALIZED FREE ENERGY PREDICTED BY IDOCK:   -3.81 KCAL/MOL
REMARK 922        TOTAL FREE ENERGY PREDICTED BY IDOCK:   -5.11 KCAL/MOL
REMARK 923 INTER-LIGAND FREE ENERGY PREDICTED BY IDOCK:   -4.82 KCAL/MOL
REMARK 924 INTRA-LIGAND FREE ENERGY PREDICTED BY IDOCK:   -0.29 KCAL/MOL
REMARK 927      BINDING AFFINITY PREDICTED BY RF-SCORE:    0.00 PKD
ROOT
HETATM    1  C   UNL     1     -10.447  11.201  66.657  1.00  0.00    -0.250 C  
HETATM    2  S   UNL     1     -11.192  12.760  66.241  1.00  0.00    -0.316 S  
HETATM    3  O   UNL     1     -11.486  13.270  67.761  1.00  0.00    -0.281 OA 
HETATM    4  O   UNL     1     -10.180  13.615  65.661  1.00  0.00    -0.291 OA 
HETATM    5  O   UNL     1     -12.458  12.510  65.586  1.00  0.00    -0.648 OA 
ENDROOT
BRANCH   3   6
HETATM    6  C   UNL     1     -12.149  14.520  67.898  1.00  0.00    -0.226 C  
BRANCH   6   7
HETATM    7  C   UNL     1     -11.616  15.258  69.121  1.00  0.00    -0.349 C  
BRANCH   7   8
HETATM    8  C   UNL     1     -10.472  16.236  68.821  1.00  0.00    -0.282 C  
BRANCH   8   9
HETATM    9  C   UNL     1     -10.636  17.006  67.515  1.00  0.00    -0.310 C  
BRANCH   9  10
HETATM   10  O   UNL     1      -9.529  17.878  67.342  1.00  0.00    -0.254 OA 
HETATM   11  S   UNL     1      -9.820  19.477  67.454  1.00  0.00    -0.384 S  
HETATM   12  O   UNL     1     -10.140  19.787  68.830  1.00  0.00    -0.455 OA 
HETATM   13  O   UNL     1     -10.676  19.869  66.355  1.00  0.00    -0.454 OA 
HETATM   14  C   UNL     1      -8.166  20.028  67.118  1.00  0.00    -0.322 C  
ENDBRANCH   9  10
ENDBRANCH   8   9
ENDBRANCH   7   8
ENDBRANCH   6   7
ENDBRANCH   3   6
TORSDOF 5
ENDMDL
MODEL       71
REMARK 921   NORMALIZED FREE ENERGY PREDICTED BY IDOCK:   -3.81 KCAL/MOL
REMARK 922        TOTAL FREE ENERGY PREDICTED BY IDOCK:   -5.11 KCAL/MOL
REMARK 923 INTER-LIGAND FREE ENERGY PREDICTED BY IDOCK:   -4.90 KCAL/MOL
REMARK 924 INTRA-LIGAND FREE ENERGY PREDICTED BY IDOCK:   -0.21 KCAL/MOL
REMARK 927      BINDING AFFINITY PREDICTED BY RF-SCORE:    0.00 PKD
ROOT
HETATM    1  C   UNL     1      -6.675  17.552  69.200  1.00  0.00    -0.243 C  
HETATM    2  S   UNL     1      -7.448  16.919  67.731  1.00  0.00    -0.168 S  
HETATM    3  O   UNL     1      -8.518  15.929  68.461  1.00  0.00    -0.168 OA 
HETATM    4  O   UNL     1      -8.179  17.992  67.095  1.00  0.00    -0.214 OA 
HETATM    5  O   UNL     1      -6.487  16.109  67.013  1.00  0.00    -0.236 OA 
ENDROOT
BRANCH   3   6
HETATM    6  C   UNL     1      -9.353  15.154  67.611  1.00  0.00    -0.189 C  
BRANCH   6   7
HETATM    7  C   UNL     1     -10.400  14.419  68.442  1.00  0.00    -0.244 C  
BRANCH   7   8
HETATM    8  C   UNL     1     -11.132  13.301  67.690  1.00  0.00    -0.292 C  
BRANCH   8   9
HETATM    9  C   UNL     1     -12.281  13.787  66.813  1.00  0.00    -0.397 C  
BRANCH   9  10
HETATM   10  O   UNL     1     -12.438  12.902  65.714  1.00  0.00    -0.531 OA 
HETATM   11  S   UNL     1     -11.821  13.379  64.284  1.00  0.00    -0.441 S  
HETATM   12  O   UNL     1     -10.378  13.365  64.382  1.00  0.00    -0.425 OA 
HETATM   13  O   UNL     1     -12.552  14.543  63.830  1.00  0.00    -0.825 OA 
HETATM   14  C   UNL     1     -12.340  11.971  63.335  1.00  0.00    -0.523 C  
ENDBRANCH   9  10
ENDBRANCH   8   9
ENDBRANCH   7   8
ENDBRANCH   6   7
ENDBRANCH   3   6
TORSDOF 5
ENDMDL
MODEL       72
REMARK 921   NORMALIZED FREE ENERGY PREDICTED BY IDOCK:   -3.79 KCAL/MOL
REMARK 922        TOTAL FREE ENERGY PREDICTED BY IDOCK:   -5.09 KCAL/MOL
REMARK 923 INTER-LIGAND FREE ENERGY PREDICTED BY IDOCK:   -4.79 KCAL/MOL
REMARK 924 INTRA-LIGAND FREE ENERGY PREDICTED BY IDOCK:   -0.30 KCAL/MOL
REMARK 927      BINDING AFFINITY PREDICTED BY RF-SCORE:    0.00 PKD
ROOT
HETATM    1  C   UNL     1     -12.205   6.476  71.708  1.00  0.00    -0.322 C  
HETATM    2  S   UNL     1     -11.789   8.131  72.203  1.00  0.00    -0.383 S  
HETATM    3  O   UNL     1     -11.358   8.692  70.734  1.00  0.00    -0.261 OA 
HETATM    4  O   UNL     1     -12.999   8.808  72.613  1.00  0.00    -0.389 OA 
HETATM    5  O   UNL     1     -10.611   8.082  73.041  1.00  0.00    -0.353 OA 
ENDROOT
BRANCH   3   6
HETATM    6  C   UNL     1     -10.891  10.034  70.676  1.00  0.00    -0.297 C  
BRANCH   6   7
HETATM    7  C   UNL     1     -11.957  10.927  70.051  1.00  0.00    -0.429 C  
BRANCH   7   8
HETATM    8  C   UNL     1     -12.561  11.958  71.013  1.00  0.00    -0.381 C  
BRANCH   8   9
HETATM    9  C   UNL     1     -12.354  13.407  70.587  1.00  0.00    -0.348 C  
BRANCH   9  10
HETATM   10  O   UNL     1     -12.272  13.472  69.171  1.00  0.00    -0.307 OA 
HETATM   11  S   UNL     1     -11.286  14.603  68.536  1.00  0.00    -0.300 S  
HETATM   12  O   UNL     1      -9.919  14.230  68.825  1.00  0.00    -0.231 OA 
HETATM   13  O   UNL     1     -11.814  15.911  68.859  1.00  0.00    -0.397 OA 
HETATM   14  C   UNL     1     -11.621  14.257  66.827  1.00  0.00    -0.391 C  
ENDBRANCH   9  10
ENDBRANCH   8   9
ENDBRANCH   7   8
ENDBRANCH   6   7
ENDBRANCH   3   6
TORSDOF 5
ENDMDL
MODEL       73
REMARK 921   NORMALIZED FREE ENERGY PREDICTED BY IDOCK:   -3.79 KCAL/MOL
REMARK 922        TOTAL FREE ENERGY PREDICTED BY IDOCK:   -5.08 KCAL/MOL
REMARK 923 INTER-LIGAND FREE ENERGY PREDICTED BY IDOCK:   -4.73 KCAL/MOL
REMARK 924 INTRA-LIGAND FREE ENERGY PREDICTED BY IDOCK:   -0.35 KCAL/MOL
REMARK 927      BINDING AFFINITY PREDICTED BY RF-SCORE:    0.00 PKD
ROOT
HETATM    1  C   UNL     1     -11.603   9.940  70.355  1.00  0.00    -0.282 C  
HETATM    2  S   UNL     1     -10.206   9.512  69.343  1.00  0.00    -0.219 S  
HETATM    3  O   UNL     1     -10.473  10.584  68.145  1.00  0.00    -0.166 OA 
HETATM    4  O   UNL     1      -8.998   9.896  70.038  1.00  0.00    -0.217 OA 
HETATM    5  O   UNL     1     -10.405   8.178  68.820  1.00  0.00    -0.205 OA 
ENDROOT
BRANCH   3   6
HETATM    6  C   UNL     1      -9.569  10.553  67.048  1.00  0.00    -0.173 C  
BRANCH   6   7
HETATM    7  C   UNL     1     -10.236   9.893  65.845  1.00  0.00    -0.264 C  
BRANCH   7   8
HETATM    8  C   UNL     1      -9.613  10.267  64.494  1.00  0.00    -0.378 C  
BRANCH   8   9
HETATM    9  C   UNL     1     -10.495  11.156  63.624  1.00  0.00    -0.376 C  
BRANCH   9  10
HETATM   10  O   UNL     1     -10.499  12.474  64.155  1.00  0.00    -0.351 OA 
HETATM   11  S   UNL     1     -11.950  13.130  64.498  1.00  0.00    -0.415 S  
HETATM   12  O   UNL     1     -12.512  12.428  65.630  1.00  0.00    -0.640 OA 
HETATM   13  O   UNL     1     -12.680  13.310  63.261  1.00  0.00    -0.658 OA 
HETATM   14  C   UNL     1     -11.356  14.711  65.047  1.00  0.00    -0.390 C  
ENDBRANCH   9  10
ENDBRANCH   8   9
ENDBRANCH   7   8
ENDBRANCH   6   7
ENDBRANCH   3   6
TORSDOF 5
ENDMDL
MODEL       74
REMARK 921   NORMALIZED FREE ENERGY PREDICTED BY IDOCK:   -3.78 KCAL/MOL
REMARK 922        TOTAL FREE ENERGY PREDICTED BY IDOCK:   -5.07 KCAL/MOL
REMARK 923 INTER-LIGAND FREE ENERGY PREDICTED BY IDOCK:   -4.58 KCAL/MOL
REMARK 924 INTRA-LIGAND FREE ENERGY PREDICTED BY IDOCK:   -0.49 KCAL/MOL
REMARK 927      BINDING AFFINITY PREDICTED BY RF-SCORE:    0.00 PKD
ROOT
HETATM    1  C   UNL     1      -9.576   8.986  65.926  1.00  0.00    -0.247 C  
HETATM    2  S   UNL     1      -9.965  10.713  66.075  1.00  0.00    -0.250 S  
HETATM    3  O   UNL     1     -10.419  10.965  64.530  1.00  0.00    -0.346 OA 
HETATM    4  O   UNL     1     -11.130  10.852  66.921  1.00  0.00    -0.259 OA 
HETATM    5  O   UNL     1      -8.742  11.445  66.321  1.00  0.00    -0.179 OA 
ENDROOT
BRANCH   3   6
HETATM    6  C   UNL     1     -10.787  12.293  64.182  1.00  0.00    -0.365 C  
BRANCH   6   7
HETATM    7  C   UNL     1     -12.307  12.412  64.124  1.00  0.00    -0.558 C  
BRANCH   7   8
HETATM    8  C   UNL     1     -12.890  13.508  65.025  1.00  0.00    -0.330 C  
BRANCH   8   9
HETATM    9  C   UNL     1     -11.866  14.178  65.935  1.00  0.00    -0.384 C  
BRANCH   9  10
HETATM   10  O   UNL     1     -12.270  14.025  67.288  1.00  0.00    -0.405 OA 
HETATM   11  S   UNL     1     -11.299  14.665  68.429  1.00  0.00    -0.307 S  
HETATM   12  O   UNL     1     -11.370  16.106  68.332  1.00  0.00    -0.366 OA 
HETATM   13  O   UNL     1     -10.039  13.952  68.416  1.00  0.00    -0.228 OA 
HETATM   14  C   UNL     1     -12.239  14.142  69.841  1.00  0.00    -0.359 C  
ENDBRANCH   9  10
ENDBRANCH   8   9
ENDBRANCH   7   8
ENDBRANCH   6   7
ENDBRANCH   3   6
TORSDOF 5
ENDMDL
MODEL       75
REMARK 921   NORMALIZED FREE ENERGY PREDICTED BY IDOCK:   -3.78 KCAL/MOL
REMARK 922        TOTAL FREE ENERGY PREDICTED BY IDOCK:   -5.07 KCAL/MOL
REMARK 923 INTER-LIGAND FREE ENERGY PREDICTED BY IDOCK:   -4.90 KCAL/MOL
REMARK 924 INTRA-LIGAND FREE ENERGY PREDICTED BY IDOCK:   -0.18 KCAL/MOL
REMARK 927      BINDING AFFINITY PREDICTED BY RF-SCORE:    0.00 PKD
ROOT
HETATM    1  C   UNL     1      -9.803  20.176  66.844  1.00  0.00    -0.454 C  
HETATM    2  S   UNL     1     -10.343  18.526  66.466  1.00  0.00    -0.413 S  
HETATM    3  O   UNL     1      -8.875  17.819  66.440  1.00  0.00    -0.305 OA 
HETATM    4  O   UNL     1     -11.078  18.010  67.599  1.00  0.00    -0.209 OA 
HETATM    5  O   UNL     1     -10.885  18.512  65.124  1.00  0.00    -0.588 OA 
ENDROOT
BRANCH   3   6
HETATM    6  C   UNL     1      -8.838  16.436  66.115  1.00  0.00    -0.314 C  
BRANCH   6   7
HETATM    7  C   UNL     1      -8.380  15.631  67.326  1.00  0.00    -0.209 C  
BRANCH   7   8
HETATM    8  C   UNL     1      -9.487  15.343  68.349  1.00  0.00    -0.200 C  
BRANCH   8   9
HETATM    9  C   UNL     1     -10.167  13.990  68.168  1.00  0.00    -0.243 C  
BRANCH   9  10
HETATM   10  O   UNL     1     -11.136  14.086  67.135  1.00  0.00    -0.291 OA 
HETATM   11  S   UNL     1     -11.427  12.742  66.263  1.00  0.00    -0.375 S  
HETATM   12  O   UNL     1     -12.097  11.782  67.113  1.00  0.00    -0.592 OA 
HETATM   13  O   UNL     1     -10.233  12.409  65.515  1.00  0.00    -0.265 OA 
HETATM   14  C   UNL     1     -12.620  13.448  65.154  1.00  0.00    -0.440 C  
ENDBRANCH   9  10
ENDBRANCH   8   9
ENDBRANCH   7   8
ENDBRANCH   6   7
ENDBRANCH   3   6
TORSDOF 5
ENDMDL
MODEL       76
REMARK 921   NORMALIZED FREE ENERGY PREDICTED BY IDOCK:   -3.75 KCAL/MOL
REMARK 922        TOTAL FREE ENERGY PREDICTED BY IDOCK:   -5.04 KCAL/MOL
REMARK 923 INTER-LIGAND FREE ENERGY PREDICTED BY IDOCK:   -4.82 KCAL/MOL
REMARK 924 INTRA-LIGAND FREE ENERGY PREDICTED BY IDOCK:   -0.22 KCAL/MOL
REMARK 927      BINDING AFFINITY PREDICTED BY RF-SCORE:    0.00 PKD
ROOT
HETATM    1  C   UNL     1     -13.582  13.261  72.380  1.00  0.00    -0.594 C  
HETATM    2  S   UNL     1     -12.884  14.831  71.929  1.00  0.00    -0.346 S  
HETATM    3  O   UNL     1     -11.908  14.298  70.738  1.00  0.00    -0.307 OA 
HETATM    4  O   UNL     1     -13.923  15.645  71.337  1.00  0.00    -0.540 OA 
HETATM    5  O   UNL     1     -12.061  15.305  73.021  1.00  0.00    -0.378 OA 
ENDROOT
BRANCH   3   6
HETATM    6  C   UNL     1     -11.090  15.270  70.100  1.00  0.00    -0.293 C  
BRANCH   6   7
HETATM    7  C   UNL     1     -11.272  15.189  68.588  1.00  0.00    -0.295 C  
BRANCH   7   8
HETATM    8  C   UNL     1     -10.757  16.416  67.823  1.00  0.00    -0.328 C  
BRANCH   8   9
HETATM    9  C   UNL     1      -9.251  16.632  67.931  1.00  0.00    -0.219 C  
BRANCH   9  10
HETATM   10  O   UNL     1      -8.896  17.814  67.228  1.00  0.00    -0.233 OA 
HETATM   11  S   UNL     1      -8.373  19.076  68.116  1.00  0.00    -0.324 S  
HETATM   12  O   UNL     1      -7.078  18.741  68.665  1.00  0.00    -0.274 OA 
HETATM   13  O   UNL     1      -9.464  19.543  68.943  1.00  0.00    -0.387 OA 
HETATM   14  C   UNL     1      -8.144  20.214  66.773  1.00  0.00    -0.306 C  
ENDBRANCH   9  10
ENDBRANCH   8   9
ENDBRANCH   7   8
ENDBRANCH   6   7
ENDBRANCH   3   6
TORSDOF 5
ENDMDL
MODEL       77
REMARK 921   NORMALIZED FREE ENERGY PREDICTED BY IDOCK:   -3.75 KCAL/MOL
REMARK 922        TOTAL FREE ENERGY PREDICTED BY IDOCK:   -5.04 KCAL/MOL
REMARK 923 INTER-LIGAND FREE ENERGY PREDICTED BY IDOCK:   -4.78 KCAL/MOL
REMARK 924 INTRA-LIGAND FREE ENERGY PREDICTED BY IDOCK:   -0.26 KCAL/MOL
REMARK 927      BINDING AFFINITY PREDICTED BY RF-SCORE:    0.00 PKD
ROOT
HETATM    1  C   UNL     1     -11.559  12.762  65.995  1.00  0.00    -0.383 C  
HETATM    2  S   UNL     1     -10.509  11.711  66.969  1.00  0.00    -0.233 S  
HETATM    3  O   UNL     1     -11.668  11.067  67.917  1.00  0.00    -0.551 OA 
HETATM    4  O   UNL     1      -9.984  10.666  66.118  1.00  0.00    -0.211 OA 
HETATM    5  O   UNL     1      -9.652  12.541  67.788  1.00  0.00    -0.191 OA 
ENDROOT
BRANCH   3   6
HETATM    6  C   UNL     1     -11.239  10.159  68.922  1.00  0.00    -0.170 C  
BRANCH   6   7
HETATM    7  C   UNL     1     -11.446  10.775  70.301  1.00  0.00    -0.406 C  
BRANCH   7   8
HETATM    8  C   UNL     1     -12.901  10.758  70.789  1.00  0.00    -0.408 C  
BRANCH   8   9
HETATM    9  C   UNL     1     -13.211  11.795  71.863  1.00  0.00    -0.362 C  
BRANCH   9  10
HETATM   10  O   UNL     1     -12.443  12.965  71.621  1.00  0.00    -0.158 OA 
HETATM   11  S   UNL     1     -13.123  14.393  72.013  1.00  0.00    -0.391 S  
HETATM   12  O   UNL     1     -13.213  14.475  73.454  1.00  0.00    -0.592 OA 
HETATM   13  O   UNL     1     -14.268  14.611  71.155  1.00  0.00    -0.337 OA 
HETATM   14  C   UNL     1     -11.791  15.432  71.467  1.00  0.00    -0.387 C  
ENDBRANCH   9  10
ENDBRANCH   8   9
ENDBRANCH   7   8
ENDBRANCH   6   7
ENDBRANCH   3   6
TORSDOF 5
ENDMDL
MODEL       78
REMARK 921   NORMALIZED FREE ENERGY PREDICTED BY IDOCK:   -3.73 KCAL/MOL
REMARK 922        TOTAL FREE ENERGY PREDICTED BY IDOCK:   -5.01 KCAL/MOL
REMARK 923 INTER-LIGAND FREE ENERGY PREDICTED BY IDOCK:   -4.78 KCAL/MOL
REMARK 924 INTRA-LIGAND FREE ENERGY PREDICTED BY IDOCK:   -0.23 KCAL/MOL
REMARK 927      BINDING AFFINITY PREDICTED BY RF-SCORE:    0.00 PKD
ROOT
HETATM    1  C   UNL     1     -10.537   9.116  67.249  1.00  0.00    -0.233 C  
HETATM    2  S   UNL     1     -10.288  10.733  66.555  1.00  0.00    -0.238 S  
HETATM    3  O   UNL     1     -11.664  11.415  67.100  1.00  0.00    -0.556 OA 
HETATM    4  O   UNL     1      -9.171  11.357  67.229  1.00  0.00    -0.162 OA 
HETATM    5  O   UNL     1     -10.362  10.635  65.113  1.00  0.00    -0.299 OA 
ENDROOT
BRANCH   3   6
HETATM    6  C   UNL     1     -11.903  12.763  66.718  1.00  0.00    -0.382 C  
BRANCH   6   7
HETATM    7  C   UNL     1     -11.579  13.696  67.881  1.00  0.00    -0.376 C  
BRANCH   7   8
HETATM    8  C   UNL     1     -10.635  14.851  67.521  1.00  0.00    -0.266 C  
BRANCH   8   9
HETATM    9  C   UNL     1     -11.077  16.209  68.055  1.00  0.00    -0.317 C  
BRANCH   9  10
HETATM   10  O   UNL     1      -9.983  17.112  68.002  1.00  0.00    -0.272 OA 
HETATM   11  S   UNL     1     -10.132  18.398  67.012  1.00  0.00    -0.386 S  
HETATM   12  O   UNL     1     -11.131  19.285  67.564  1.00  0.00    -0.423 OA 
HETATM   13  O   UNL     1     -10.189  17.925  65.645  1.00  0.00    -0.589 OA 
HETATM   14  C   UNL     1      -8.526  19.095  67.310  1.00  0.00    -0.278 C  
ENDBRANCH   9  10
ENDBRANCH   8   9
ENDBRANCH   7   8
ENDBRANCH   6   7
ENDBRANCH   3   6
TORSDOF 5
ENDMDL
MODEL       79
REMARK 921   NORMALIZED FREE ENERGY PREDICTED BY IDOCK:   -3.72 KCAL/MOL
REMARK 922        TOTAL FREE ENERGY PREDICTED BY IDOCK:   -5.00 KCAL/MOL
REMARK 923 INTER-LIGAND FREE ENERGY PREDICTED BY IDOCK:   -4.70 KCAL/MOL
REMARK 924 INTRA-LIGAND FREE ENERGY PREDICTED BY IDOCK:   -0.30 KCAL/MOL
REMARK 927      BINDING AFFINITY PREDICTED BY RF-SCORE:    0.00 PKD
ROOT
HETATM    1  C   UNL     1     -10.455  19.748  66.095  1.00  0.00    -0.509 C  
HETATM    2  S   UNL     1      -9.009  18.841  66.589  1.00  0.00    -0.320 S  
HETATM    3  O   UNL     1      -9.414  17.411  65.921  1.00  0.00    -0.512 OA 
HETATM    4  O   UNL     1      -7.866  19.370  65.878  1.00  0.00    -0.371 OA 
HETATM    5  O   UNL     1      -9.022  18.696  68.029  1.00  0.00    -0.288 OA 
ENDROOT
BRANCH   3   6
HETATM    6  C   UNL     1      -8.509  16.333  66.124  1.00  0.00    -0.278 C  
BRANCH   6   7
HETATM    7  C   UNL     1      -9.063  15.384  67.182  1.00  0.00    -0.236 C  
BRANCH   7   8
HETATM    8  C   UNL     1     -10.595  15.336  67.248  1.00  0.00    -0.290 C  
BRANCH   8   9
HETATM    9  C   UNL     1     -11.195  13.987  66.865  1.00  0.00    -0.313 C  
BRANCH   9  10
HETATM   10  O   UNL     1     -10.433  12.949  67.464  1.00  0.00    -0.220 OA 
HETATM   11  S   UNL     1     -11.206  11.972  68.513  1.00  0.00    -0.282 S  
HETATM   12  O   UNL     1     -12.149  11.163  67.773  1.00  0.00    -0.606 OA 
HETATM   13  O   UNL     1     -11.597  12.752  69.668  1.00  0.00    -0.287 OA 
HETATM   14  C   UNL     1      -9.811  10.963  68.948  1.00  0.00    -0.192 C  
ENDBRANCH   9  10
ENDBRANCH   8   9
ENDBRANCH   7   8
ENDBRANCH   6   7
ENDBRANCH   3   6
TORSDOF 5
ENDMDL
MODEL       80
REMARK 921   NORMALIZED FREE ENERGY PREDICTED BY IDOCK:   -3.71 KCAL/MOL
REMARK 922        TOTAL FREE ENERGY PREDICTED BY IDOCK:   -4.98 KCAL/MOL
REMARK 923 INTER-LIGAND FREE ENERGY PREDICTED BY IDOCK:   -4.73 KCAL/MOL
REMARK 924 INTRA-LIGAND FREE ENERGY PREDICTED BY IDOCK:   -0.25 KCAL/MOL
REMARK 927      BINDING AFFINITY PREDICTED BY RF-SCORE:    0.00 PKD
ROOT
HETATM    1  C   UNL     1      -6.370  16.263  67.144  1.00  0.00    -0.160 C  
HETATM    2  S   UNL     1      -7.980  16.979  66.913  1.00  0.00    -0.246 S  
HETATM    3  O   UNL     1      -8.798  15.591  66.668  1.00  0.00    -0.242 OA 
HETATM    4  O   UNL     1      -8.415  17.549  68.169  1.00  0.00    -0.238 OA 
HETATM    5  O   UNL     1      -7.979  17.737  65.681  1.00  0.00    -0.532 OA 
ENDROOT
BRANCH   3   6
HETATM    6  C   UNL     1     -10.187  15.710  66.386  1.00  0.00    -0.290 C  
BRANCH   6   7
HETATM    7  C   UNL     1     -10.903  14.414  66.749  1.00  0.00    -0.301 C  
BRANCH   7   8
HETATM    8  C   UNL     1     -11.852  14.531  67.949  1.00  0.00    -0.370 C  
BRANCH   8   9
HETATM    9  C   UNL     1     -11.355  15.463  69.049  1.00  0.00    -0.316 C  
BRANCH   9  10
HETATM   10  O   UNL     1     -12.392  15.660  69.999  1.00  0.00    -0.369 OA 
HETATM   11  S   UNL     1     -12.286  14.825  71.395  1.00  0.00    -0.361 S  
HETATM   12  O   UNL     1     -11.176  15.351  72.158  1.00  0.00    -0.404 OA 
HETATM   13  O   UNL     1     -12.421  13.415  71.101  1.00  0.00    -0.362 OA 
HETATM   14  C   UNL     1     -13.799  15.407  72.118  1.00  0.00    -0.534 C  
ENDBRANCH   9  10
ENDBRANCH   8   9
ENDBRANCH   7   8
ENDBRANCH   6   7
ENDBRANCH   3   6
TORSDOF 5
ENDMDL
MODEL       81
REMARK 921   NORMALIZED FREE ENERGY PREDICTED BY IDOCK:   -3.70 KCAL/MOL
REMARK 922        TOTAL FREE ENERGY PREDICTED BY IDOCK:   -4.97 KCAL/MOL
REMARK 923 INTER-LIGAND FREE ENERGY PREDICTED BY IDOCK:   -4.78 KCAL/MOL
REMARK 924 INTRA-LIGAND FREE ENERGY PREDICTED BY IDOCK:   -0.19 KCAL/MOL
REMARK 927      BINDING AFFINITY PREDICTED BY RF-SCORE:    0.00 PKD
ROOT
HETATM    1  C   UNL     1     -12.907   7.198  71.435  1.00  0.00    -0.384 C  
HETATM    2  S   UNL     1     -11.344   8.016  71.220  1.00  0.00    -0.270 S  
HETATM    3  O   UNL     1     -11.903   9.360  70.487  1.00  0.00    -0.243 OA 
HETATM    4  O   UNL     1     -10.834   8.385  72.522  1.00  0.00    -0.344 OA 
HETATM    5  O   UNL     1     -10.555   7.266  70.267  1.00  0.00    -0.218 OA 
ENDROOT
BRANCH   3   6
HETATM    6  C   UNL     1     -10.933  10.315  70.081  1.00  0.00    -0.314 C  
BRANCH   6   7
HETATM    7  C   UNL     1     -11.505  11.199  68.978  1.00  0.00    -0.364 C  
BRANCH   7   8
HETATM    8  C   UNL     1     -11.030  12.657  69.026  1.00  0.00    -0.240 C  
BRANCH   8   9
HETATM    9  C   UNL     1     -12.127  13.661  69.366  1.00  0.00    -0.314 C  
BRANCH   9  10
HETATM   10  O   UNL     1     -12.082  13.951  70.755  1.00  0.00    -0.334 OA 
HETATM   11  S   UNL     1     -12.489  15.461  71.210  1.00  0.00    -0.437 S  
HETATM   12  O   UNL     1     -13.907  15.638  70.988  1.00  0.00    -0.567 OA 
HETATM   13  O   UNL     1     -11.505  16.384  70.686  1.00  0.00    -0.347 OA 
HETATM   14  C   UNL     1     -12.209  15.253  72.951  1.00  0.00    -0.408 C  
ENDBRANCH   9  10
ENDBRANCH   8   9
ENDBRANCH   7   8
ENDBRANCH   6   7
ENDBRANCH   3   6
TORSDOF 5
ENDMDL
MODEL       82
REMARK 921   NORMALIZED FREE ENERGY PREDICTED BY IDOCK:   -3.67 KCAL/MOL
REMARK 922        TOTAL FREE ENERGY PREDICTED BY IDOCK:   -4.94 KCAL/MOL
REMARK 923 INTER-LIGAND FREE ENERGY PREDICTED BY IDOCK:   -4.67 KCAL/MOL
REMARK 924 INTRA-LIGAND FREE ENERGY PREDICTED BY IDOCK:   -0.27 KCAL/MOL
REMARK 927      BINDING AFFINITY PREDICTED BY RF-SCORE:    0.00 PKD
ROOT
HETATM    1  C   UNL     1     -13.009  13.963  65.575  1.00  0.00    -0.332 C  
HETATM    2  S   UNL     1     -11.832  13.637  64.284  1.00  0.00    -0.421 S  
HETATM    3  O   UNL     1     -11.630  12.046  64.574  1.00  0.00    -0.339 OA 
HETATM    4  O   UNL     1     -12.494  13.789  63.007  1.00  0.00    -0.712 OA 
HETATM    5  O   UNL     1     -10.597  14.323  64.598  1.00  0.00    -0.421 OA 
ENDROOT
BRANCH   3   6
HETATM    6  C   UNL     1     -10.689  11.363  63.755  1.00  0.00    -0.403 C  
BRANCH   6   7
HETATM    7  C   UNL     1      -9.877  10.389  64.602  1.00  0.00    -0.405 C  
BRANCH   7   8
HETATM    8  C   UNL     1     -10.158  10.473  66.107  1.00  0.00    -0.306 C  
BRANCH   8   9
HETATM    9  C   UNL     1     -10.211   9.121  66.810  1.00  0.00    -0.261 C  
BRANCH   9  10
HETATM   10  O   UNL     1      -9.429   9.177  67.993  1.00  0.00    -0.140 OA 
HETATM   11  S   UNL     1     -10.231   9.229  69.410  1.00  0.00    -0.219 S  
HETATM   12  O   UNL     1     -10.869   7.949  69.621  1.00  0.00    -0.242 OA 
HETATM   13  O   UNL     1     -10.961  10.477  69.482  1.00  0.00    -0.228 OA 
HETATM   14  C   UNL     1      -8.809   9.336  70.468  1.00  0.00    -0.241 C  
ENDBRANCH   9  10
ENDBRANCH   8   9
ENDBRANCH   7   8
ENDBRANCH   6   7
ENDBRANCH   3   6
TORSDOF 5
ENDMDL
MODEL       83
REMARK 921   NORMALIZED FREE ENERGY PREDICTED BY IDOCK:   -3.66 KCAL/MOL
REMARK 922        TOTAL FREE ENERGY PREDICTED BY IDOCK:   -4.91 KCAL/MOL
REMARK 923 INTER-LIGAND FREE ENERGY PREDICTED BY IDOCK:   -4.57 KCAL/MOL
REMARK 924 INTRA-LIGAND FREE ENERGY PREDICTED BY IDOCK:   -0.34 KCAL/MOL
REMARK 927      BINDING AFFINITY PREDICTED BY RF-SCORE:    0.00 PKD
ROOT
HETATM    1  C   UNL     1      -8.786   8.579  69.902  1.00  0.00    -0.137 C  
HETATM    2  S   UNL     1      -9.981   9.437  68.904  1.00  0.00    -0.186 S  
HETATM    3  O   UNL     1     -10.923   9.982  70.117  1.00  0.00    -0.265 OA 
HETATM    4  O   UNL     1      -9.334  10.572  68.284  1.00  0.00    -0.147 OA 
HETATM    5  O   UNL     1     -10.731   8.464  68.140  1.00  0.00    -0.152 OA 
ENDROOT
BRANCH   3   6
HETATM    6  C   UNL     1     -12.080  10.719  69.745  1.00  0.00    -0.318 C  
BRANCH   6   7
HETATM    7  C   UNL     1     -11.919  12.179  70.154  1.00  0.00    -0.394 C  
BRANCH   7   8
HETATM    8  C   UNL     1     -11.679  13.141  68.984  1.00  0.00    -0.367 C  
BRANCH   8   9
HETATM    9  C   UNL     1     -12.015  12.556  67.616  1.00  0.00    -0.221 C  
BRANCH   9  10
HETATM   10  O   UNL     1     -12.106  13.608  66.666  1.00  0.00    -0.404 OA 
HETATM   11  S   UNL     1     -12.011  13.196  65.093  1.00  0.00    -0.422 S  
HETATM   12  O   UNL     1     -13.209  12.467  64.739  1.00  0.00    -0.839 OA 
HETATM   13  O   UNL     1     -10.686  12.677  64.830  1.00  0.00    -0.283 OA 
HETATM   14  C   UNL     1     -12.126  14.837  64.425  1.00  0.00    -0.440 C  
ENDBRANCH   9  10
ENDBRANCH   8   9
ENDBRANCH   7   8
ENDBRANCH   6   7
ENDBRANCH   3   6
TORSDOF 5
ENDMDL
MODEL       84
REMARK 921   NORMALIZED FREE ENERGY PREDICTED BY IDOCK:   -3.64 KCAL/MOL
REMARK 922        TOTAL FREE ENERGY PREDICTED BY IDOCK:   -4.89 KCAL/MOL
REMARK 923 INTER-LIGAND FREE ENERGY PREDICTED BY IDOCK:   -4.52 KCAL/MOL
REMARK 924 INTRA-LIGAND FREE ENERGY PREDICTED BY IDOCK:   -0.38 KCAL/MOL
REMARK 927      BINDING AFFINITY PREDICTED BY RF-SCORE:    0.00 PKD
ROOT
HETATM    1  C   UNL     1     -12.616  11.885  63.361  1.00  0.00    -0.431 C  
HETATM    2  S   UNL     1     -11.185  11.904  64.414  1.00  0.00    -0.331 S  
HETATM    3  O   UNL     1     -11.967  12.011  65.839  1.00  0.00    -0.540 OA 
HETATM    4  O   UNL     1     -10.541  10.611  64.341  1.00  0.00    -0.308 OA 
HETATM    5  O   UNL     1     -10.462  13.138  64.192  1.00  0.00    -0.421 OA 
ENDROOT
BRANCH   3   6
HETATM    6  C   UNL     1     -11.159  12.101  67.005  1.00  0.00    -0.294 C  
BRANCH   6   7
HETATM    7  C   UNL     1     -11.674  13.218  67.907  1.00  0.00    -0.395 C  
BRANCH   7   8
HETATM    8  C   UNL     1     -12.139  14.472  67.157  1.00  0.00    -0.301 C  
BRANCH   8   9
HETATM    9  C   UNL     1     -11.002  15.352  66.647  1.00  0.00    -0.275 C  
BRANCH   9  10
HETATM   10  O   UNL     1      -9.916  15.289  67.558  1.00  0.00    -0.225 OA 
HETATM   11  S   UNL     1      -9.473  16.680  68.282  1.00  0.00    -0.236 S  
HETATM   12  O   UNL     1     -10.519  17.068  69.202  1.00  0.00    -0.320 OA 
HETATM   13  O   UNL     1      -8.958  17.582  67.274  1.00  0.00    -0.230 OA 
HETATM   14  C   UNL     1      -8.111  16.024  69.212  1.00  0.00    -0.212 C  
ENDBRANCH   9  10
ENDBRANCH   8   9
ENDBRANCH   7   8
ENDBRANCH   6   7
ENDBRANCH   3   6
TORSDOF 5
ENDMDL
MODEL       85
REMARK 921   NORMALIZED FREE ENERGY PREDICTED BY IDOCK:   -3.64 KCAL/MOL
REMARK 922        TOTAL FREE ENERGY PREDICTED BY IDOCK:   -4.89 KCAL/MOL
REMARK 923 INTER-LIGAND FREE ENERGY PREDICTED BY IDOCK:   -4.66 KCAL/MOL
REMARK 924 INTRA-LIGAND FREE ENERGY PREDICTED BY IDOCK:   -0.23 KCAL/MOL
REMARK 927      BINDING AFFINITY PREDICTED BY RF-SCORE:    0.00 PKD
ROOT
HETATM    1  C   UNL     1      -7.045  19.738  65.523  1.00  0.00    -0.288 C  
HETATM    2  S   UNL     1      -8.197  19.350  66.819  1.00  0.00    -0.308 S  
HETATM    3  O   UNL     1      -9.300  18.577  65.903  1.00  0.00    -0.486 OA 
HETATM    4  O   UNL     1      -7.585  18.387  67.707  1.00  0.00    -0.226 OA 
HETATM    5  O   UNL     1      -8.782  20.582  67.304  1.00  0.00    -0.348 OA 
ENDROOT
BRANCH   3   6
HETATM    6  C   UNL     1     -10.469  18.114  66.566  1.00  0.00    -0.341 C  
BRANCH   6   7
HETATM    7  C   UNL     1     -10.395  16.603  66.753  1.00  0.00    -0.295 C  
BRANCH   7   8
HETATM    8  C   UNL     1     -10.414  15.802  65.444  1.00  0.00    -0.438 C  
BRANCH   8   9
HETATM    9  C   UNL     1     -11.597  14.849  65.313  1.00  0.00    -0.300 C  
BRANCH   9  10
HETATM   10  O   UNL     1     -11.784  14.162  66.541  1.00  0.00    -0.361 OA 
HETATM   11  S   UNL     1     -11.192  12.648  66.642  1.00  0.00    -0.318 S  
HETATM   12  O   UNL     1      -9.747  12.722  66.641  1.00  0.00    -0.238 OA 
HETATM   13  O   UNL     1     -11.921  11.804  65.719  1.00  0.00    -0.376 OA 
HETATM   14  C   UNL     1     -11.743  12.301  68.293  1.00  0.00    -0.336 C  
ENDBRANCH   9  10
ENDBRANCH   8   9
ENDBRANCH   7   8
ENDBRANCH   6   7
ENDBRANCH   3   6
TORSDOF 5
ENDMDL
MODEL       86
REMARK 921   NORMALIZED FREE ENERGY PREDICTED BY IDOCK:   -3.63 KCAL/MOL
REMARK 922        TOTAL FREE ENERGY PREDICTED BY IDOCK:   -4.88 KCAL/MOL
REMARK 923 INTER-LIGAND FREE ENERGY PREDICTED BY IDOCK:   -4.53 KCAL/MOL
REMARK 924 INTRA-LIGAND FREE ENERGY PREDICTED BY IDOCK:   -0.36 KCAL/MOL
REMARK 927      BINDING AFFINITY PREDICTED BY RF-SCORE:    0.00 PKD
ROOT
HETATM    1  C   UNL     1     -10.586  16.859  67.087  1.00  0.00    -0.249 C  
HETATM    2  S   UNL     1     -10.609  16.214  65.432  1.00  0.00    -0.324 S  
HETATM    3  O   UNL     1     -11.642  14.982  65.695  1.00  0.00    -0.302 OA 
HETATM    4  O   UNL     1     -11.258  17.178  64.570  1.00  0.00    -1.104 OA 
HETATM    5  O   UNL     1      -9.305  15.666  65.129  1.00  0.00    -0.104 OA 
ENDROOT
BRANCH   3   6
HETATM    6  C   UNL     1     -11.920  14.135  64.588  1.00  0.00    -0.445 C  
BRANCH   6   7
HETATM    7  C   UNL     1     -12.504  12.814  65.080  1.00  0.00    -0.572 C  
BRANCH   7   8
HETATM    8  C   UNL     1     -11.612  12.060  66.075  1.00  0.00    -0.371 C  
BRANCH   8   9
HETATM    9  C   UNL     1     -10.213  11.752  65.550  1.00  0.00    -0.252 C  
BRANCH   9  10
HETATM   10  O   UNL     1      -9.262  12.521  66.272  1.00  0.00    -0.215 OA 
HETATM   11  S   UNL     1      -8.403  11.748  67.421  1.00  0.00    -0.168 S  
HETATM   12  O   UNL     1      -7.501  10.823  66.772  1.00  0.00    -0.115 OA 
HETATM   13  O   UNL     1      -9.307  11.334  68.474  1.00  0.00    -0.176 OA 
HETATM   14  C   UNL     1      -7.472  13.150  67.984  1.00  0.00    -0.132 C  
ENDBRANCH   9  10
ENDBRANCH   8   9
ENDBRANCH   7   8
ENDBRANCH   6   7
ENDBRANCH   3   6
TORSDOF 5
ENDMDL
MODEL       87
REMARK 921   NORMALIZED FREE ENERGY PREDICTED BY IDOCK:   -3.63 KCAL/MOL
REMARK 922        TOTAL FREE ENERGY PREDICTED BY IDOCK:   -4.87 KCAL/MOL
REMARK 923 INTER-LIGAND FREE ENERGY PREDICTED BY IDOCK:   -4.38 KCAL/MOL
REMARK 924 INTRA-LIGAND FREE ENERGY PREDICTED BY IDOCK:   -0.49 KCAL/MOL
REMARK 927      BINDING AFFINITY PREDICTED BY RF-SCORE:    0.00 PKD
ROOT
HETATM    1  C   UNL     1     -10.302  10.690  65.191  1.00  0.00    -0.261 C  
HETATM    2  S   UNL     1     -10.369  11.047  66.931  1.00  0.00    -0.245 S  
HETATM    3  O   UNL     1      -9.306  12.283  66.938  1.00  0.00    -0.197 OA 
HETATM    4  O   UNL     1     -11.680  11.571  67.244  1.00  0.00    -0.576 OA 
HETATM    5  O   UNL     1      -9.789   9.937  67.655  1.00  0.00    -0.154 OA 
ENDROOT
BRANCH   3   6
HETATM    6  C   UNL     1      -9.014  12.866  68.201  1.00  0.00    -0.202 C  
BRANCH   6   7
HETATM    7  C   UNL     1      -9.807  14.157  68.371  1.00  0.00    -0.231 C  
BRANCH   7   8
HETATM    8  C   UNL     1      -9.102  15.408  67.829  1.00  0.00    -0.178 C  
BRANCH   8   9
HETATM    9  C   UNL     1      -9.736  15.984  66.568  1.00  0.00    -0.264 C  
BRANCH   9  10
HETATM   10  O   UNL     1     -10.944  15.290  66.291  1.00  0.00    -0.322 OA 
HETATM   11  S   UNL     1     -11.284  14.987  64.727  1.00  0.00    -0.358 S  
HETATM   12  O   UNL     1     -10.341  14.006  64.237  1.00  0.00    -0.253 OA 
HETATM   13  O   UNL     1     -11.508  16.247  64.050  1.00  0.00    -0.919 OA 
HETATM   14  C   UNL     1     -12.849  14.191  64.988  1.00  0.00    -0.221 C  
ENDBRANCH   9  10
ENDBRANCH   8   9
ENDBRANCH   7   8
ENDBRANCH   6   7
ENDBRANCH   3   6
TORSDOF 5
ENDMDL
MODEL       88
REMARK 921   NORMALIZED FREE ENERGY PREDICTED BY IDOCK:   -3.63 KCAL/MOL
REMARK 922        TOTAL FREE ENERGY PREDICTED BY IDOCK:   -4.87 KCAL/MOL
REMARK 923 INTER-LIGAND FREE ENERGY PREDICTED BY IDOCK:   -4.71 KCAL/MOL
REMARK 924 INTRA-LIGAND FREE ENERGY PREDICTED BY IDOCK:   -0.17 KCAL/MOL
REMARK 927      BINDING AFFINITY PREDICTED BY RF-SCORE:    0.00 PKD
ROOT
HETATM    1  C   UNL     1      -6.205  19.962  70.130  1.00  0.00    -0.341 C  
HETATM    2  S   UNL     1      -6.879  19.870  68.488  1.00  0.00    -0.304 S  
HETATM    3  O   UNL     1      -8.455  19.908  68.900  1.00  0.00    -0.172 OA 
HETATM    4  O   UNL     1      -6.560  21.095  67.789  1.00  0.00    -0.342 OA 
HETATM    5  O   UNL     1      -6.578  18.566  67.936  1.00  0.00    -0.205 OA 
ENDROOT
BRANCH   3   6
HETATM    6  C   UNL     1      -9.395  19.806  67.838  1.00  0.00    -0.344 C  
BRANCH   6   7
HETATM    7  C   UNL     1      -9.929  18.380  67.753  1.00  0.00    -0.365 C  
BRANCH   7   8
HETATM    8  C   UNL     1     -10.120  17.861  66.323  1.00  0.00    -0.351 C  
BRANCH   8   9
HETATM    9  C   UNL     1      -9.683  16.414  66.120  1.00  0.00    -0.327 C  
BRANCH   9  10
HETATM   10  O   UNL     1     -10.831  15.579  66.082  1.00  0.00    -0.322 OA 
HETATM   11  S   UNL     1     -11.298  15.027  64.623  1.00  0.00    -0.310 S  
HETATM   12  O   UNL     1     -10.312  14.078  64.157  1.00  0.00    -0.131 OA 
HETATM   13  O   UNL     1     -11.727  16.151  63.819  1.00  0.00    -0.828 OA 
HETATM   14  C   UNL     1     -12.732  14.134  65.171  1.00  0.00    -0.364 C  
ENDBRANCH   9  10
ENDBRANCH   8   9
ENDBRANCH   7   8
ENDBRANCH   6   7
ENDBRANCH   3   6
TORSDOF 5
ENDMDL
MODEL       89
REMARK 921   NORMALIZED FREE ENERGY PREDICTED BY IDOCK:   -3.62 KCAL/MOL
REMARK 922        TOTAL FREE ENERGY PREDICTED BY IDOCK:   -4.87 KCAL/MOL
REMARK 923 INTER-LIGAND FREE ENERGY PREDICTED BY IDOCK:   -4.70 KCAL/MOL
REMARK 924 INTRA-LIGAND FREE ENERGY PREDICTED BY IDOCK:   -0.16 KCAL/MOL
REMARK 927      BINDING AFFINITY PREDICTED BY RF-SCORE:    0.00 PKD
ROOT
HETATM    1  C   UNL     1     -11.995  16.168  72.474  1.00  0.00    -0.561 C  
HETATM    2  S   UNL     1     -12.722  15.306  71.100  1.00  0.00    -0.447 S  
HETATM    3  O   UNL     1     -12.489  13.790  71.650  1.00  0.00    -0.307 OA 
HETATM    4  O   UNL     1     -14.143  15.574  71.087  1.00  0.00    -0.537 OA 
HETATM    5  O   UNL     1     -11.889  15.507  69.934  1.00  0.00    -0.317 OA 
ENDROOT
BRANCH   3   6
HETATM    6  C   UNL     1     -12.904  12.731  70.798  1.00  0.00    -0.030 C  
BRANCH   6   7
HETATM    7  C   UNL     1     -13.203  11.486  71.625  1.00  0.00    -0.389 C  
BRANCH   7   8
HETATM    8  C   UNL     1     -12.775  10.169  70.963  1.00  0.00    -0.481 C  
BRANCH   8   9
HETATM    9  C   UNL     1     -12.534   9.027  71.944  1.00  0.00    -0.384 C  
BRANCH   9  10
HETATM   10  O   UNL     1     -11.350   8.335  71.576  1.00  0.00    -0.250 OA 
HETATM   11  S   UNL     1     -11.497   6.755  71.207  1.00  0.00    -0.320 S  
HETATM   12  O   UNL     1     -12.222   6.643  69.960  1.00  0.00    -0.193 OA 
HETATM   13  O   UNL     1     -11.897   6.038  72.399  1.00  0.00    -0.310 OA 
HETATM   14  C   UNL     1      -9.779   6.437  70.897  1.00  0.00    -0.176 C  
ENDBRANCH   9  10
ENDBRANCH   8   9
ENDBRANCH   7   8
ENDBRANCH   6   7
ENDBRANCH   3   6
TORSDOF 5
ENDMDL
MODEL       90
REMARK 921   NORMALIZED FREE ENERGY PREDICTED BY IDOCK:   -3.61 KCAL/MOL
REMARK 922        TOTAL FREE ENERGY PREDICTED BY IDOCK:   -4.85 KCAL/MOL
REMARK 923 INTER-LIGAND FREE ENERGY PREDICTED BY IDOCK:   -4.62 KCAL/MOL
REMARK 924 INTRA-LIGAND FREE ENERGY PREDICTED BY IDOCK:   -0.23 KCAL/MOL
REMARK 927      BINDING AFFINITY PREDICTED BY RF-SCORE:    0.00 PKD
ROOT
HETATM    1  C   UNL     1     -10.333   5.284  70.345  1.00  0.00    -0.275 C  
HETATM    2  S   UNL     1     -10.557   6.242  71.825  1.00  0.00    -0.232 S  
HETATM    3  O   UNL     1     -10.844   7.678  71.110  1.00  0.00    -0.231 OA 
HETATM    4  O   UNL     1     -11.772   5.805  72.477  1.00  0.00    -0.309 OA 
HETATM    5  O   UNL     1      -9.292   6.319  72.524  1.00  0.00    -0.147 OA 
ENDROOT
BRANCH   3   6
HETATM    6  C   UNL     1     -11.044   8.791  71.972  1.00  0.00    -0.371 C  
BRANCH   6   7
HETATM    7  C   UNL     1     -12.475   9.300  71.839  1.00  0.00    -0.457 C  
BRANCH   7   8
HETATM    8  C   UNL     1     -12.592  10.705  71.234  1.00  0.00    -0.533 C  
BRANCH   8   9
HETATM    9  C   UNL     1     -11.951  10.849  69.858  1.00  0.00    -0.353 C  
BRANCH   9  10
HETATM   10  O   UNL     1     -12.056  12.199  69.432  1.00  0.00    -0.268 OA 
HETATM   11  S   UNL     1     -11.237  12.617  68.087  1.00  0.00    -0.293 S  
HETATM   12  O   UNL     1     -11.861  11.972  66.953  1.00  0.00    -0.580 OA 
HETATM   13  O   UNL     1      -9.819  12.503  68.355  1.00  0.00    -0.225 OA 
HETATM   14  C   UNL     1     -11.682  14.335  68.079  1.00  0.00    -0.351 C  
ENDBRANCH   9  10
ENDBRANCH   8   9
ENDBRANCH   7   8
ENDBRANCH   6   7
ENDBRANCH   3   6
TORSDOF 5
ENDMDL
MODEL       91
REMARK 921   NORMALIZED FREE ENERGY PREDICTED BY IDOCK:   -3.60 KCAL/MOL
REMARK 922        TOTAL FREE ENERGY PREDICTED BY IDOCK:   -4.84 KCAL/MOL
REMARK 923 INTER-LIGAND FREE ENERGY PREDICTED BY IDOCK:   -4.60 KCAL/MOL
REMARK 924 INTRA-LIGAND FREE ENERGY PREDICTED BY IDOCK:   -0.25 KCAL/MOL
REMARK 927      BINDING AFFINITY PREDICTED BY RF-SCORE:    0.00 PKD
ROOT
HETATM    1  C   UNL     1     -11.007   8.058  71.091  1.00  0.00    -0.243 C  
HETATM    2  S   UNL     1     -10.414   7.296  69.599  1.00  0.00    -0.235 S  
HETATM    3  O   UNL     1     -10.722   8.535  68.587  1.00  0.00    -0.159 OA 
HETATM    4  O   UNL     1      -8.981   7.135  69.702  1.00  0.00    -0.141 OA 
HETATM    5  O   UNL     1     -11.291   6.195  69.261  1.00  0.00    -0.416 OA 
ENDROOT
BRANCH   3   6
HETATM    6  C   UNL     1     -10.426   8.326  67.213  1.00  0.00    -0.303 C  
BRANCH   6   7
HETATM    7  C   UNL     1     -10.084   9.655  66.548  1.00  0.00    -0.314 C  
BRANCH   7   8
HETATM    8  C   UNL     1     -10.224  10.876  67.466  1.00  0.00    -0.224 C  
BRANCH   8   9
HETATM    9  C   UNL     1     -11.396  11.787  67.119  1.00  0.00    -0.322 C  
BRANCH   9  10
HETATM   10  O   UNL     1     -11.586  11.791  65.712  1.00  0.00    -0.312 OA 
HETATM   11  S   UNL     1     -11.844  13.235  65.003  1.00  0.00    -0.375 S  
HETATM   12  O   UNL     1     -10.620  14.001  65.068  1.00  0.00    -0.360 OA 
HETATM   13  O   UNL     1     -13.109  13.760  65.471  1.00  0.00    -0.671 OA 
HETATM   14  C   UNL     1     -12.052  12.635  63.345  1.00  0.00    -0.525 C  
ENDBRANCH   9  10
ENDBRANCH   8   9
ENDBRANCH   7   8
ENDBRANCH   6   7
ENDBRANCH   3   6
TORSDOF 5
ENDMDL
MODEL       92
REMARK 921   NORMALIZED FREE ENERGY PREDICTED BY IDOCK:   -3.60 KCAL/MOL
REMARK 922        TOTAL FREE ENERGY PREDICTED BY IDOCK:   -4.84 KCAL/MOL
REMARK 923 INTER-LIGAND FREE ENERGY PREDICTED BY IDOCK:   -4.65 KCAL/MOL
REMARK 924 INTRA-LIGAND FREE ENERGY PREDICTED BY IDOCK:   -0.19 KCAL/MOL
REMARK 927      BINDING AFFINITY PREDICTED BY RF-SCORE:    0.00 PKD
ROOT
HETATM    1  C   UNL     1     -14.049   7.450  71.584  1.00  0.00    -0.421 C  
HETATM    2  S   UNL     1     -12.342   7.933  71.477  1.00  0.00    -0.319 S  
HETATM    3  O   UNL     1     -12.583   9.462  70.969  1.00  0.00    -0.294 OA 
HETATM    4  O   UNL     1     -11.791   7.977  72.813  1.00  0.00    -0.372 OA 
HETATM    5  O   UNL     1     -11.715   7.186  70.408  1.00  0.00    -0.289 OA 
ENDROOT
BRANCH   3   6
HETATM    6  C   UNL     1     -11.421  10.236  70.702  1.00  0.00    -0.349 C  
BRANCH   6   7
HETATM    7  C   UNL     1     -11.818  11.570  70.077  1.00  0.00    -0.435 C  
BRANCH   7   8
HETATM    8  C   UNL     1     -11.800  11.579  68.543  1.00  0.00    -0.365 C  
BRANCH   8   9
HETATM    9  C   UNL     1     -11.764  12.973  67.927  1.00  0.00    -0.357 C  
BRANCH   9  10
HETATM   10  O   UNL     1     -10.696  13.712  68.501  1.00  0.00    -0.243 OA 
HETATM   11  S   UNL     1     -10.919  15.315  68.689  1.00  0.00    -0.273 S  
HETATM   12  O   UNL     1     -11.915  15.519  69.717  1.00  0.00    -0.333 OA 
HETATM   13  O   UNL     1     -11.027  15.923  67.379  1.00  0.00    -0.318 OA 
HETATM   14  C   UNL     1      -9.320  15.686  69.363  1.00  0.00    -0.279 C  
ENDBRANCH   9  10
ENDBRANCH   8   9
ENDBRANCH   7   8
ENDBRANCH   6   7
ENDBRANCH   3   6
TORSDOF 5
ENDMDL
MODEL       93
REMARK 921   NORMALIZED FREE ENERGY PREDICTED BY IDOCK:   -3.60 KCAL/MOL
REMARK 922        TOTAL FREE ENERGY PREDICTED BY IDOCK:   -4.84 KCAL/MOL
REMARK 923 INTER-LIGAND FREE ENERGY PREDICTED BY IDOCK:   -4.65 KCAL/MOL
REMARK 924 INTRA-LIGAND FREE ENERGY PREDICTED BY IDOCK:   -0.19 KCAL/MOL
REMARK 927      BINDING AFFINITY PREDICTED BY RF-SCORE:    0.00 PKD
ROOT
HETATM    1  C   UNL     1      -7.988  19.697  65.961  1.00  0.00    -0.328 C  
HETATM    2  S   UNL     1      -9.502  19.035  66.616  1.00  0.00    -0.355 S  
HETATM    3  O   UNL     1      -9.420  17.570  65.905  1.00  0.00    -0.515 OA 
HETATM    4  O   UNL     1      -9.349  18.859  68.043  1.00  0.00    -0.291 OA 
HETATM    5  O   UNL     1     -10.613  19.764  66.043  1.00  0.00    -0.495 OA 
ENDROOT
BRANCH   3   6
HETATM    6  C   UNL     1     -10.511  16.688  66.136  1.00  0.00    -0.285 C  
BRANCH   6   7
HETATM    7  C   UNL     1     -10.858  15.946  64.850  1.00  0.00    -0.420 C  
BRANCH   7   8
HETATM    8  C   UNL     1     -10.641  14.429  64.916  1.00  0.00    -0.456 C  
BRANCH   8   9
HETATM    9  C   UNL     1      -9.572  13.995  65.913  1.00  0.00    -0.159 C  
BRANCH   9  10
HETATM   10  O   UNL     1     -10.089  12.958  66.734  1.00  0.00    -0.231 OA 
HETATM   11  S   UNL     1     -11.024  13.405  67.991  1.00  0.00    -0.254 S  
HETATM   12  O   UNL     1     -12.269  13.926  67.472  1.00  0.00    -0.366 OA 
HETATM   13  O   UNL     1     -10.211  14.145  68.932  1.00  0.00    -0.230 OA 
HETATM   14  C   UNL     1     -11.316  11.779  68.642  1.00  0.00    -0.270 C  
ENDBRANCH   9  10
ENDBRANCH   8   9
ENDBRANCH   7   8
ENDBRANCH   6   7
ENDBRANCH   3   6
TORSDOF 5
ENDMDL
MODEL       94
REMARK 921   NORMALIZED FREE ENERGY PREDICTED BY IDOCK:   -3.59 KCAL/MOL
REMARK 922        TOTAL FREE ENERGY PREDICTED BY IDOCK:   -4.83 KCAL/MOL
REMARK 923 INTER-LIGAND FREE ENERGY PREDICTED BY IDOCK:   -4.49 KCAL/MOL
REMARK 924 INTRA-LIGAND FREE ENERGY PREDICTED BY IDOCK:   -0.33 KCAL/MOL
REMARK 927      BINDING AFFINITY PREDICTED BY RF-SCORE:    0.00 PKD
ROOT
HETATM    1  C   UNL     1      -9.686  12.894  67.405  1.00  0.00    -0.201 C  
HETATM    2  S   UNL     1     -11.435  13.033  67.690  1.00  0.00    -0.345 S  
HETATM    3  O   UNL     1     -11.370  13.304  69.296  1.00  0.00    -0.262 OA 
HETATM    4  O   UNL     1     -11.914  14.235  67.044  1.00  0.00    -0.414 OA 
HETATM    5  O   UNL     1     -12.046  11.740  67.465  1.00  0.00    -0.599 OA 
ENDROOT
BRANCH   3   6
HETATM    6  C   UNL     1     -12.613  13.436  69.971  1.00  0.00    -0.028 C  
BRANCH   6   7
HETATM    7  C   UNL     1     -12.448  13.061  71.440  1.00  0.00    -0.248 C  
BRANCH   7   8
HETATM    8  C   UNL     1     -13.071  11.712  71.822  1.00  0.00    -0.487 C  
BRANCH   8   9
HETATM    9  C   UNL     1     -12.710  10.569  70.879  1.00  0.00    -0.402 C  
BRANCH   9  10
HETATM   10  O   UNL     1     -11.409  10.096  71.192  1.00  0.00    -0.346 OA 
HETATM   11  S   UNL     1     -11.279   8.544  71.673  1.00  0.00    -0.317 S  
HETATM   12  O   UNL     1     -11.564   7.691  70.541  1.00  0.00    -0.260 OA 
HETATM   13  O   UNL     1     -11.960   8.395  72.942  1.00  0.00    -0.289 OA 
HETATM   14  C   UNL     1      -9.527   8.544  71.959  1.00  0.00    -0.294 C  
ENDBRANCH   9  10
ENDBRANCH   8   9
ENDBRANCH   7   8
ENDBRANCH   6   7
ENDBRANCH   3   6
TORSDOF 5
ENDMDL
MODEL       95
REMARK 921   NORMALIZED FREE ENERGY PREDICTED BY IDOCK:   -3.59 KCAL/MOL
REMARK 922        TOTAL FREE ENERGY PREDICTED BY IDOCK:   -4.82 KCAL/MOL
REMARK 923 INTER-LIGAND FREE ENERGY PREDICTED BY IDOCK:   -4.78 KCAL/MOL
REMARK 924 INTRA-LIGAND FREE ENERGY PREDICTED BY IDOCK:   -0.04 KCAL/MOL
REMARK 927      BINDING AFFINITY PREDICTED BY RF-SCORE:    0.00 PKD
ROOT
HETATM    1  C   UNL     1     -12.172  16.107  72.614  1.00  0.00    -0.532 C  
HETATM    2  S   UNL     1     -13.228  14.899  71.850  1.00  0.00    -0.387 S  
HETATM    3  O   UNL     1     -12.058  13.897  71.317  1.00  0.00    -0.319 OA 
HETATM    4  O   UNL     1     -13.975  14.219  72.885  1.00  0.00    -0.586 OA 
HETATM    5  O   UNL     1     -13.873  15.504  70.705  1.00  0.00    -0.457 OA 
ENDROOT
BRANCH   3   6
HETATM    6  C   UNL     1     -12.481  12.761  70.574  1.00  0.00    -0.202 C  
BRANCH   6   7
HETATM    7  C   UNL     1     -12.865  11.633  71.525  1.00  0.00    -0.469 C  
BRANCH   7   8
HETATM    8  C   UNL     1     -12.312  10.257  71.129  1.00  0.00    -0.501 C  
BRANCH   8   9
HETATM    9  C   UNL     1     -11.207  10.307  70.079  1.00  0.00    -0.311 C  
BRANCH   9  10
HETATM   10  O   UNL     1     -10.601   9.028  69.976  1.00  0.00    -0.214 OA 
HETATM   11  S   UNL     1      -9.001   8.940  70.270  1.00  0.00    -0.201 S  
HETATM   12  O   UNL     1      -8.782   9.182  71.679  1.00  0.00    -0.343 OA 
HETATM   13  O   UNL     1      -8.300   9.680  69.243  1.00  0.00    -0.118 OA 
HETATM   14  C   UNL     1      -8.811   7.203  69.955  1.00  0.00    -0.142 C  
ENDBRANCH   9  10
ENDBRANCH   8   9
ENDBRANCH   7   8
ENDBRANCH   6   7
ENDBRANCH   3   6
TORSDOF 5
ENDMDL
MODEL       96
REMARK 921   NORMALIZED FREE ENERGY PREDICTED BY IDOCK:   -3.58 KCAL/MOL
REMARK 922        TOTAL FREE ENERGY PREDICTED BY IDOCK:   -4.81 KCAL/MOL
REMARK 923 INTER-LIGAND FREE ENERGY PREDICTED BY IDOCK:   -4.62 KCAL/MOL
REMARK 924 INTRA-LIGAND FREE ENERGY PREDICTED BY IDOCK:   -0.20 KCAL/MOL
REMARK 927      BINDING AFFINITY PREDICTED BY RF-SCORE:    0.00 PKD
ROOT
HETATM    1  C   UNL     1      -8.792  19.549  66.595  1.00  0.00    -0.346 C  
HETATM    2  S   UNL     1     -10.299  18.618  66.456  1.00  0.00    -0.428 S  
HETATM    3  O   UNL     1      -9.659  17.271  65.798  1.00  0.00    -0.528 OA 
HETATM    4  O   UNL     1     -10.768  18.297  67.786  1.00  0.00    -0.411 OA 
HETATM    5  O   UNL     1     -11.148  19.253  65.471  1.00  0.00    -0.345 OA 
ENDROOT
BRANCH   3   6
HETATM    6  C   UNL     1     -10.568  16.229  65.466  1.00  0.00    -0.353 C  
BRANCH   6   7
HETATM    7  C   UNL     1      -9.989  14.883  65.886  1.00  0.00    -0.357 C  
BRANCH   7   8
HETATM    8  C   UNL     1     -11.035  13.867  66.366  1.00  0.00    -0.303 C  
BRANCH   8   9
HETATM    9  C   UNL     1     -10.444  12.561  66.885  1.00  0.00    -0.228 C  
BRANCH   9  10
HETATM   10  O   UNL     1      -9.542  12.039  65.920  1.00  0.00    -0.234 OA 
HETATM   11  S   UNL     1     -10.057  10.775  65.031  1.00  0.00    -0.321 S  
HETATM   12  O   UNL     1     -11.097  11.238  64.140  1.00  0.00    -0.354 OA 
HETATM   13  O   UNL     1     -10.240   9.637  65.907  1.00  0.00    -0.259 OA 
HETATM   14  C   UNL     1      -8.568  10.541  64.093  1.00  0.00    -0.150 C  
ENDBRANCH   9  10
ENDBRANCH   8   9
ENDBRANCH   7   8
ENDBRANCH   6   7
ENDBRANCH   3   6
TORSDOF 5
ENDMDL
MODEL       97
REMARK 921   NORMALIZED FREE ENERGY PREDICTED BY IDOCK:   -3.57 KCAL/MOL
REMARK 922        TOTAL FREE ENERGY PREDICTED BY IDOCK:   -4.81 KCAL/MOL
REMARK 923 INTER-LIGAND FREE ENERGY PREDICTED BY IDOCK:   -4.53 KCAL/MOL
REMARK 924 INTRA-LIGAND FREE ENERGY PREDICTED BY IDOCK:   -0.27 KCAL/MOL
REMARK 927      BINDING AFFINITY PREDICTED BY RF-SCORE:    0.00 PKD
ROOT
HETATM    1  C   UNL     1      -6.531  19.834  69.494  1.00  0.00    -0.348 C  
HETATM    2  S   UNL     1      -7.263  19.947  67.879  1.00  0.00    -0.288 S  
HETATM    3  O   UNL     1      -8.811  19.708  68.327  1.00  0.00    -0.322 OA 
HETATM    4  O   UNL     1      -7.130  21.307  67.406  1.00  0.00    -0.512 OA 
HETATM    5  O   UNL     1      -6.830  18.812  67.093  1.00  0.00    -0.197 OA 
ENDROOT
BRANCH   3   6
HETATM    6  C   UNL     1      -9.779  19.675  67.287  1.00  0.00    -0.356 C  
BRANCH   6   7
HETATM    7  C   UNL     1     -10.650  18.431  67.427  1.00  0.00    -0.445 C  
BRANCH   7   8
HETATM    8  C   UNL     1     -10.020  17.310  68.265  1.00  0.00    -0.313 C  
BRANCH   8   9
HETATM    9  C   UNL     1     -10.775  16.992  69.551  1.00  0.00    -0.124 C  
BRANCH   9  10
HETATM   10  O   UNL     1     -11.320  15.684  69.463  1.00  0.00    -0.278 OA 
HETATM   11  S   UNL     1     -12.107  15.119  70.773  1.00  0.00    -0.373 S  
HETATM   12  O   UNL     1     -13.336  15.866  70.924  1.00  0.00    -0.498 OA 
HETATM   13  O   UNL     1     -11.157  14.969  71.854  1.00  0.00    -0.269 OA 
HETATM   14  C   UNL     1     -12.495  13.512  70.124  1.00  0.00    -0.209 C  
ENDBRANCH   9  10
ENDBRANCH   8   9
ENDBRANCH   7   8
ENDBRANCH   6   7
ENDBRANCH   3   6
TORSDOF 5
ENDMDL
MODEL       98
REMARK 921   NORMALIZED FREE ENERGY PREDICTED BY IDOCK:   -3.57 KCAL/MOL
REMARK 922        TOTAL FREE ENERGY PREDICTED BY IDOCK:   -4.80 KCAL/MOL
REMARK 923 INTER-LIGAND FREE ENERGY PREDICTED BY IDOCK:   -4.29 KCAL/MOL
REMARK 924 INTRA-LIGAND FREE ENERGY PREDICTED BY IDOCK:   -0.51 KCAL/MOL
REMARK 927      BINDING AFFINITY PREDICTED BY RF-SCORE:    0.00 PKD
ROOT
HETATM    1  C   UNL     1     -10.814   6.262  67.988  1.00  0.00    -0.326 C  
HETATM    2  S   UNL     1     -10.382   6.033  69.697  1.00  0.00    -0.260 S  
HETATM    3  O   UNL     1     -11.734   6.670  70.347  1.00  0.00    -0.379 OA 
HETATM    4  O   UNL     1     -10.363   4.615  69.982  1.00  0.00    -0.205 OA 
HETATM    5  O   UNL     1      -9.267   6.898  70.014  1.00  0.00    -0.154 OA 
ENDROOT
BRANCH   3   6
HETATM    6  C   UNL     1     -11.793   6.729  71.766  1.00  0.00    -0.330 C  
BRANCH   6   7
HETATM    7  C   UNL     1     -11.745   8.183  72.226  1.00  0.00    -0.439 C  
BRANCH   7   8
HETATM    8  C   UNL     1     -12.156   9.199  71.153  1.00  0.00    -0.365 C  
BRANCH   8   9
HETATM    9  C   UNL     1     -11.008  10.055  70.631  1.00  0.00    -0.322 C  
BRANCH   9  10
HETATM   10  O   UNL     1     -10.700   9.666  69.301  1.00  0.00    -0.220 OA 
HETATM   11  S   UNL     1     -10.800  10.815  68.150  1.00  0.00    -0.259 S  
HETATM   12  O   UNL     1      -9.731  11.766  68.361  1.00  0.00    -0.194 OA 
HETATM   13  O   UNL     1     -12.183  11.224  68.024  1.00  0.00    -0.621 OA 
HETATM   14  C   UNL     1     -10.380   9.784  66.768  1.00  0.00    -0.218 C  
ENDBRANCH   9  10
ENDBRANCH   8   9
ENDBRANCH   7   8
ENDBRANCH   6   7
ENDBRANCH   3   6
TORSDOF 5
ENDMDL
MODEL       99
REMARK 921   NORMALIZED FREE ENERGY PREDICTED BY IDOCK:   -3.57 KCAL/MOL
REMARK 922        TOTAL FREE ENERGY PREDICTED BY IDOCK:   -4.80 KCAL/MOL
REMARK 923 INTER-LIGAND FREE ENERGY PREDICTED BY IDOCK:   -4.34 KCAL/MOL
REMARK 924 INTRA-LIGAND FREE ENERGY PREDICTED BY IDOCK:   -0.46 KCAL/MOL
REMARK 927      BINDING AFFINITY PREDICTED BY RF-SCORE:    0.00 PKD
ROOT
HETATM    1  C   UNL     1      -9.517  11.448  68.670  1.00  0.00    -0.163 C  
HETATM    2  S   UNL     1     -11.150  10.747  68.675  1.00  0.00    -0.282 S  
HETATM    3  O   UNL     1     -11.609  11.282  70.144  1.00  0.00    -0.310 OA 
HETATM    4  O   UNL     1     -11.945  11.423  67.674  1.00  0.00    -0.630 OA 
HETATM    5  O   UNL     1     -11.035   9.305  68.725  1.00  0.00    -0.138 OA 
ENDROOT
BRANCH   3   6
HETATM    6  C   UNL     1     -12.901  10.893  70.590  1.00  0.00    -0.255 C  
BRANCH   6   7
HETATM    7  C   UNL     1     -12.794  10.188  71.939  1.00  0.00    -0.526 C  
BRANCH   7   8
HETATM    8  C   UNL     1     -13.718   8.973  72.092  1.00  0.00    -0.536 C  
BRANCH   8   9
HETATM    9  C   UNL     1     -13.370   7.805  71.177  1.00  0.00    -0.087 C  
BRANCH   9  10
HETATM   10  O   UNL     1     -12.623   6.844  71.907  1.00  0.00    -0.339 OA 
HETATM   11  S   UNL     1     -11.115   6.521  71.381  1.00  0.00    -0.281 S  
HETATM   12  O   UNL     1     -10.289   7.683  71.623  1.00  0.00    -0.189 OA 
HETATM   13  O   UNL     1     -11.204   5.896  70.078  1.00  0.00    -0.364 OA 
HETATM   14  C   UNL     1     -10.718   5.280  72.586  1.00  0.00    -0.239 C  
ENDBRANCH   9  10
ENDBRANCH   8   9
ENDBRANCH   7   8
ENDBRANCH   6   7
ENDBRANCH   3   6
TORSDOF 5
ENDMDL
MODEL      100
REMARK 921   NORMALIZED FREE ENERGY PREDICTED BY IDOCK:   -3.56 KCAL/MOL
REMARK 922        TOTAL FREE ENERGY PREDICTED BY IDOCK:   -4.79 KCAL/MOL
REMARK 923 INTER-LIGAND FREE ENERGY PREDICTED BY IDOCK:   -4.53 KCAL/MOL
REMARK 924 INTRA-LIGAND FREE ENERGY PREDICTED BY IDOCK:   -0.26 KCAL/MOL
REMARK 927      BINDING AFFINITY PREDICTED BY RF-SCORE:    0.00 PKD
ROOT
HETATM    1  C   UNL     1     -10.829  12.148  63.331  1.00  0.00    -0.414 C  
HETATM    2  S   UNL     1     -12.238  12.976  64.031  1.00  0.00    -0.411 S  
HETATM    3  O   UNL     1     -11.523  13.495  65.400  1.00  0.00    -0.298 OA 
HETATM    4  O   UNL     1     -12.549  14.127  63.213  1.00  0.00    -0.766 OA 
HETATM    5  O   UNL     1     -13.233  11.984  64.379  1.00  0.00    -0.669 OA 
ENDROOT
BRANCH   3   6
HETATM    6  C   UNL     1     -12.344  14.203  66.320  1.00  0.00    -0.422 C  
BRANCH   6   7
HETATM    7  C   UNL     1     -11.825  14.002  67.740  1.00  0.00    -0.419 C  
BRANCH   7   8
HETATM    8  C   UNL     1     -11.028  12.707  67.944  1.00  0.00    -0.262 C  
BRANCH   8   9
HETATM    9  C   UNL     1      -9.522  12.914  68.070  1.00  0.00    -0.213 C  
BRANCH   9  10
HETATM   10  O   UNL     1      -8.854  12.060  67.153  1.00  0.00    -0.174 OA 
HETATM   11  S   UNL     1      -7.338  11.603  67.536  1.00  0.00    -0.129 S  
HETATM   12  O   UNL     1      -7.404  10.709  68.671  1.00  0.00    -0.083 OA 
HETATM   13  O   UNL     1      -6.485  12.772  67.524  1.00  0.00    -0.141 OA 
HETATM   14  C   UNL     1      -7.017  10.646  66.076  1.00  0.00    -0.128 C  
ENDBRANCH   9  10
ENDBRANCH   8   9
ENDBRANCH   7   8
ENDBRANCH   6   7
ENDBRANCH   3   6
TORSDOF 5
ENDMDL
MODEL      101
REMARK 921   NORMALIZED FREE ENERGY PREDICTED BY IDOCK:   -3.55 KCAL/MOL
REMARK 922        TOTAL FREE ENERGY PREDICTED BY IDOCK:   -4.78 KCAL/MOL
REMARK 923 INTER-LIGAND FREE ENERGY PREDICTED BY IDOCK:   -4.45 KCAL/MOL
REMARK 924 INTRA-LIGAND FREE ENERGY PREDICTED BY IDOCK:   -0.33 KCAL/MOL
REMARK 927      BINDING AFFINITY PREDICTED BY RF-SCORE:    0.00 PKD
ROOT
HETATM    1  C   UNL     1     -11.083  14.742  65.994  1.00  0.00    -0.330 C  
HETATM    2  S   UNL     1     -11.850  13.634  64.834  1.00  0.00    -0.398 S  
HETATM    3  O   UNL     1     -10.485  13.016  64.193  1.00  0.00    -0.413 OA 
HETATM    4  O   UNL     1     -12.523  12.588  65.572  1.00  0.00    -0.646 OA 
HETATM    5  O   UNL     1     -12.522  14.417  63.820  1.00  0.00    -0.814 OA 
ENDROOT
BRANCH   3   6
HETATM    6  C   UNL     1     -10.645  12.074  63.141  1.00  0.00    -0.226 C  
BRANCH   6   7
HETATM    7  C   UNL     1      -9.576  10.991  63.248  1.00  0.00    -0.370 C  
BRANCH   7   8
HETATM    8  C   UNL     1      -9.054  10.757  64.671  1.00  0.00    -0.223 C  
BRANCH   8   9
HETATM    9  C   UNL     1      -9.829   9.704  65.455  1.00  0.00    -0.281 C  
BRANCH   9  10
HETATM   10  O   UNL     1      -8.939   9.013  66.318  1.00  0.00    -0.144 OA 
HETATM   11  S   UNL     1      -9.290   9.024  67.909  1.00  0.00    -0.141 S  
HETATM   12  O   UNL     1     -10.476   8.225  68.120  1.00  0.00    -0.211 OA 
HETATM   13  O   UNL     1      -9.177  10.381  68.398  1.00  0.00    -0.137 OA 
HETATM   14  C   UNL     1      -7.876   8.099  68.456  1.00  0.00    -0.118 C  
ENDBRANCH   9  10
ENDBRANCH   8   9
ENDBRANCH   7   8
ENDBRANCH   6   7
ENDBRANCH   3   6
TORSDOF 5
ENDMDL
MODEL      102
REMARK 921   NORMALIZED FREE ENERGY PREDICTED BY IDOCK:   -3.55 KCAL/MOL
REMARK 922        TOTAL FREE ENERGY PREDICTED BY IDOCK:   -4.77 KCAL/MOL
REMARK 923 INTER-LIGAND FREE ENERGY PREDICTED BY IDOCK:   -4.56 KCAL/MOL
REMARK 924 INTRA-LIGAND FREE ENERGY PREDICTED BY IDOCK:   -0.21 KCAL/MOL
REMARK 927      BINDING AFFINITY PREDICTED BY RF-SCORE:    0.00 PKD
ROOT
HETATM    1  C   UNL     1      -6.072  12.996  69.815  1.00  0.00    -0.123 C  
HETATM    2  S   UNL     1      -6.579  13.514  68.192  1.00  0.00    -0.141 S  
HETATM    3  O   UNL     1      -8.064  12.843  68.207  1.00  0.00    -0.143 OA 
HETATM    4  O   UNL     1      -6.727  14.952  68.192  1.00  0.00    -0.106 OA 
HETATM    5  O   UNL     1      -5.771  12.822  67.211  1.00  0.00    -0.291 OA 
ENDROOT
BRANCH   3   6
HETATM    6  C   UNL     1      -8.840  12.985  67.024  1.00  0.00    -0.212 C  
BRANCH   6   7
HETATM    7  C   UNL     1     -10.084  13.816  67.316  1.00  0.00    -0.239 C  
BRANCH   7   8
HETATM    8  C   UNL     1     -10.109  15.183  66.619  1.00  0.00    -0.271 C  
BRANCH   8   9
HETATM    9  C   UNL     1     -10.871  15.198  65.299  1.00  0.00    -0.400 C  
BRANCH   9  10
HETATM   10  O   UNL     1     -10.693  13.952  64.642  1.00  0.00    -0.397 OA 
HETATM   11  S   UNL     1     -12.036  13.190  64.120  1.00  0.00    -0.459 S  
HETATM   12  O   UNL     1     -12.593  13.948  63.022  1.00  0.00    -0.694 OA 
HETATM   13  O   UNL     1     -12.825  12.805  65.270  1.00  0.00    -0.674 OA 
HETATM   14  C   UNL     1     -11.234  11.747  63.466  1.00  0.00    -0.408 C  
ENDBRANCH   9  10
ENDBRANCH   8   9
ENDBRANCH   7   8
ENDBRANCH   6   7
ENDBRANCH   3   6
TORSDOF 5
ENDMDL
MODEL      103
REMARK 921   NORMALIZED FREE ENERGY PREDICTED BY IDOCK:   -3.54 KCAL/MOL
REMARK 922        TOTAL FREE ENERGY PREDICTED BY IDOCK:   -4.76 KCAL/MOL
REMARK 923 INTER-LIGAND FREE ENERGY PREDICTED BY IDOCK:   -4.55 KCAL/MOL
REMARK 924 INTRA-LIGAND FREE ENERGY PREDICTED BY IDOCK:   -0.21 KCAL/MOL
REMARK 927      BINDING AFFINITY PREDICTED BY RF-SCORE:    0.00 PKD
ROOT
HETATM    1  C   UNL     1     -10.997   6.455  69.250  1.00  0.00    -0.356 C  
HETATM    2  S   UNL     1      -9.968   7.902  69.175  1.00  0.00    -0.188 S  
HETATM    3  O   UNL     1     -11.031   8.955  69.820  1.00  0.00    -0.230 OA 
HETATM    4  O   UNL     1      -8.870   7.735  70.102  1.00  0.00    -0.143 OA 
HETATM    5  O   UNL     1      -9.758   8.251  67.787  1.00  0.00    -0.148 OA 
ENDROOT
BRANCH   3   6
HETATM    6  C   UNL     1     -10.611  10.311  69.910  1.00  0.00    -0.276 C  
BRANCH   6   7
HETATM    7  C   UNL     1     -11.673  11.224  69.307  1.00  0.00    -0.403 C  
BRANCH   7   8
HETATM    8  C   UNL     1     -11.143  12.192  68.242  1.00  0.00    -0.288 C  
BRANCH   8   9
HETATM    9  C   UNL     1     -11.644  11.905  66.831  1.00  0.00    -0.285 C  
BRANCH   9  10
HETATM   10  O   UNL     1     -11.828  13.132  66.141  1.00  0.00    -0.362 OA 
HETATM   11  S   UNL     1     -11.748  13.087  64.514  1.00  0.00    -0.394 S  
HETATM   12  O   UNL     1     -12.905  12.373  64.020  1.00  0.00    -0.717 OA 
HETATM   13  O   UNL     1     -10.400  12.732  64.127  1.00  0.00    -0.390 OA 
HETATM   14  C   UNL     1     -11.988  14.823  64.230  1.00  0.00    -0.368 C  
ENDBRANCH   9  10
ENDBRANCH   8   9
ENDBRANCH   7   8
ENDBRANCH   6   7
ENDBRANCH   3   6
TORSDOF 5
ENDMDL
MODEL      104
REMARK 921   NORMALIZED FREE ENERGY PREDICTED BY IDOCK:   -3.51 KCAL/MOL
REMARK 922        TOTAL FREE ENERGY PREDICTED BY IDOCK:   -4.73 KCAL/MOL
REMARK 923 INTER-LIGAND FREE ENERGY PREDICTED BY IDOCK:   -4.42 KCAL/MOL
REMARK 924 INTRA-LIGAND FREE ENERGY PREDICTED BY IDOCK:   -0.31 KCAL/MOL
REMARK 927      BINDING AFFINITY PREDICTED BY RF-SCORE:    0.00 PKD
ROOT
HETATM    1  C   UNL     1      -9.323  20.286  66.712  1.00  0.00    -0.358 C  
HETATM    2  S   UNL     1     -10.198  18.754  66.502  1.00  0.00    -0.435 S  
HETATM    3  O   UNL     1      -8.907  17.810  66.188  1.00  0.00    -0.451 OA 
HETATM    4  O   UNL     1     -10.752  18.360  67.779  1.00  0.00    -0.414 OA 
HETATM    5  O   UNL     1     -11.006  18.842  65.305  1.00  0.00    -0.521 OA 
ENDROOT
BRANCH   3   6
HETATM    6  C   UNL     1      -9.171  16.443  65.902  1.00  0.00    -0.199 C  
BRANCH   6   7
HETATM    7  C   UNL     1      -8.273  15.552  66.754  1.00  0.00    -0.277 C  
BRANCH   7   8
HETATM    8  C   UNL     1      -9.032  14.616  67.704  1.00  0.00    -0.187 C  
BRANCH   8   9
HETATM    9  C   UNL     1      -9.559  15.296  68.962  1.00  0.00    -0.237 C  
BRANCH   9  10
HETATM   10  O   UNL     1     -10.353  14.375  69.695  1.00  0.00    -0.043 OA 
HETATM   11  S   UNL     1     -11.970  14.545  69.594  1.00  0.00    -0.332 S  
HETATM   12  O   UNL     1     -12.383  14.185  68.256  1.00  0.00    -0.246 OA 
HETATM   13  O   UNL     1     -12.342  15.803  70.205  1.00  0.00    -0.384 OA 
HETATM   14  C   UNL     1     -12.403  13.223  70.697  1.00  0.00    -0.339 C  
ENDBRANCH   9  10
ENDBRANCH   8   9
ENDBRANCH   7   8
ENDBRANCH   6   7
ENDBRANCH   3   6
TORSDOF 5
ENDMDL
MODEL      105
REMARK 921   NORMALIZED FREE ENERGY PREDICTED BY IDOCK:   -3.51 KCAL/MOL
REMARK 922        TOTAL FREE ENERGY PREDICTED BY IDOCK:   -4.72 KCAL/MOL
REMARK 923 INTER-LIGAND FREE ENERGY PREDICTED BY IDOCK:   -4.51 KCAL/MOL
REMARK 924 INTRA-LIGAND FREE ENERGY PREDICTED BY IDOCK:   -0.22 KCAL/MOL
REMARK 927      BINDING AFFINITY PREDICTED BY RF-SCORE:    0.00 PKD
ROOT
HETATM    1  C   UNL     1      -9.434   5.124  68.050  1.00  0.00    -0.127 C  
HETATM    2  S   UNL     1     -10.692   6.373  68.178  1.00  0.00    -0.313 S  
HETATM    3  O   UNL     1      -9.711   7.634  68.503  1.00  0.00    -0.153 OA 
HETATM    4  O   UNL     1     -11.276   6.575  66.870  1.00  0.00    -0.387 OA 
HETATM    5  O   UNL     1     -11.498   6.102  69.349  1.00  0.00    -0.423 OA 
ENDROOT
BRANCH   3   6
HETATM    6  C   UNL     1     -10.339   8.888  68.734  1.00  0.00    -0.211 C  
BRANCH   6   7
HETATM    7  C   UNL     1     -10.221   9.763  67.491  1.00  0.00    -0.271 C  
BRANCH   7   8
HETATM    8  C   UNL     1     -10.404  11.263  67.755  1.00  0.00    -0.208 C  
BRANCH   8   9
HETATM    9  C   UNL     1     -11.772  11.805  67.354  1.00  0.00    -0.230 C  
BRANCH   9  10
HETATM   10  O   UNL     1     -11.601  12.982  66.577  1.00  0.00    -0.321 OA 
HETATM   11  S   UNL     1     -11.916  12.869  64.983  1.00  0.00    -0.432 S  
HETATM   12  O   UNL     1     -13.340  12.690  64.811  1.00  0.00    -0.787 OA 
HETATM   13  O   UNL     1     -10.947  11.977  64.382  1.00  0.00    -0.299 OA 
HETATM   14  C   UNL     1     -11.497  14.541  64.555  1.00  0.00    -0.343 C  
ENDBRANCH   9  10
ENDBRANCH   8   9
ENDBRANCH   7   8
ENDBRANCH   6   7
ENDBRANCH   3   6
TORSDOF 5
ENDMDL
MODEL      106
REMARK 921   NORMALIZED FREE ENERGY PREDICTED BY IDOCK:   -3.51 KCAL/MOL
REMARK 922        TOTAL FREE ENERGY PREDICTED BY IDOCK:   -4.72 KCAL/MOL
REMARK 923 INTER-LIGAND FREE ENERGY PREDICTED BY IDOCK:   -4.56 KCAL/MOL
REMARK 924 INTRA-LIGAND FREE ENERGY PREDICTED BY IDOCK:   -0.16 KCAL/MOL
REMARK 927      BINDING AFFINITY PREDICTED BY RF-SCORE:    0.00 PKD
ROOT
HETATM    1  C   UNL     1      -9.487   9.944  64.925  1.00  0.00    -0.291 C  
HETATM    2  S   UNL     1      -9.857  10.392  66.604  1.00  0.00    -0.210 S  
HETATM    3  O   UNL     1     -11.056  11.449  66.286  1.00  0.00    -0.289 OA 
HETATM    4  O   UNL     1     -10.427   9.244  67.274  1.00  0.00    -0.252 OA 
HETATM    5  O   UNL     1      -8.732  11.122  67.148  1.00  0.00    -0.136 OA 
ENDROOT
BRANCH   3   6
HETATM    6  C   UNL     1     -11.636  12.110  67.402  1.00  0.00    -0.340 C  
BRANCH   6   7
HETATM    7  C   UNL     1     -11.598  13.620  67.188  1.00  0.00    -0.392 C  
BRANCH   7   8
HETATM    8  C   UNL     1     -10.887  14.399  68.302  1.00  0.00    -0.250 C  
BRANCH   8   9
HETATM    9  C   UNL     1     -11.636  15.641  68.771  1.00  0.00    -0.384 C  
BRANCH   9  10
HETATM   10  O   UNL     1     -11.479  15.781  70.175  1.00  0.00    -0.303 OA 
HETATM   11  S   UNL     1     -12.587  15.052  71.121  1.00  0.00    -0.386 S  
HETATM   12  O   UNL     1     -12.408  13.621  71.014  1.00  0.00    -0.356 OA 
HETATM   13  O   UNL     1     -13.869  15.687  70.905  1.00  0.00    -0.516 OA 
HETATM   14  C   UNL     1     -11.936  15.591  72.683  1.00  0.00    -0.458 C  
ENDBRANCH   9  10
ENDBRANCH   8   9
ENDBRANCH   7   8
ENDBRANCH   6   7
ENDBRANCH   3   6
TORSDOF 5
ENDMDL
MODEL      107
REMARK 921   NORMALIZED FREE ENERGY PREDICTED BY IDOCK:   -3.48 KCAL/MOL
REMARK 922        TOTAL FREE ENERGY PREDICTED BY IDOCK:   -4.69 KCAL/MOL
REMARK 923 INTER-LIGAND FREE ENERGY PREDICTED BY IDOCK:   -4.45 KCAL/MOL
REMARK 924 INTRA-LIGAND FREE ENERGY PREDICTED BY IDOCK:   -0.24 KCAL/MOL
REMARK 927      BINDING AFFINITY PREDICTED BY RF-SCORE:    0.00 PKD
ROOT
HETATM    1  C   UNL     1     -10.321   5.032  67.431  1.00  0.00    -0.112 C  
HETATM    2  S   UNL     1     -10.440   6.432  68.519  1.00  0.00    -0.252 S  
HETATM    3  O   UNL     1     -10.764   7.558  67.386  1.00  0.00    -0.280 OA 
HETATM    4  O   UNL     1     -11.612   6.271  69.351  1.00  0.00    -0.403 OA 
HETATM    5  O   UNL     1      -9.131   6.700  69.075  1.00  0.00    -0.134 OA 
ENDROOT
BRANCH   3   6
HETATM    6  C   UNL     1     -10.898   8.898  67.839  1.00  0.00    -0.030 C  
BRANCH   6   7
HETATM    7  C   UNL     1      -9.911   9.797  67.101  1.00  0.00    -0.252 C  
BRANCH   7   8
HETATM    8  C   UNL     1     -10.021   9.732  65.572  1.00  0.00    -0.329 C  
BRANCH   8   9
HETATM    9  C   UNL     1     -10.372  11.063  64.915  1.00  0.00    -0.313 C  
BRANCH   9  10
HETATM   10  O   UNL     1     -10.906  11.942  65.893  1.00  0.00    -0.277 OA 
HETATM   11  S   UNL     1     -11.800  13.194  65.356  1.00  0.00    -0.398 S  
HETATM   12  O   UNL     1     -13.038  12.673  64.820  1.00  0.00    -0.852 OA 
HETATM   13  O   UNL     1     -10.944  14.082  64.598  1.00  0.00    -0.384 OA 
HETATM   14  C   UNL     1     -12.129  13.928  66.939  1.00  0.00    -0.430 C  
ENDBRANCH   9  10
ENDBRANCH   8   9
ENDBRANCH   7   8
ENDBRANCH   6   7
ENDBRANCH   3   6
TORSDOF 5
ENDMDL
MODEL      108
REMARK 921   NORMALIZED FREE ENERGY PREDICTED BY IDOCK:   -3.48 KCAL/MOL
REMARK 922        TOTAL FREE ENERGY PREDICTED BY IDOCK:   -4.68 KCAL/MOL
REMARK 923 INTER-LIGAND FREE ENERGY PREDICTED BY IDOCK:   -4.58 KCAL/MOL
REMARK 924 INTRA-LIGAND FREE ENERGY PREDICTED BY IDOCK:   -0.10 KCAL/MOL
REMARK 927      BINDING AFFINITY PREDICTED BY RF-SCORE:    0.00 PKD
ROOT
HETATM    1  C   UNL     1      -7.649  19.307  68.589  1.00  0.00    -0.350 C  
HETATM    2  S   UNL     1      -8.551  17.790  68.381  1.00  0.00    -0.291 S  
HETATM    3  O   UNL     1      -8.459  17.707  66.755  1.00  0.00    -0.232 OA 
HETATM    4  O   UNL     1      -7.770  16.708  68.938  1.00  0.00    -0.222 OA 
HETATM    5  O   UNL     1      -9.931  18.016  68.753  1.00  0.00    -0.361 OA 
ENDROOT
BRANCH   3   6
HETATM    6  C   UNL     1      -9.122  16.614  66.134  1.00  0.00    -0.283 C  
BRANCH   6   7
HETATM    7  C   UNL     1     -10.475  17.066  65.596  1.00  0.00    -0.229 C  
BRANCH   7   8
HETATM    8  C   UNL     1     -11.246  15.981  64.832  1.00  0.00    -0.319 C  
BRANCH   8   9
HETATM    9  C   UNL     1     -10.526  14.639  64.757  1.00  0.00    -0.313 C  
BRANCH   9  10
HETATM   10  O   UNL     1     -10.855  13.866  65.902  1.00  0.00    -0.283 OA 
HETATM   11  S   UNL     1     -11.555  12.418  65.643  1.00  0.00    -0.399 S  
HETATM   12  O   UNL     1     -10.574  11.537  65.049  1.00  0.00    -0.277 OA 
HETATM   13  O   UNL     1     -12.858  12.634  65.051  1.00  0.00    -0.765 OA 
HETATM   14  C   UNL     1     -11.768  11.965  67.347  1.00  0.00    -0.256 C  
ENDBRANCH   9  10
ENDBRANCH   8   9
ENDBRANCH   7   8
ENDBRANCH   6   7
ENDBRANCH   3   6
TORSDOF 5
ENDMDL
MODEL      109
REMARK 921   NORMALIZED FREE ENERGY PREDICTED BY IDOCK:   -3.47 KCAL/MOL
REMARK 922        TOTAL FREE ENERGY PREDICTED BY IDOCK:   -4.67 KCAL/MOL
REMARK 923 INTER-LIGAND FREE ENERGY PREDICTED BY IDOCK:   -4.48 KCAL/MOL
REMARK 924 INTRA-LIGAND FREE ENERGY PREDICTED BY IDOCK:   -0.19 KCAL/MOL
REMARK 927      BINDING AFFINITY PREDICTED BY RF-SCORE:    0.00 PKD
ROOT
HETATM    1  C   UNL     1     -12.081   6.966  71.453  1.00  0.00    -0.364 C  
HETATM    2  S   UNL     1     -11.071   8.401  71.173  1.00  0.00    -0.266 S  
HETATM    3  O   UNL     1     -12.277   9.484  71.004  1.00  0.00    -0.301 OA 
HETATM    4  O   UNL     1     -10.352   8.705  72.391  1.00  0.00    -0.319 OA 
HETATM    5  O   UNL     1     -10.401   8.255  69.898  1.00  0.00    -0.207 OA 
ENDROOT
BRANCH   3   6
HETATM    6  C   UNL     1     -11.897  10.821  70.708  1.00  0.00    -0.339 C  
BRANCH   6   7
HETATM    7  C   UNL     1     -12.209  11.138  69.249  1.00  0.00    -0.295 C  
BRANCH   7   8
HETATM    8  C   UNL     1     -11.695  12.504  68.776  1.00  0.00    -0.371 C  
BRANCH   8   9
HETATM    9  C   UNL     1     -11.812  12.728  67.272  1.00  0.00    -0.350 C  
BRANCH   9  10
HETATM   10  O   UNL     1     -11.509  14.083  66.975  1.00  0.00    -0.318 OA 
HETATM   11  S   UNL     1     -10.261  14.361  65.966  1.00  0.00    -0.329 S  
HETATM   12  O   UNL     1     -10.638  13.917  64.642  1.00  0.00    -0.412 OA 
HETATM   13  O   UNL     1      -9.041  13.922  66.608  1.00  0.00    -0.247 OA 
HETATM   14  C   UNL     1     -10.327  16.134  66.012  1.00  0.00    -0.358 C  
ENDBRANCH   9  10
ENDBRANCH   8   9
ENDBRANCH   7   8
ENDBRANCH   6   7
ENDBRANCH   3   6
TORSDOF 5
ENDMDL
MODEL      110
REMARK 921   NORMALIZED FREE ENERGY PREDICTED BY IDOCK:   -3.46 KCAL/MOL
REMARK 922        TOTAL FREE ENERGY PREDICTED BY IDOCK:   -4.66 KCAL/MOL
REMARK 923 INTER-LIGAND FREE ENERGY PREDICTED BY IDOCK:   -4.16 KCAL/MOL
REMARK 924 INTRA-LIGAND FREE ENERGY PREDICTED BY IDOCK:   -0.51 KCAL/MOL
REMARK 927      BINDING AFFINITY PREDICTED BY RF-SCORE:    0.00 PKD
ROOT
HETATM    1  C   UNL     1     -10.332   5.563  70.602  1.00  0.00    -0.262 C  
HETATM    2  S   UNL     1     -10.779   6.425  72.090  1.00  0.00    -0.237 S  
HETATM    3  O   UNL     1     -11.758   7.536  71.410  1.00  0.00    -0.267 OA 
HETATM    4  O   UNL     1     -11.586   5.546  72.908  1.00  0.00    -0.297 OA 
HETATM    5  O   UNL     1      -9.607   7.098  72.606  1.00  0.00    -0.144 OA 
ENDROOT
BRANCH   3   6
HETATM    6  C   UNL     1     -12.326   8.505  72.281  1.00  0.00    -0.387 C  
BRANCH   6   7
HETATM    7  C   UNL     1     -13.220   9.454  71.489  1.00  0.00    -0.456 C  
BRANCH   7   8
HETATM    8  C   UNL     1     -12.877  10.939  71.665  1.00  0.00    -0.554 C  
BRANCH   8   9
HETATM    9  C   UNL     1     -12.166  11.561  70.468  1.00  0.00    -0.377 C  
BRANCH   9  10
HETATM   10  O   UNL     1     -11.814  10.538  69.548  1.00  0.00    -0.262 OA 
HETATM   11  S   UNL     1     -10.226  10.322  69.253  1.00  0.00    -0.239 S  
HETATM   12  O   UNL     1      -9.610   9.778  70.443  1.00  0.00    -0.252 OA 
HETATM   13  O   UNL     1      -9.714  11.502  68.590  1.00  0.00    -0.197 OA 
HETATM   14  C   UNL     1     -10.397   9.021  68.057  1.00  0.00    -0.224 C  
ENDBRANCH   9  10
ENDBRANCH   8   9
ENDBRANCH   7   8
ENDBRANCH   6   7
ENDBRANCH   3   6
TORSDOF 5
ENDMDL
MODEL      111
REMARK 921   NORMALIZED FREE ENERGY PREDICTED BY IDOCK:   -3.46 KCAL/MOL
REMARK 922        TOTAL FREE ENERGY PREDICTED BY IDOCK:   -4.66 KCAL/MOL
REMARK 923 INTER-LIGAND FREE ENERGY PREDICTED BY IDOCK:   -4.40 KCAL/MOL
REMARK 924 INTRA-LIGAND FREE ENERGY PREDICTED BY IDOCK:   -0.26 KCAL/MOL
REMARK 927      BINDING AFFINITY PREDICTED BY RF-SCORE:    0.00 PKD
ROOT
HETATM    1  C   UNL     1      -5.589  20.602  67.773  1.00  0.00    -0.233 C  
HETATM    2  S   UNL     1      -6.961  19.970  66.838  1.00  0.00    -0.229 S  
HETATM    3  O   UNL     1      -8.128  20.873  67.531  1.00  0.00    -0.245 OA 
HETATM    4  O   UNL     1      -6.815  20.391  65.462  1.00  0.00    -0.275 OA 
HETATM    5  O   UNL     1      -7.173  18.586  67.202  1.00  0.00    -0.205 OA 
ENDROOT
BRANCH   3   6
HETATM    6  C   UNL     1      -9.459  20.645  67.088  1.00  0.00    -0.365 C  
BRANCH   6   7
HETATM    7  C   UNL     1     -10.175  19.711  68.058  1.00  0.00    -0.579 C  
BRANCH   7   8
HETATM    8  C   UNL     1     -10.771  18.458  67.403  1.00  0.00    -0.397 C  
BRANCH   8   9
HETATM    9  C   UNL     1     -10.334  17.148  68.050  1.00  0.00    -0.353 C  
BRANCH   9  10
HETATM   10  O   UNL     1     -11.245  16.120  67.689  1.00  0.00    -0.266 OA 
HETATM   11  S   UNL     1     -10.614  14.763  67.046  1.00  0.00    -0.295 S  
HETATM   12  O   UNL     1      -9.883  14.065  68.080  1.00  0.00    -0.216 OA 
HETATM   13  O   UNL     1     -10.019  15.091  65.767  1.00  0.00    -0.301 OA 
HETATM   14  C   UNL     1     -12.148  13.915  66.763  1.00  0.00    -0.439 C  
ENDBRANCH   9  10
ENDBRANCH   8   9
ENDBRANCH   7   8
ENDBRANCH   6   7
ENDBRANCH   3   6
TORSDOF 5
ENDMDL
MODEL      112
REMARK 921   NORMALIZED FREE ENERGY PREDICTED BY IDOCK:   -3.46 KCAL/MOL
REMARK 922        TOTAL FREE ENERGY PREDICTED BY IDOCK:   -4.66 KCAL/MOL
REMARK 923 INTER-LIGAND FREE ENERGY PREDICTED BY IDOCK:   -4.30 KCAL/MOL
REMARK 924 INTRA-LIGAND FREE ENERGY PREDICTED BY IDOCK:   -0.35 KCAL/MOL
REMARK 927      BINDING AFFINITY PREDICTED BY RF-SCORE:    0.00 PKD
ROOT
HETATM    1  C   UNL     1      -7.145   8.943  66.286  1.00  0.00    -0.083 C  
HETATM    2  S   UNL     1      -8.428   8.570  65.114  1.00  0.00    -0.153 S  
HETATM    3  O   UNL     1      -8.060   9.720  64.019  1.00  0.00    -0.132 OA 
HETATM    4  O   UNL     1      -8.155   7.277  64.527  1.00  0.00    -0.129 OA 
HETATM    5  O   UNL     1      -9.707   8.892  65.709  1.00  0.00    -0.240 OA 
ENDROOT
BRANCH   3   6
HETATM    6  C   UNL     1      -8.907   9.811  62.882  1.00  0.00    -0.250 C  
BRANCH   6   7
HETATM    7  C   UNL     1      -9.347  11.257  62.678  1.00  0.00    -0.313 C  
BRANCH   7   8
HETATM    8  C   UNL     1     -10.785  11.549  63.125  1.00  0.00    -0.281 C  
BRANCH   8   9
HETATM    9  C   UNL     1     -10.911  11.974  64.584  1.00  0.00    -0.317 C  
BRANCH   9  10
HETATM   10  O   UNL     1     -10.524  13.334  64.712  1.00  0.00    -0.348 OA 
HETATM   11  S   UNL     1     -11.697  14.410  65.058  1.00  0.00    -0.407 S  
HETATM   12  O   UNL     1     -12.147  14.175  66.412  1.00  0.00    -0.422 OA 
HETATM   13  O   UNL     1     -12.613  14.470  63.939  1.00  0.00    -0.827 OA 
HETATM   14  C   UNL     1     -10.678  15.864  65.042  1.00  0.00    -0.404 C  
ENDBRANCH   9  10
ENDBRANCH   8   9
ENDBRANCH   7   8
ENDBRANCH   6   7
ENDBRANCH   3   6
TORSDOF 5
ENDMDL
MODEL      113
REMARK 921   NORMALIZED FREE ENERGY PREDICTED BY IDOCK:   -3.46 KCAL/MOL
REMARK 922        TOTAL FREE ENERGY PREDICTED BY IDOCK:   -4.65 KCAL/MOL
REMARK 923 INTER-LIGAND FREE ENERGY PREDICTED BY IDOCK:   -4.29 KCAL/MOL
REMARK 924 INTRA-LIGAND FREE ENERGY PREDICTED BY IDOCK:   -0.37 KCAL/MOL
REMARK 927      BINDING AFFINITY PREDICTED BY RF-SCORE:    0.00 PKD
ROOT
HETATM    1  C   UNL     1     -12.458  11.846  71.163  1.00  0.00    -0.261 C  
HETATM    2  S   UNL     1     -11.949  10.607  69.995  1.00  0.00    -0.332 S  
HETATM    3  O   UNL     1     -10.383  11.044  69.888  1.00  0.00     0.012 OA 
HETATM    4  O   UNL     1     -12.019   9.312  70.636  1.00  0.00    -0.253 OA 
HETATM    5  O   UNL     1     -12.590  10.875  68.726  1.00  0.00    -0.317 OA 
ENDROOT
BRANCH   3   6
HETATM    6  C   UNL     1      -9.575  10.305  68.980  1.00  0.00    -0.203 C  
BRANCH   6   7
HETATM    7  C   UNL     1      -8.777  11.262  68.100  1.00  0.00    -0.155 C  
BRANCH   7   8
HETATM    8  C   UNL     1      -9.624  12.334  67.403  1.00  0.00    -0.179 C  
BRANCH   8   9
HETATM    9  C   UNL     1     -10.340  11.847  66.149  1.00  0.00    -0.226 C  
BRANCH   9  10
HETATM   10  O   UNL     1     -10.694  12.964  65.347  1.00  0.00    -0.276 OA 
HETATM   11  S   UNL     1     -12.249  13.445  65.390  1.00  0.00    -0.481 S  
HETATM   12  O   UNL     1     -12.516  14.010  66.695  1.00  0.00    -0.420 OA 
HETATM   13  O   UNL     1     -13.073  12.401  64.818  1.00  0.00    -0.806 OA 
HETATM   14  C   UNL     1     -12.106  14.770  64.216  1.00  0.00    -0.394 C  
ENDBRANCH   9  10
ENDBRANCH   8   9
ENDBRANCH   7   8
ENDBRANCH   6   7
ENDBRANCH   3   6
TORSDOF 5
ENDMDL
MODEL      114
REMARK 921   NORMALIZED FREE ENERGY PREDICTED BY IDOCK:   -3.45 KCAL/MOL
REMARK 922        TOTAL FREE ENERGY PREDICTED BY IDOCK:   -4.65 KCAL/MOL
REMARK 923 INTER-LIGAND FREE ENERGY PREDICTED BY IDOCK:   -4.34 KCAL/MOL
REMARK 924 INTRA-LIGAND FREE ENERGY PREDICTED BY IDOCK:   -0.31 KCAL/MOL
REMARK 927      BINDING AFFINITY PREDICTED BY RF-SCORE:    0.00 PKD
ROOT
HETATM    1  C   UNL     1     -12.649  13.890  65.434  1.00  0.00    -0.507 C  
HETATM    2  S   UNL     1     -11.454  13.063  66.456  1.00  0.00    -0.358 S  
HETATM    3  O   UNL     1     -10.635  12.311  65.264  1.00  0.00    -0.270 OA 
HETATM    4  O   UNL     1     -10.587  14.057  67.049  1.00  0.00    -0.276 OA 
HETATM    5  O   UNL     1     -12.136  12.062  67.249  1.00  0.00    -0.572 OA 
ENDROOT
BRANCH   3   6
HETATM    6  C   UNL     1      -9.567  11.461  65.662  1.00  0.00    -0.231 C  
BRANCH   6   7
HETATM    7  C   UNL     1      -9.764  10.069  65.072  1.00  0.00    -0.386 C  
BRANCH   7   8
HETATM    8  C   UNL     1      -9.599   8.926  66.081  1.00  0.00    -0.335 C  
BRANCH   8   9
HETATM    9  C   UNL     1     -10.110   9.250  67.481  1.00  0.00    -0.218 C  
BRANCH   9  10
HETATM   10  O   UNL     1     -10.717   8.093  68.037  1.00  0.00    -0.157 OA 
HETATM   11  S   UNL     1     -10.398   7.769  69.602  1.00  0.00    -0.213 S  
HETATM   12  O   UNL     1     -11.041   8.776  70.416  1.00  0.00    -0.241 OA 
HETATM   13  O   UNL     1      -8.992   7.454  69.732  1.00  0.00    -0.141 OA 
HETATM   14  C   UNL     1     -11.335   6.265  69.714  1.00  0.00    -0.436 C  
ENDBRANCH   9  10
ENDBRANCH   8   9
ENDBRANCH   7   8
ENDBRANCH   6   7
ENDBRANCH   3   6
TORSDOF 5
ENDMDL
MODEL      115
REMARK 921   NORMALIZED FREE ENERGY PREDICTED BY IDOCK:   -3.45 KCAL/MOL
REMARK 922        TOTAL FREE ENERGY PREDICTED BY IDOCK:   -4.65 KCAL/MOL
REMARK 923 INTER-LIGAND FREE ENERGY PREDICTED BY IDOCK:   -4.33 KCAL/MOL
REMARK 924 INTRA-LIGAND FREE ENERGY PREDICTED BY IDOCK:   -0.32 KCAL/MOL
REMARK 927      BINDING AFFINITY PREDICTED BY RF-SCORE:    0.00 PKD
ROOT
HETATM    1  C   UNL     1      -9.985  19.641  69.111  1.00  0.00    -0.339 C  
HETATM    2  S   UNL     1      -9.917  19.029  67.444  1.00  0.00    -0.364 S  
HETATM    3  O   UNL     1      -8.393  18.453  67.488  1.00  0.00    -0.249 OA 
HETATM    4  O   UNL     1     -10.825  17.910  67.327  1.00  0.00    -0.312 OA 
HETATM    5  O   UNL     1      -9.959  20.154  66.535  1.00  0.00    -0.432 OA 
ENDROOT
BRANCH   3   6
HETATM    6  C   UNL     1      -7.890  17.887  66.285  1.00  0.00    -0.261 C  
BRANCH   6   7
HETATM    7  C   UNL     1      -7.407  16.464  66.544  1.00  0.00    -0.176 C  
BRANCH   7   8
HETATM    8  C   UNL     1      -8.474  15.530  67.128  1.00  0.00    -0.239 C  
BRANCH   8   9
HETATM    9  C   UNL     1      -9.344  14.844  66.080  1.00  0.00    -0.241 C  
BRANCH   9  10
HETATM   10  O   UNL     1      -9.965  13.706  66.659  1.00  0.00    -0.267 OA 
HETATM   11  S   UNL     1     -11.567  13.796  66.937  1.00  0.00    -0.392 S  
HETATM   12  O   UNL     1     -12.252  13.804  65.663  1.00  0.00    -0.396 OA 
HETATM   13  O   UNL     1     -11.805  14.806  67.947  1.00  0.00    -0.345 OA 
HETATM   14  C   UNL     1     -11.757  12.193  67.675  1.00  0.00    -0.316 C  
ENDBRANCH   9  10
ENDBRANCH   8   9
ENDBRANCH   7   8
ENDBRANCH   6   7
ENDBRANCH   3   6
TORSDOF 5
ENDMDL
MODEL      116
REMARK 921   NORMALIZED FREE ENERGY PREDICTED BY IDOCK:   -3.44 KCAL/MOL
REMARK 922        TOTAL FREE ENERGY PREDICTED BY IDOCK:   -4.64 KCAL/MOL
REMARK 923 INTER-LIGAND FREE ENERGY PREDICTED BY IDOCK:   -4.20 KCAL/MOL
REMARK 924 INTRA-LIGAND FREE ENERGY PREDICTED BY IDOCK:   -0.44 KCAL/MOL
REMARK 927      BINDING AFFINITY PREDICTED BY RF-SCORE:    0.00 PKD
ROOT
HETATM    1  C   UNL     1     -12.426  10.159  71.474  1.00  0.00    -0.427 C  
HETATM    2  S   UNL     1     -11.196   8.876  71.455  1.00  0.00    -0.353 S  
HETATM    3  O   UNL     1     -11.904   7.915  70.346  1.00  0.00    -0.106 OA 
HETATM    4  O   UNL     1      -9.979   9.412  70.886  1.00  0.00    -0.278 OA 
HETATM    5  O   UNL     1     -11.216   8.197  72.733  1.00  0.00    -0.389 OA 
ENDROOT
BRANCH   3   6
HETATM    6  C   UNL     1     -11.244   6.692  70.047  1.00  0.00    -0.369 C  
BRANCH   6   7
HETATM    7  C   UNL     1     -11.107   6.533  68.536  1.00  0.00    -0.347 C  
BRANCH   7   8
HETATM    8  C   UNL     1     -10.093   7.486  67.890  1.00  0.00    -0.226 C  
BRANCH   8   9
HETATM    9  C   UNL     1     -10.721   8.703  67.219  1.00  0.00    -0.139 C  
BRANCH   9  10
HETATM   10  O   UNL     1     -10.175   9.884  67.787  1.00  0.00    -0.173 OA 
HETATM   11  S   UNL     1     -10.902  11.292  67.409  1.00  0.00    -0.279 S  
HETATM   12  O   UNL     1     -12.203  11.318  68.039  1.00  0.00    -0.621 OA 
HETATM   13  O   UNL     1     -10.725  11.539  65.994  1.00  0.00    -0.268 OA 
HETATM   14  C   UNL     1      -9.809  12.358  68.317  1.00  0.00    -0.224 C  
ENDBRANCH   9  10
ENDBRANCH   8   9
ENDBRANCH   7   8
ENDBRANCH   6   7
ENDBRANCH   3   6
TORSDOF 5
ENDMDL
MODEL      117
REMARK 921   NORMALIZED FREE ENERGY PREDICTED BY IDOCK:   -3.44 KCAL/MOL
REMARK 922        TOTAL FREE ENERGY PREDICTED BY IDOCK:   -4.63 KCAL/MOL
REMARK 923 INTER-LIGAND FREE ENERGY PREDICTED BY IDOCK:   -4.80 KCAL/MOL
REMARK 924 INTRA-LIGAND FREE ENERGY PREDICTED BY IDOCK:    0.17 KCAL/MOL
REMARK 927      BINDING AFFINITY PREDICTED BY RF-SCORE:    0.00 PKD
ROOT
HETATM    1  C   UNL     1     -10.412   7.239  68.320  1.00  0.00    -0.199 C  
HETATM    2  S   UNL     1      -9.762   8.661  67.476  1.00  0.00    -0.177 S  
HETATM    3  O   UNL     1     -11.086   9.604  67.592  1.00  0.00    -0.214 OA 
HETATM    4  O   UNL     1      -8.715   9.241  68.287  1.00  0.00    -0.128 OA 
HETATM    5  O   UNL     1      -9.560   8.321  66.083  1.00  0.00    -0.209 OA 
ENDROOT
BRANCH   3   6
HETATM    6  C   UNL     1     -11.014  10.883  66.977  1.00  0.00    -0.247 C  
BRANCH   6   7
HETATM    7  C   UNL     1     -10.947  11.969  68.046  1.00  0.00    -0.267 C  
BRANCH   7   8
HETATM    8  C   UNL     1     -12.025  13.053  67.915  1.00  0.00    -0.338 C  
BRANCH   8   9
HETATM    9  C   UNL     1     -11.778  14.047  66.785  1.00  0.00    -0.407 C  
BRANCH   9  10
HETATM   10  O   UNL     1     -11.281  13.353  65.651  1.00  0.00    -0.292 OA 
HETATM   11  S   UNL     1     -12.268  13.237  64.360  1.00  0.00    -0.379 S  
HETATM   12  O   UNL     1     -12.412  14.552  63.776  1.00  0.00    -0.809 OA 
HETATM   13  O   UNL     1     -13.410  12.425  64.723  1.00  0.00    -0.718 OA 
HETATM   14  C   UNL     1     -11.184  12.275  63.335  1.00  0.00    -0.420 C  
ENDBRANCH   9  10
ENDBRANCH   8   9
ENDBRANCH   7   8
ENDBRANCH   6   7
ENDBRANCH   3   6
TORSDOF 5
ENDMDL
MODEL      118
REMARK 921   NORMALIZED FREE ENERGY PREDICTED BY IDOCK:   -3.41 KCAL/MOL
REMARK 922        TOTAL FREE ENERGY PREDICTED BY IDOCK:   -4.60 KCAL/MOL
REMARK 923 INTER-LIGAND FREE ENERGY PREDICTED BY IDOCK:   -4.39 KCAL/MOL
REMARK 924 INTRA-LIGAND FREE ENERGY PREDICTED BY IDOCK:   -0.21 KCAL/MOL
REMARK 927      BINDING AFFINITY PREDICTED BY RF-SCORE:    0.00 PKD
ROOT
HETATM    1  C   UNL     1     -10.648  17.288  67.404  1.00  0.00    -0.303 C  
HETATM    2  S   UNL     1     -10.284  16.565  65.822  1.00  0.00    -0.292 S  
HETATM    3  O   UNL     1     -10.920  15.092  66.108  1.00  0.00    -0.327 OA 
HETATM    4  O   UNL     1     -11.090  17.223  64.817  1.00  0.00    -0.954 OA 
HETATM    5  O   UNL     1      -8.849  16.430  65.692  1.00  0.00    -0.406 OA 
ENDROOT
BRANCH   3   6
HETATM    6  C   UNL     1     -10.800  14.132  65.066  1.00  0.00    -0.398 C  
BRANCH   6   7
HETATM    7  C   UNL     1     -11.409  12.806  65.510  1.00  0.00    -0.347 C  
BRANCH   7   8
HETATM    8  C   UNL     1     -10.704  12.156  66.708  1.00  0.00    -0.269 C  
BRANCH   8   9
HETATM    9  C   UNL     1     -10.763  10.633  66.716  1.00  0.00    -0.210 C  
BRANCH   9  10
HETATM   10  O   UNL     1     -10.105  10.132  65.562  1.00  0.00    -0.289 OA 
HETATM   11  S   UNL     1      -8.765   9.237  65.802  1.00  0.00    -0.167 S  
HETATM   12  O   UNL     1      -9.157   7.981  66.403  1.00  0.00    -0.164 OA 
HETATM   13  O   UNL     1      -7.742  10.083  66.380  1.00  0.00    -0.100 OA 
HETATM   14  C   UNL     1      -8.376   8.954  64.093  1.00  0.00    -0.163 C  
ENDBRANCH   9  10
ENDBRANCH   8   9
ENDBRANCH   7   8
ENDBRANCH   6   7
ENDBRANCH   3   6
TORSDOF 5
ENDMDL
MODEL      119
REMARK 921   NORMALIZED FREE ENERGY PREDICTED BY IDOCK:   -3.41 KCAL/MOL
REMARK 922        TOTAL FREE ENERGY PREDICTED BY IDOCK:   -4.60 KCAL/MOL
REMARK 923 INTER-LIGAND FREE ENERGY PREDICTED BY IDOCK:   -4.20 KCAL/MOL
REMARK 924 INTRA-LIGAND FREE ENERGY PREDICTED BY IDOCK:   -0.40 KCAL/MOL
REMARK 927      BINDING AFFINITY PREDICTED BY RF-SCORE:    0.00 PKD
ROOT
HETATM    1  C   UNL     1      -6.761  13.632  67.633  1.00  0.00    -0.174 C  
HETATM    2  S   UNL     1      -7.014  11.875  67.556  1.00  0.00    -0.136 S  
HETATM    3  O   UNL     1      -8.633  11.899  67.375  1.00  0.00    -0.151 OA 
HETATM    4  O   UNL     1      -6.425  11.378  66.332  1.00  0.00    -0.116 OA 
HETATM    5  O   UNL     1      -6.703  11.304  68.849  1.00  0.00    -0.067 OA 
ENDROOT
BRANCH   3   6
HETATM    6  C   UNL     1      -9.287  10.638  67.313  1.00  0.00    -0.150 C  
BRANCH   6   7
HETATM    7  C   UNL     1     -10.748  10.791  67.723  1.00  0.00    -0.296 C  
BRANCH   7   8
HETATM    8  C   UNL     1     -11.091  12.151  68.345  1.00  0.00    -0.289 C  
BRANCH   8   9
HETATM    9  C   UNL     1     -12.055  12.991  67.515  1.00  0.00    -0.224 C  
BRANCH   9  10
HETATM   10  O   UNL     1     -12.158  12.437  66.212  1.00  0.00    -0.612 OA 
HETATM   11  S   UNL     1     -11.928  13.447  64.955  1.00  0.00    -0.399 S  
HETATM   12  O   UNL     1     -10.534  13.831  64.928  1.00  0.00    -0.377 OA 
HETATM   13  O   UNL     1     -12.998  14.423  64.945  1.00  0.00    -0.641 OA 
HETATM   14  C   UNL     1     -12.218  12.266  63.662  1.00  0.00    -0.567 C  
ENDBRANCH   9  10
ENDBRANCH   8   9
ENDBRANCH   7   8
ENDBRANCH   6   7
ENDBRANCH   3   6
TORSDOF 5
ENDMDL
MODEL      120
REMARK 921   NORMALIZED FREE ENERGY PREDICTED BY IDOCK:   -3.41 KCAL/MOL
REMARK 922        TOTAL FREE ENERGY PREDICTED BY IDOCK:   -4.60 KCAL/MOL
REMARK 923 INTER-LIGAND FREE ENERGY PREDICTED BY IDOCK:   -4.43 KCAL/MOL
REMARK 924 INTRA-LIGAND FREE ENERGY PREDICTED BY IDOCK:   -0.16 KCAL/MOL
REMARK 927      BINDING AFFINITY PREDICTED BY RF-SCORE:    0.00 PKD
ROOT
HETATM    1  C   UNL     1      -9.398  15.613  65.693  1.00  0.00    -0.172 C  
HETATM    2  S   UNL     1     -11.084  15.350  65.197  1.00  0.00    -0.378 S  
HETATM    3  O   UNL     1     -10.858  13.946  64.401  1.00  0.00    -0.388 OA 
HETATM    4  O   UNL     1     -11.877  15.084  66.376  1.00  0.00    -0.207 OA 
HETATM    5  O   UNL     1     -11.449  16.370  64.236  1.00  0.00    -0.876 OA 
ENDROOT
BRANCH   3   6
HETATM    6  C   UNL     1     -12.000  13.376  63.775  1.00  0.00    -0.461 C  
BRANCH   6   7
HETATM    7  C   UNL     1     -11.775  11.885  63.546  1.00  0.00    -0.550 C  
BRANCH   7   8
HETATM    8  C   UNL     1     -10.395  11.379  63.985  1.00  0.00    -0.418 C  
BRANCH   8   9
HETATM    9  C   UNL     1     -10.341  10.884  65.426  1.00  0.00    -0.261 C  
BRANCH   9  10
HETATM   10  O   UNL     1      -9.623   9.660  65.475  1.00  0.00    -0.249 OA 
HETATM   11  S   UNL     1      -8.304   9.612  66.429  1.00  0.00    -0.120 S  
HETATM   12  O   UNL     1      -8.735   9.677  67.808  1.00  0.00    -0.122 OA 
HETATM   13  O   UNL     1      -7.309  10.514  65.889  1.00  0.00    -0.137 OA 
HETATM   14  C   UNL     1      -7.823   7.943  66.062  1.00  0.00    -0.095 C  
ENDBRANCH   9  10
ENDBRANCH   8   9
ENDBRANCH   7   8
ENDBRANCH   6   7
ENDBRANCH   3   6
TORSDOF 5
ENDMDL
MODEL      121
REMARK 921   NORMALIZED FREE ENERGY PREDICTED BY IDOCK:   -3.39 KCAL/MOL
REMARK 922        TOTAL FREE ENERGY PREDICTED BY IDOCK:   -4.57 KCAL/MOL
REMARK 923 INTER-LIGAND FREE ENERGY PREDICTED BY IDOCK:   -4.31 KCAL/MOL
REMARK 924 INTRA-LIGAND FREE ENERGY PREDICTED BY IDOCK:   -0.25 KCAL/MOL
REMARK 927      BINDING AFFINITY PREDICTED BY RF-SCORE:    0.00 PKD
ROOT
HETATM    1  C   UNL     1      -7.685   9.891  69.585  1.00  0.00    -0.149 C  
HETATM    2  S   UNL     1      -9.344   9.464  69.110  1.00  0.00    -0.165 S  
HETATM    3  O   UNL     1     -10.095   9.993  70.456  1.00  0.00    -0.216 OA 
HETATM    4  O   UNL     1      -9.739  10.310  68.005  1.00  0.00    -0.147 OA 
HETATM    5  O   UNL     1      -9.455   8.023  69.056  1.00  0.00    -0.151 OA 
ENDROOT
BRANCH   3   6
HETATM    6  C   UNL     1     -11.502   9.796  70.521  1.00  0.00    -0.300 C  
BRANCH   6   7
HETATM    7  C   UNL     1     -12.211  11.145  70.586  1.00  0.00    -0.492 C  
BRANCH   7   8
HETATM    8  C   UNL     1     -13.052  11.356  71.852  1.00  0.00    -0.505 C  
BRANCH   8   9
HETATM    9  C   UNL     1     -13.877  12.638  71.846  1.00  0.00     0.103 C  
BRANCH   9  10
HETATM   10  O   UNL     1     -13.360  13.533  72.819  1.00  0.00    -0.548 OA 
HETATM   11  S   UNL     1     -13.000  15.042  72.322  1.00  0.00    -0.383 S  
HETATM   12  O   UNL     1     -14.235  15.729  72.016  1.00  0.00    -0.429 OA 
HETATM   13  O   UNL     1     -11.904  14.968  71.380  1.00  0.00    -0.315 OA 
HETATM   14  C   UNL     1     -12.382  15.646  73.873  1.00  0.00    -0.617 C  
ENDBRANCH   9  10
ENDBRANCH   8   9
ENDBRANCH   7   8
ENDBRANCH   6   7
ENDBRANCH   3   6
TORSDOF 5
ENDMDL
MODEL      122
REMARK 921   NORMALIZED FREE ENERGY PREDICTED BY IDOCK:   -3.38 KCAL/MOL
REMARK 922        TOTAL FREE ENERGY PREDICTED BY IDOCK:   -4.56 KCAL/MOL
REMARK 923 INTER-LIGAND FREE ENERGY PREDICTED BY IDOCK:   -4.29 KCAL/MOL
REMARK 924 INTRA-LIGAND FREE ENERGY PREDICTED BY IDOCK:   -0.27 KCAL/MOL
REMARK 927      BINDING AFFINITY PREDICTED BY RF-SCORE:    0.00 PKD
ROOT
HETATM    1  C   UNL     1     -12.502  12.753  65.560  1.00  0.00    -0.354 C  
HETATM    2  S   UNL     1     -11.713  14.041  64.623  1.00  0.00    -0.422 S  
HETATM    3  O   UNL     1     -11.433  15.065  65.859  1.00  0.00    -0.321 OA 
HETATM    4  O   UNL     1     -10.442  13.548  64.141  1.00  0.00    -0.358 OA 
HETATM    5  O   UNL     1     -12.692  14.640  63.741  1.00  0.00    -0.778 OA 
ENDROOT
BRANCH   3   6
HETATM    6  C   UNL     1     -10.824  16.307  65.532  1.00  0.00    -0.245 C  
BRANCH   6   7
HETATM    7  C   UNL     1     -10.464  17.060  66.809  1.00  0.00    -0.257 C  
BRANCH   7   8
HETATM    8  C   UNL     1      -9.515  18.246  66.597  1.00  0.00    -0.308 C  
BRANCH   8   9
HETATM    9  C   UNL     1      -8.408  18.356  67.641  1.00  0.00    -0.251 C  
BRANCH   9  10
HETATM   10  O   UNL     1      -8.268  17.110  68.307  1.00  0.00    -0.213 OA 
HETATM   11  S   UNL     1      -6.776  16.456  68.348  1.00  0.00    -0.146 S  
HETATM   12  O   UNL     1      -5.945  17.268  69.209  1.00  0.00    -0.191 OA 
HETATM   13  O   UNL     1      -6.384  16.113  66.998  1.00  0.00    -0.267 OA 
HETATM   14  C   UNL     1      -7.209  14.968  69.214  1.00  0.00    -0.179 C  
ENDBRANCH   9  10
ENDBRANCH   8   9
ENDBRANCH   7   8
ENDBRANCH   6   7
ENDBRANCH   3   6
TORSDOF 5
ENDMDL
MODEL      123
REMARK 921   NORMALIZED FREE ENERGY PREDICTED BY IDOCK:   -3.37 KCAL/MOL
REMARK 922        TOTAL FREE ENERGY PREDICTED BY IDOCK:   -4.54 KCAL/MOL
REMARK 923 INTER-LIGAND FREE ENERGY PREDICTED BY IDOCK:   -4.12 KCAL/MOL
REMARK 924 INTRA-LIGAND FREE ENERGY PREDICTED BY IDOCK:   -0.42 KCAL/MOL
REMARK 927      BINDING AFFINITY PREDICTED BY RF-SCORE:    0.00 PKD
ROOT
HETATM    1  C   UNL     1      -6.362  14.737  70.064  1.00  0.00    -0.164 C  
HETATM    2  S   UNL     1      -6.543  15.803  68.654  1.00  0.00    -0.121 S  
HETATM    3  O   UNL     1      -5.724  17.082  69.245  1.00  0.00    -0.161 OA 
HETATM    4  O   UNL     1      -5.787  15.245  67.554  1.00  0.00    -0.293 OA 
HETATM    5  O   UNL     1      -7.937  16.168  68.524  1.00  0.00    -0.158 OA 
ENDROOT
BRANCH   3   6
HETATM    6  C   UNL     1      -5.659  18.235  68.416  1.00  0.00    -0.171 C  
BRANCH   6   7
HETATM    7  C   UNL     1      -6.394  19.394  69.080  1.00  0.00    -0.321 C  
BRANCH   7   8
HETATM    8  C   UNL     1      -6.405  20.690  68.259  1.00  0.00    -0.352 C  
BRANCH   8   9
HETATM    9  C   UNL     1      -7.535  20.773  67.238  1.00  0.00    -0.328 C  
BRANCH   9  10
HETATM   10  O   UNL     1      -8.606  19.941  67.657  1.00  0.00    -0.316 OA 
HETATM   11  S   UNL     1      -9.467  19.199  66.490  1.00  0.00    -0.367 S  
HETATM   12  O   UNL     1      -8.629  18.195  65.872  1.00  0.00    -0.507 OA 
HETATM   13  O   UNL     1     -10.162  20.206  65.717  1.00  0.00    -0.448 OA 
HETATM   14  C   UNL     1     -10.633  18.387  67.555  1.00  0.00    -0.416 C  
ENDBRANCH   9  10
ENDBRANCH   8   9
ENDBRANCH   7   8
ENDBRANCH   6   7
ENDBRANCH   3   6
TORSDOF 5
ENDMDL
MODEL      124
REMARK 921   NORMALIZED FREE ENERGY PREDICTED BY IDOCK:   -3.36 KCAL/MOL
REMARK 922        TOTAL FREE ENERGY PREDICTED BY IDOCK:   -4.54 KCAL/MOL
REMARK 923 INTER-LIGAND FREE ENERGY PREDICTED BY IDOCK:   -4.25 KCAL/MOL
REMARK 924 INTRA-LIGAND FREE ENERGY PREDICTED BY IDOCK:   -0.29 KCAL/MOL
REMARK 927      BINDING AFFINITY PREDICTED BY RF-SCORE:    0.00 PKD
ROOT
HETATM    1  C   UNL     1     -11.374   8.203  72.376  1.00  0.00    -0.391 C  
HETATM    2  S   UNL     1      -9.887   8.200  71.404  1.00  0.00    -0.184 S  
HETATM    3  O   UNL     1     -10.527   8.800  70.030  1.00  0.00    -0.202 OA 
HETATM    4  O   UNL     1      -8.976   9.182  71.950  1.00  0.00    -0.340 OA 
HETATM    5  O   UNL     1      -9.490   6.829  71.166  1.00  0.00    -0.163 OA 
ENDROOT
BRANCH   3   6
HETATM    6  C   UNL     1      -9.649   8.929  68.920  1.00  0.00    -0.160 C  
BRANCH   6   7
HETATM    7  C   UNL     1     -10.084  10.101  68.048  1.00  0.00    -0.186 C  
BRANCH   7   8
HETATM    8  C   UNL     1     -10.274  11.419  68.810  1.00  0.00    -0.209 C  
BRANCH   8   9
HETATM    9  C   UNL     1     -11.604  12.114  68.535  1.00  0.00    -0.315 C  
BRANCH   9  10
HETATM   10  O   UNL     1     -11.968  11.908  67.178  1.00  0.00    -0.611 OA 
HETATM   11  S   UNL     1     -11.745  13.154  66.153  1.00  0.00    -0.401 S  
HETATM   12  O   UNL     1     -10.323  13.352  65.978  1.00  0.00    -0.285 OA 
HETATM   13  O   UNL     1     -12.632  14.232  66.535  1.00  0.00    -0.360 OA 
HETATM   14  C   UNL     1     -12.393  12.367  64.700  1.00  0.00    -0.441 C  
ENDBRANCH   9  10
ENDBRANCH   8   9
ENDBRANCH   7   8
ENDBRANCH   6   7
ENDBRANCH   3   6
TORSDOF 5
ENDMDL
MODEL      125
REMARK 921   NORMALIZED FREE ENERGY PREDICTED BY IDOCK:   -3.36 KCAL/MOL
REMARK 922        TOTAL FREE ENERGY PREDICTED BY IDOCK:   -4.53 KCAL/MOL
REMARK 923 INTER-LIGAND FREE ENERGY PREDICTED BY IDOCK:   -4.30 KCAL/MOL
REMARK 924 INTRA-LIGAND FREE ENERGY PREDICTED BY IDOCK:   -0.24 KCAL/MOL
REMARK 927      BINDING AFFINITY PREDICTED BY RF-SCORE:    0.00 PKD
ROOT
HETATM    1  C   UNL     1     -12.629  10.069  71.645  1.00  0.00    -0.427 C  
HETATM    2  S   UNL     1     -11.586   8.637  71.505  1.00  0.00    -0.326 S  
HETATM    3  O   UNL     1     -11.010   8.935  70.010  1.00  0.00    -0.236 OA 
HETATM    4  O   UNL     1     -10.497   8.765  72.447  1.00  0.00    -0.305 OA 
HETATM    5  O   UNL     1     -12.423   7.457  71.449  1.00  0.00    -0.337 OA 
ENDROOT
BRANCH   3   6
HETATM    6  C   UNL     1     -10.129   7.965  69.460  1.00  0.00    -0.195 C  
BRANCH   6   7
HETATM    7  C   UNL     1      -8.940   8.658  68.802  1.00  0.00    -0.138 C  
BRANCH   7   8
HETATM    8  C   UNL     1      -8.967  10.189  68.902  1.00  0.00    -0.155 C  
BRANCH   8   9
HETATM    9  C   UNL     1      -9.320  10.893  67.596  1.00  0.00    -0.156 C  
BRANCH   9  10
HETATM   10  O   UNL     1      -9.986  12.113  67.887  1.00  0.00    -0.189 OA 
HETATM   11  S   UNL     1     -11.590  12.168  67.607  1.00  0.00    -0.326 S  
HETATM   12  O   UNL     1     -12.250  11.314  68.569  1.00  0.00    -0.588 OA 
HETATM   13  O   UNL     1     -11.815  12.043  66.183  1.00  0.00    -0.546 OA 
HETATM   14  C   UNL     1     -11.842  13.860  68.081  1.00  0.00    -0.372 C  
ENDBRANCH   9  10
ENDBRANCH   8   9
ENDBRANCH   7   8
ENDBRANCH   6   7
ENDBRANCH   3   6
TORSDOF 5
ENDMDL
MODEL      126
REMARK 921   NORMALIZED FREE ENERGY PREDICTED BY IDOCK:   -3.36 KCAL/MOL
REMARK 922        TOTAL FREE ENERGY PREDICTED BY IDOCK:   -4.52 KCAL/MOL
REMARK 923 INTER-LIGAND FREE ENERGY PREDICTED BY IDOCK:   -4.34 KCAL/MOL
REMARK 924 INTRA-LIGAND FREE ENERGY PREDICTED BY IDOCK:   -0.19 KCAL/MOL
REMARK 927      BINDING AFFINITY PREDICTED BY RF-SCORE:    0.00 PKD
ROOT
HETATM    1  C   UNL     1      -8.593   9.200  70.421  1.00  0.00    -0.209 C  
HETATM    2  S   UNL     1     -10.367   9.177  70.520  1.00  0.00    -0.257 S  
HETATM    3  O   UNL     1     -10.634  10.678  69.943  1.00  0.00    -0.238 OA 
HETATM    4  O   UNL     1     -10.870   8.222  69.558  1.00  0.00    -0.210 OA 
HETATM    5  O   UNL     1     -10.753   9.144  71.914  1.00  0.00    -0.357 OA 
ENDROOT
BRANCH   3   6
HETATM    6  C   UNL     1     -11.987  11.110  69.891  1.00  0.00    -0.363 C  
BRANCH   6   7
HETATM    7  C   UNL     1     -12.044  12.633  69.841  1.00  0.00    -0.322 C  
BRANCH   7   8
HETATM    8  C   UNL     1     -11.196  13.260  68.726  1.00  0.00    -0.317 C  
BRANCH   8   9
HETATM    9  C   UNL     1     -12.010  13.876  67.594  1.00  0.00    -0.368 C  
BRANCH   9  10
HETATM   10  O   UNL     1     -11.506  15.172  67.305  1.00  0.00    -0.345 OA 
HETATM   11  S   UNL     1     -10.685  15.354  65.910  1.00  0.00    -0.341 S  
HETATM   12  O   UNL     1     -11.618  15.224  64.812  1.00  0.00    -0.380 OA 
HETATM   13  O   UNL     1      -9.468  14.575  65.985  1.00  0.00    -0.292 OA 
HETATM   14  C   UNL     1     -10.280  17.071  66.111  1.00  0.00    -0.337 C  
ENDBRANCH   9  10
ENDBRANCH   8   9
ENDBRANCH   7   8
ENDBRANCH   6   7
ENDBRANCH   3   6
TORSDOF 5
ENDMDL
MODEL      127
REMARK 921   NORMALIZED FREE ENERGY PREDICTED BY IDOCK:   -3.35 KCAL/MOL
REMARK 922        TOTAL FREE ENERGY PREDICTED BY IDOCK:   -4.52 KCAL/MOL
REMARK 923 INTER-LIGAND FREE ENERGY PREDICTED BY IDOCK:   -5.07 KCAL/MOL
REMARK 924 INTRA-LIGAND FREE ENERGY PREDICTED BY IDOCK:    0.55 KCAL/MOL
REMARK 927      BINDING AFFINITY PREDICTED BY RF-SCORE:    0.00 PKD
ROOT
HETATM    1  C   UNL     1     -12.868  15.559  73.521  1.00  0.00    -0.560 C  
HETATM    2  S   UNL     1     -13.593  14.692  72.149  1.00  0.00    -0.463 S  
HETATM    3  O   UNL     1     -12.213  14.103  71.514  1.00  0.00    -0.334 OA 
HETATM    4  O   UNL     1     -14.369  13.584  72.662  1.00  0.00    -0.716 OA 
HETATM    5  O   UNL     1     -14.147  15.661  71.228  1.00  0.00    -0.560 OA 
ENDROOT
BRANCH   3   6
HETATM    6  C   UNL     1     -12.334  13.346  70.316  1.00  0.00    -0.284 C  
BRANCH   6   7
HETATM    7  C   UNL     1     -12.234  11.857  70.632  1.00  0.00    -0.424 C  
BRANCH   7   8
HETATM    8  C   UNL     1     -11.432  11.047  69.606  1.00  0.00    -0.375 C  
BRANCH   8   9
HETATM    9  C   UNL     1     -11.180  11.778  68.291  1.00  0.00    -0.255 C  
BRANCH   9  10
HETATM   10  O   UNL     1     -10.440  12.962  68.548  1.00  0.00    -0.247 OA 
HETATM   11  S   UNL     1      -9.436  13.479  67.374  1.00  0.00    -0.234 S  
HETATM   12  O   UNL     1     -10.236  13.948  66.264  1.00  0.00    -0.282 OA 
HETATM   13  O   UNL     1      -8.380  12.504  67.206  1.00  0.00    -0.171 OA 
HETATM   14  C   UNL     1      -8.786  14.886  68.239  1.00  0.00    -0.166 C  
ENDBRANCH   9  10
ENDBRANCH   8   9
ENDBRANCH   7   8
ENDBRANCH   6   7
ENDBRANCH   3   6
TORSDOF 5
ENDMDL
MODEL      128
REMARK 921   NORMALIZED FREE ENERGY PREDICTED BY IDOCK:   -3.35 KCAL/MOL
REMARK 922        TOTAL FREE ENERGY PREDICTED BY IDOCK:   -4.51 KCAL/MOL
REMARK 923 INTER-LIGAND FREE ENERGY PREDICTED BY IDOCK:   -4.17 KCAL/MOL
REMARK 924 INTRA-LIGAND FREE ENERGY PREDICTED BY IDOCK:   -0.34 KCAL/MOL
REMARK 927      BINDING AFFINITY PREDICTED BY RF-SCORE:    0.00 PKD
ROOT
HETATM    1  C   UNL     1     -10.495  19.579  66.062  1.00  0.00    -0.516 C  
HETATM    2  S   UNL     1      -9.383  19.407  67.437  1.00  0.00    -0.325 S  
HETATM    3  O   UNL     1      -8.723  17.981  67.001  1.00  0.00    -0.236 OA 
HETATM    4  O   UNL     1      -8.365  20.430  67.338  1.00  0.00    -0.333 OA 
HETATM    5  O   UNL     1     -10.160  19.206  68.640  1.00  0.00    -0.391 OA 
ENDROOT
BRANCH   3   6
HETATM    6  C   UNL     1      -7.764  17.425  67.891  1.00  0.00    -0.199 C  
BRANCH   6   7
HETATM    7  C   UNL     1      -7.659  15.920  67.664  1.00  0.00    -0.171 C  
BRANCH   7   8
HETATM    8  C   UNL     1      -8.604  15.376  66.585  1.00  0.00    -0.318 C  
BRANCH   8   9
HETATM    9  C   UNL     1      -9.313  14.082  66.970  1.00  0.00    -0.250 C  
BRANCH   9  10
HETATM   10  O   UNL     1      -9.871  14.221  68.268  1.00  0.00    -0.221 OA 
HETATM   11  S   UNL     1     -11.420  14.716  68.360  1.00  0.00    -0.327 S  
HETATM   12  O   UNL     1     -12.268  13.656  67.861  1.00  0.00    -0.320 OA 
HETATM   13  O   UNL     1     -11.503  16.071  67.858  1.00  0.00    -0.270 OA 
HETATM   14  C   UNL     1     -11.538  14.753  70.131  1.00  0.00    -0.290 C  
ENDBRANCH   9  10
ENDBRANCH   8   9
ENDBRANCH   7   8
ENDBRANCH   6   7
ENDBRANCH   3   6
TORSDOF 5
ENDMDL
MODEL      129
REMARK 921   NORMALIZED FREE ENERGY PREDICTED BY IDOCK:   -3.34 KCAL/MOL
REMARK 922        TOTAL FREE ENERGY PREDICTED BY IDOCK:   -4.50 KCAL/MOL
REMARK 923 INTER-LIGAND FREE ENERGY PREDICTED BY IDOCK:   -4.39 KCAL/MOL
REMARK 924 INTRA-LIGAND FREE ENERGY PREDICTED BY IDOCK:   -0.12 KCAL/MOL
REMARK 927      BINDING AFFINITY PREDICTED BY RF-SCORE:    0.00 PKD
ROOT
HETATM    1  C   UNL     1     -10.065  10.031  65.679  1.00  0.00    -0.251 C  
HETATM    2  S   UNL     1     -10.531  11.362  66.760  1.00  0.00    -0.254 S  
HETATM    3  O   UNL     1     -10.975  12.428  65.610  1.00  0.00    -0.270 OA 
HETATM    4  O   UNL     1     -11.712  10.967  67.496  1.00  0.00    -0.565 OA 
HETATM    5  O   UNL     1      -9.344  11.862  67.419  1.00  0.00    -0.171 OA 
ENDROOT
BRANCH   3   6
HETATM    6  C   UNL     1     -11.395  13.710  66.056  1.00  0.00    -0.312 C  
BRANCH   6   7
HETATM    7  C   UNL     1     -10.380  14.766  65.631  1.00  0.00    -0.369 C  
BRANCH   7   8
HETATM    8  C   UNL     1      -9.530  15.325  66.780  1.00  0.00    -0.264 C  
BRANCH   8   9
HETATM    9  C   UNL     1      -8.717  16.561  66.412  1.00  0.00    -0.322 C  
BRANCH   9  10
HETATM   10  O   UNL     1      -9.508  17.721  66.620  1.00  0.00    -0.274 OA 
HETATM   11  S   UNL     1      -9.462  18.394  68.104  1.00  0.00    -0.323 S  
HETATM   12  O   UNL     1      -8.152  18.974  68.301  1.00  0.00    -0.298 OA 
HETATM   13  O   UNL     1     -10.045  17.467  69.050  1.00  0.00    -0.318 OA 
HETATM   14  C   UNL     1     -10.622  19.701  67.793  1.00  0.00    -0.396 C  
ENDBRANCH   9  10
ENDBRANCH   8   9
ENDBRANCH   7   8
ENDBRANCH   6   7
ENDBRANCH   3   6
TORSDOF 5
ENDMDL
MODEL      130
REMARK 921   NORMALIZED FREE ENERGY PREDICTED BY IDOCK:   -3.33 KCAL/MOL
REMARK 922        TOTAL FREE ENERGY PREDICTED BY IDOCK:   -4.50 KCAL/MOL
REMARK 923 INTER-LIGAND FREE ENERGY PREDICTED BY IDOCK:   -4.23 KCAL/MOL
REMARK 924 INTRA-LIGAND FREE ENERGY PREDICTED BY IDOCK:   -0.27 KCAL/MOL
REMARK 927      BINDING AFFINITY PREDICTED BY RF-SCORE:    0.00 PKD
ROOT
HETATM    1  C   UNL     1      -8.502  18.737  66.267  1.00  0.00    -0.241 C  
HETATM    2  S   UNL     1     -10.194  18.249  66.508  1.00  0.00    -0.403 S  
HETATM    3  O   UNL     1      -9.910  16.937  67.432  1.00  0.00    -0.250 OA 
HETATM    4  O   UNL     1     -10.850  19.248  67.322  1.00  0.00    -0.479 OA 
HETATM    5  O   UNL     1     -10.736  17.811  65.240  1.00  0.00    -0.649 OA 
ENDROOT
BRANCH   3   6
HETATM    6  C   UNL     1     -11.046  16.182  67.834  1.00  0.00    -0.293 C  
BRANCH   6   7
HETATM    7  C   UNL     1     -10.659  14.717  68.008  1.00  0.00    -0.244 C  
BRANCH   7   8
HETATM    8  C   UNL     1     -11.700  13.874  68.755  1.00  0.00    -0.392 C  
BRANCH   8   9
HETATM    9  C   UNL     1     -11.946  12.499  68.143  1.00  0.00    -0.219 C  
BRANCH   9  10
HETATM   10  O   UNL     1     -10.925  12.218  67.197  1.00  0.00    -0.241 OA 
HETATM   11  S   UNL     1      -9.995  10.910  67.476  1.00  0.00    -0.178 S  
HETATM   12  O   UNL     1     -10.805   9.726  67.293  1.00  0.00    -0.265 OA 
HETATM   13  O   UNL     1      -9.224  11.139  68.679  1.00  0.00    -0.174 OA 
HETATM   14  C   UNL     1      -8.928  11.091  66.068  1.00  0.00    -0.197 C  
ENDBRANCH   9  10
ENDBRANCH   8   9
ENDBRANCH   7   8
ENDBRANCH   6   7
ENDBRANCH   3   6
TORSDOF 5
ENDMDL
MODEL      131
REMARK 921   NORMALIZED FREE ENERGY PREDICTED BY IDOCK:   -3.33 KCAL/MOL
REMARK 922        TOTAL FREE ENERGY PREDICTED BY IDOCK:   -4.50 KCAL/MOL
REMARK 923 INTER-LIGAND FREE ENERGY PREDICTED BY IDOCK:   -4.37 KCAL/MOL
REMARK 924 INTRA-LIGAND FREE ENERGY PREDICTED BY IDOCK:   -0.13 KCAL/MOL
REMARK 927      BINDING AFFINITY PREDICTED BY RF-SCORE:    0.00 PKD
ROOT
HETATM    1  C   UNL     1      -7.862  16.096  69.043  1.00  0.00    -0.227 C  
HETATM    2  S   UNL     1      -9.224  15.467  68.091  1.00  0.00    -0.190 S  
HETATM    3  O   UNL     1      -9.934  14.602  69.276  1.00  0.00    -0.188 OA 
HETATM    4  O   UNL     1     -10.095  16.570  67.747  1.00  0.00    -0.251 OA 
HETATM    5  O   UNL     1      -8.711  14.551  67.096  1.00  0.00    -0.197 OA 
ENDROOT
BRANCH   3   6
HETATM    6  C   UNL     1     -11.095  13.863  68.919  1.00  0.00    -0.266 C  
BRANCH   6   7
HETATM    7  C   UNL     1     -10.793  12.369  68.967  1.00  0.00    -0.194 C  
BRANCH   7   8
HETATM    8  C   UNL     1     -11.681  11.515  68.053  1.00  0.00    -0.343 C  
BRANCH   8   9
HETATM    9  C   UNL     1     -11.277  11.547  66.583  1.00  0.00    -0.271 C  
BRANCH   9  10
HETATM   10  O   UNL     1     -11.706  12.771  66.006  1.00  0.00    -0.372 OA 
HETATM   11  S   UNL     1     -11.955  12.784  64.396  1.00  0.00    -0.431 S  
HETATM   12  O   UNL     1     -13.121  11.978  64.108  1.00  0.00    -0.661 OA 
HETATM   13  O   UNL     1     -10.688  12.573  63.730  1.00  0.00    -0.405 OA 
HETATM   14  C   UNL     1     -12.399  14.497  64.252  1.00  0.00    -0.369 C  
ENDBRANCH   9  10
ENDBRANCH   8   9
ENDBRANCH   7   8
ENDBRANCH   6   7
ENDBRANCH   3   6
TORSDOF 5
ENDMDL
MODEL      132
REMARK 921   NORMALIZED FREE ENERGY PREDICTED BY IDOCK:   -3.33 KCAL/MOL
REMARK 922        TOTAL FREE ENERGY PREDICTED BY IDOCK:   -4.50 KCAL/MOL
REMARK 923 INTER-LIGAND FREE ENERGY PREDICTED BY IDOCK:   -4.31 KCAL/MOL
REMARK 924 INTRA-LIGAND FREE ENERGY PREDICTED BY IDOCK:   -0.19 KCAL/MOL
REMARK 927      BINDING AFFINITY PREDICTED BY RF-SCORE:    0.00 PKD
ROOT
HETATM    1  C   UNL     1      -9.637   5.157  69.215  1.00  0.00    -0.160 C  
HETATM    2  S   UNL     1     -10.847   6.435  68.965  1.00  0.00    -0.352 S  
HETATM    3  O   UNL     1      -9.852   7.712  69.151  1.00  0.00    -0.166 OA 
HETATM    4  O   UNL     1     -11.284   6.393  67.587  1.00  0.00    -0.337 OA 
HETATM    5  O   UNL     1     -11.780   6.413  70.071  1.00  0.00    -0.429 OA 
ENDROOT
BRANCH   3   6
HETATM    6  C   UNL     1     -10.447   9.001  69.069  1.00  0.00    -0.218 C  
BRANCH   6   7
HETATM    7  C   UNL     1     -10.638   9.573  70.469  1.00  0.00    -0.358 C  
BRANCH   7   8
HETATM    8  C   UNL     1     -11.660  10.715  70.551  1.00  0.00    -0.444 C  
BRANCH   8   9
HETATM    9  C   UNL     1     -11.925  11.412  69.222  1.00  0.00    -0.332 C  
BRANCH   9  10
HETATM   10  O   UNL     1     -10.973  12.451  69.040  1.00  0.00    -0.236 OA 
HETATM   11  S   UNL     1     -11.550  13.927  68.665  1.00  0.00    -0.351 S  
HETATM   12  O   UNL     1     -12.242  14.454  69.821  1.00  0.00    -0.315 OA 
HETATM   13  O   UNL     1     -12.169  13.864  67.358  1.00  0.00    -0.378 OA 
HETATM   14  C   UNL     1      -9.983  14.748  68.518  1.00  0.00    -0.228 C  
ENDBRANCH   9  10
ENDBRANCH   8   9
ENDBRANCH   7   8
ENDBRANCH   6   7
ENDBRANCH   3   6
TORSDOF 5
ENDMDL
MODEL      133
REMARK 921   NORMALIZED FREE ENERGY PREDICTED BY IDOCK:   -3.33 KCAL/MOL
REMARK 922        TOTAL FREE ENERGY PREDICTED BY IDOCK:   -4.49 KCAL/MOL
REMARK 923 INTER-LIGAND FREE ENERGY PREDICTED BY IDOCK:   -4.21 KCAL/MOL
REMARK 924 INTRA-LIGAND FREE ENERGY PREDICTED BY IDOCK:   -0.27 KCAL/MOL
REMARK 927      BINDING AFFINITY PREDICTED BY RF-SCORE:    0.00 PKD
ROOT
HETATM    1  C   UNL     1      -7.210  12.383  68.820  1.00  0.00    -0.094 C  
HETATM    2  S   UNL     1      -8.397  11.254  68.132  1.00  0.00    -0.150 S  
HETATM    3  O   UNL     1      -9.621  12.314  67.950  1.00  0.00    -0.190 OA 
HETATM    4  O   UNL     1      -7.943  10.850  66.819  1.00  0.00    -0.131 OA 
HETATM    5  O   UNL     1      -8.766  10.293  69.149  1.00  0.00    -0.151 OA 
ENDROOT
BRANCH   3   6
HETATM    6  C   UNL     1     -10.844  11.795  67.444  1.00  0.00    -0.251 C  
BRANCH   6   7
HETATM    7  C   UNL     1     -12.011  12.645  67.935  1.00  0.00    -0.307 C  
BRANCH   7   8
HETATM    8  C   UNL     1     -11.772  14.158  67.846  1.00  0.00    -0.402 C  
BRANCH   8   9
HETATM    9  C   UNL     1     -11.900  14.890  69.177  1.00  0.00    -0.307 C  
BRANCH   9  10
HETATM   10  O   UNL     1     -12.534  14.040  70.120  1.00  0.00    -0.344 OA 
HETATM   11  S   UNL     1     -12.924  14.691  71.562  1.00  0.00    -0.364 S  
HETATM   12  O   UNL     1     -13.995  15.641  71.358  1.00  0.00    -0.540 OA 
HETATM   13  O   UNL     1     -11.703  15.042  72.256  1.00  0.00    -0.377 OA 
HETATM   14  C   UNL     1     -13.598  13.222  72.296  1.00  0.00    -0.605 C  
ENDBRANCH   9  10
ENDBRANCH   8   9
ENDBRANCH   7   8
ENDBRANCH   6   7
ENDBRANCH   3   6
TORSDOF 5
ENDMDL
MODEL      134
REMARK 921   NORMALIZED FREE ENERGY PREDICTED BY IDOCK:   -3.33 KCAL/MOL
REMARK 922        TOTAL FREE ENERGY PREDICTED BY IDOCK:   -4.49 KCAL/MOL
REMARK 923 INTER-LIGAND FREE ENERGY PREDICTED BY IDOCK:   -4.23 KCAL/MOL
REMARK 924 INTRA-LIGAND FREE ENERGY PREDICTED BY IDOCK:   -0.26 KCAL/MOL
REMARK 927      BINDING AFFINITY PREDICTED BY RF-SCORE:    0.00 PKD
ROOT
HETATM    1  C   UNL     1     -10.433  13.465  65.050  1.00  0.00    -0.365 C  
HETATM    2  S   UNL     1     -11.590  13.603  66.392  1.00  0.00    -0.369 S  
HETATM    3  O   UNL     1     -10.956  14.935  67.086  1.00  0.00    -0.307 OA 
HETATM    4  O   UNL     1     -12.887  13.944  65.850  1.00  0.00    -0.472 OA 
HETATM    5  O   UNL     1     -11.399  12.482  67.287  1.00  0.00    -0.277 OA 
ENDROOT
BRANCH   3   6
HETATM    6  C   UNL     1     -11.581  15.391  68.279  1.00  0.00    -0.348 C  
BRANCH   6   7
HETATM    7  C   UNL     1     -10.529  15.620  69.359  1.00  0.00    -0.253 C  
BRANCH   7   8
HETATM    8  C   UNL     1      -9.146  16.012  68.823  1.00  0.00    -0.222 C  
BRANCH   8   9
HETATM    9  C   UNL     1      -8.980  17.505  68.557  1.00  0.00    -0.279 C  
BRANCH   9  10
HETATM   10  O   UNL     1      -7.735  17.730  67.913  1.00  0.00    -0.215 OA 
HETATM   11  S   UNL     1      -7.547  19.150  67.138  1.00  0.00    -0.235 S  
HETATM   12  O   UNL     1      -7.486  20.205  68.125  1.00  0.00    -0.289 OA 
HETATM   13  O   UNL     1      -8.467  19.192  66.021  1.00  0.00    -0.438 OA 
HETATM   14  C   UNL     1      -5.910  18.853  66.520  1.00  0.00    -0.161 C  
ENDBRANCH   9  10
ENDBRANCH   8   9
ENDBRANCH   7   8
ENDBRANCH   6   7
ENDBRANCH   3   6
TORSDOF 5
ENDMDL
MODEL      135
REMARK 921   NORMALIZED FREE ENERGY PREDICTED BY IDOCK:   -3.30 KCAL/MOL
REMARK 922        TOTAL FREE ENERGY PREDICTED BY IDOCK:   -4.46 KCAL/MOL
REMARK 923 INTER-LIGAND FREE ENERGY PREDICTED BY IDOCK:   -4.02 KCAL/MOL
REMARK 924 INTRA-LIGAND FREE ENERGY PREDICTED BY IDOCK:   -0.43 KCAL/MOL
REMARK 927      BINDING AFFINITY PREDICTED BY RF-SCORE:    0.00 PKD
ROOT
HETATM    1  C   UNL     1      -7.967  19.655  65.988  1.00  0.00    -0.328 C  
HETATM    2  S   UNL     1      -9.548  19.022  66.498  1.00  0.00    -0.363 S  
HETATM    3  O   UNL     1      -9.470  17.595  65.715  1.00  0.00    -0.516 OA 
HETATM    4  O   UNL     1      -9.506  18.766  67.920  1.00  0.00    -0.291 OA 
HETATM    5  O   UNL     1     -10.587  19.826  65.889  1.00  0.00    -0.510 OA 
ENDROOT
BRANCH   3   6
HETATM    6  C   UNL     1     -10.607  16.748  65.820  1.00  0.00    -0.250 C  
BRANCH   6   7
HETATM    7  C   UNL     1     -10.314  15.403  65.161  1.00  0.00    -0.405 C  
BRANCH   7   8
HETATM    8  C   UNL     1     -10.265  14.220  66.136  1.00  0.00    -0.317 C  
BRANCH   8   9
HETATM    9  C   UNL     1      -9.871  14.599  67.559  1.00  0.00    -0.218 C  
BRANCH   9  10
HETATM   10  O   UNL     1      -8.579  14.083  67.841  1.00  0.00    -0.160 OA 
HETATM   11  S   UNL     1      -7.387  15.166  68.088  1.00  0.00    -0.123 S  
HETATM   12  O   UNL     1      -7.638  15.843  69.341  1.00  0.00    -0.226 OA 
HETATM   13  O   UNL     1      -7.153  15.887  66.855  1.00  0.00    -0.198 OA 
HETATM   14  C   UNL     1      -6.071  13.998  68.327  1.00  0.00    -0.117 C  
ENDBRANCH   9  10
ENDBRANCH   8   9
ENDBRANCH   7   8
ENDBRANCH   6   7
ENDBRANCH   3   6
TORSDOF 5
ENDMDL
MODEL      136
REMARK 921   NORMALIZED FREE ENERGY PREDICTED BY IDOCK:   -3.28 KCAL/MOL
REMARK 922        TOTAL FREE ENERGY PREDICTED BY IDOCK:   -4.43 KCAL/MOL
REMARK 923 INTER-LIGAND FREE ENERGY PREDICTED BY IDOCK:   -4.06 KCAL/MOL
REMARK 924 INTRA-LIGAND FREE ENERGY PREDICTED BY IDOCK:   -0.37 KCAL/MOL
REMARK 927      BINDING AFFINITY PREDICTED BY RF-SCORE:    0.00 PKD
ROOT
HETATM    1  C   UNL     1     -13.147  11.860  71.918  1.00  0.00    -0.369 C  
HETATM    2  S   UNL     1     -13.003  10.329  71.027  1.00  0.00    -0.375 S  
HETATM    3  O   UNL     1     -11.428  10.049  71.335  1.00  0.00    -0.360 OA 
HETATM    4  O   UNL     1     -13.788   9.323  71.708  1.00  0.00    -0.372 OA 
HETATM    5  O   UNL     1     -13.156  10.599  69.613  1.00  0.00    -0.052 OA 
ENDROOT
BRANCH   3   6
HETATM    6  C   UNL     1     -10.859   8.888  70.743  1.00  0.00    -0.241 C  
BRANCH   6   7
HETATM    7  C   UNL     1      -9.594   9.263  69.978  1.00  0.00    -0.235 C  
BRANCH   7   8
HETATM    8  C   UNL     1      -9.674  10.609  69.246  1.00  0.00    -0.181 C  
BRANCH   8   9
HETATM    9  C   UNL     1     -10.218  10.516  67.825  1.00  0.00    -0.190 C  
BRANCH   9  10
HETATM   10  O   UNL     1      -9.928  11.721  67.132  1.00  0.00    -0.200 OA 
HETATM   11  S   UNL     1     -11.152  12.779  66.941  1.00  0.00    -0.283 S  
HETATM   12  O   UNL     1     -11.480  13.335  68.236  1.00  0.00    -0.275 OA 
HETATM   13  O   UNL     1     -12.151  12.181  66.083  1.00  0.00    -0.621 OA 
HETATM   14  C   UNL     1     -10.252  13.995  66.012  1.00  0.00    -0.304 C  
ENDBRANCH   9  10
ENDBRANCH   8   9
ENDBRANCH   7   8
ENDBRANCH   6   7
ENDBRANCH   3   6
TORSDOF 5
ENDMDL
MODEL      137
REMARK 921   NORMALIZED FREE ENERGY PREDICTED BY IDOCK:   -3.27 KCAL/MOL
REMARK 922        TOTAL FREE ENERGY PREDICTED BY IDOCK:   -4.42 KCAL/MOL
REMARK 923 INTER-LIGAND FREE ENERGY PREDICTED BY IDOCK:   -4.21 KCAL/MOL
REMARK 924 INTRA-LIGAND FREE ENERGY PREDICTED BY IDOCK:   -0.21 KCAL/MOL
REMARK 927      BINDING AFFINITY PREDICTED BY RF-SCORE:    0.00 PKD
ROOT
HETATM    1  C   UNL     1     -10.917  12.633  63.497  1.00  0.00    -0.364 C  
HETATM    2  S   UNL     1     -12.028  13.005  64.834  1.00  0.00    -0.425 S  
HETATM    3  O   UNL     1     -11.159  12.322  66.031  1.00  0.00    -0.284 OA 
HETATM    4  O   UNL     1     -12.041  14.436  65.038  1.00  0.00    -0.390 OA 
HETATM    5  O   UNL     1     -13.243  12.241  64.653  1.00  0.00    -0.763 OA 
ENDROOT
BRANCH   3   6
HETATM    6  C   UNL     1     -11.731  12.354  67.332  1.00  0.00    -0.347 C  
BRANCH   6   7
HETATM    7  C   UNL     1     -10.949  11.435  68.265  1.00  0.00    -0.266 C  
BRANCH   7   8
HETATM    8  C   UNL     1     -10.229  10.280  67.557  1.00  0.00    -0.254 C  
BRANCH   8   9
HETATM    9  C   UNL     1     -10.976   8.952  67.611  1.00  0.00     0.112 C  
BRANCH   9  10
HETATM   10  O   UNL     1     -10.071   7.920  67.975  1.00  0.00    -0.177 OA 
HETATM   11  S   UNL     1     -10.681   6.416  68.118  1.00  0.00    -0.313 S  
HETATM   12  O   UNL     1     -11.045   5.943  66.801  1.00  0.00    -0.262 OA 
HETATM   13  O   UNL     1     -11.609   6.397  69.228  1.00  0.00    -0.354 OA 
HETATM   14  C   UNL     1      -9.177   5.612  68.615  1.00  0.00    -0.122 C  
ENDBRANCH   9  10
ENDBRANCH   8   9
ENDBRANCH   7   8
ENDBRANCH   6   7
ENDBRANCH   3   6
TORSDOF 5
ENDMDL
MODEL      138
REMARK 921   NORMALIZED FREE ENERGY PREDICTED BY IDOCK:   -3.25 KCAL/MOL
REMARK 922        TOTAL FREE ENERGY PREDICTED BY IDOCK:   -4.39 KCAL/MOL
REMARK 923 INTER-LIGAND FREE ENERGY PREDICTED BY IDOCK:   -4.19 KCAL/MOL
REMARK 924 INTRA-LIGAND FREE ENERGY PREDICTED BY IDOCK:   -0.20 KCAL/MOL
REMARK 927      BINDING AFFINITY PREDICTED BY RF-SCORE:    0.00 PKD
ROOT
HETATM    1  C   UNL     1      -9.501  14.315  66.544  1.00  0.00    -0.287 C  
HETATM    2  S   UNL     1     -10.988  13.345  66.621  1.00  0.00    -0.290 S  
HETATM    3  O   UNL     1     -11.000  13.098  68.232  1.00  0.00    -0.234 OA 
HETATM    4  O   UNL     1     -12.110  14.193  66.281  1.00  0.00    -0.412 OA 
HETATM    5  O   UNL     1     -10.751  12.079  65.962  1.00  0.00    -0.260 OA 
ENDROOT
BRANCH   3   6
HETATM    6  C   UNL     1     -12.051  12.289  68.745  1.00  0.00    -0.112 C  
BRANCH   6   7
HETATM    7  C   UNL     1     -11.793  11.977  70.216  1.00  0.00    -0.356 C  
BRANCH   7   8
HETATM    8  C   UNL     1     -12.176  10.552  70.635  1.00  0.00    -0.446 C  
BRANCH   8   9
HETATM    9  C   UNL     1     -10.984   9.639  70.905  1.00  0.00    -0.342 C  
BRANCH   9  10
HETATM   10  O   UNL     1     -11.031   8.532  70.017  1.00  0.00    -0.243 OA 
HETATM   11  S   UNL     1     -11.121   7.049  70.686  1.00  0.00    -0.286 S  
HETATM   12  O   UNL     1     -12.423   6.904  71.299  1.00  0.00    -0.367 OA 
HETATM   13  O   UNL     1      -9.894   6.793  71.409  1.00  0.00    -0.179 OA 
HETATM   14  C   UNL     1     -11.098   6.120  69.173  1.00  0.00    -0.378 C  
ENDBRANCH   9  10
ENDBRANCH   8   9
ENDBRANCH   7   8
ENDBRANCH   6   7
ENDBRANCH   3   6
TORSDOF 5
ENDMDL
MODEL      139
REMARK 921   NORMALIZED FREE ENERGY PREDICTED BY IDOCK:   -3.25 KCAL/MOL
REMARK 922        TOTAL FREE ENERGY PREDICTED BY IDOCK:   -4.39 KCAL/MOL
REMARK 923 INTER-LIGAND FREE ENERGY PREDICTED BY IDOCK:   -4.12 KCAL/MOL
REMARK 924 INTRA-LIGAND FREE ENERGY PREDICTED BY IDOCK:   -0.27 KCAL/MOL
REMARK 927      BINDING AFFINITY PREDICTED BY RF-SCORE:    0.00 PKD
ROOT
HETATM    1  C   UNL     1      -5.286  17.787  69.073  1.00  0.00    -0.176 C  
HETATM    2  S   UNL     1      -6.300  16.642  68.169  1.00  0.00    -0.140 S  
HETATM    3  O   UNL     1      -7.144  16.056  69.434  1.00  0.00    -0.209 OA 
HETATM    4  O   UNL     1      -7.203  17.392  67.325  1.00  0.00    -0.158 OA 
HETATM    5  O   UNL     1      -5.457  15.586  67.649  1.00  0.00    -0.217 OA 
ENDROOT
BRANCH   3   6
HETATM    6  C   UNL     1      -8.086  15.029  69.152  1.00  0.00    -0.192 C  
BRANCH   6   7
HETATM    7  C   UNL     1      -9.484  15.484  69.556  1.00  0.00    -0.269 C  
BRANCH   7   8
HETATM    8  C   UNL     1     -10.616  14.852  68.735  1.00  0.00    -0.247 C  
BRANCH   8   9
HETATM    9  C   UNL     1     -12.015  15.276  69.170  1.00  0.00    -0.280 C  
BRANCH   9  10
HETATM   10  O   UNL     1     -12.509  14.349  70.125  1.00  0.00    -0.342 OA 
HETATM   11  S   UNL     1     -13.014  14.954  71.551  1.00  0.00    -0.376 S  
HETATM   12  O   UNL     1     -14.224  15.712  71.323  1.00  0.00    -0.540 OA 
HETATM   13  O   UNL     1     -11.874  15.511  72.247  1.00  0.00    -0.385 OA 
HETATM   14  C   UNL     1     -13.447  13.407  72.309  1.00  0.00    -0.586 C  
ENDBRANCH   9  10
ENDBRANCH   8   9
ENDBRANCH   7   8
ENDBRANCH   6   7
ENDBRANCH   3   6
TORSDOF 5
ENDMDL
MODEL      140
REMARK 921   NORMALIZED FREE ENERGY PREDICTED BY IDOCK:   -3.24 KCAL/MOL
REMARK 922        TOTAL FREE ENERGY PREDICTED BY IDOCK:   -4.38 KCAL/MOL
REMARK 923 INTER-LIGAND FREE ENERGY PREDICTED BY IDOCK:   -3.99 KCAL/MOL
REMARK 924 INTRA-LIGAND FREE ENERGY PREDICTED BY IDOCK:   -0.38 KCAL/MOL
REMARK 927      BINDING AFFINITY PREDICTED BY RF-SCORE:    0.00 PKD
ROOT
HETATM    1  C   UNL     1      -7.446   8.481  65.454  1.00  0.00    -0.086 C  
HETATM    2  S   UNL     1      -9.131   8.859  65.872  1.00  0.00    -0.226 S  
HETATM    3  O   UNL     1      -8.823   9.996  66.998  1.00  0.00    -0.137 OA 
HETATM    4  O   UNL     1      -9.756   9.500  64.736  1.00  0.00    -0.169 OA 
HETATM    5  O   UNL     1      -9.717   7.709  66.526  1.00  0.00    -0.208 OA 
ENDROOT
BRANCH   3   6
HETATM    6  C   UNL     1      -9.949  10.563  67.656  1.00  0.00    -0.173 C  
BRANCH   6   7
HETATM    7  C   UNL     1      -9.506  11.741  68.519  1.00  0.00    -0.165 C  
BRANCH   7   8
HETATM    8  C   UNL     1     -10.373  12.997  68.366  1.00  0.00    -0.257 C  
BRANCH   8   9
HETATM    9  C   UNL     1     -11.726  12.746  67.709  1.00  0.00    -0.359 C  
BRANCH   9  10
HETATM   10  O   UNL     1     -11.946  13.723  66.702  1.00  0.00    -0.388 OA 
HETATM   11  S   UNL     1     -11.794  13.239  65.154  1.00  0.00    -0.371 S  
HETATM   12  O   UNL     1     -12.889  12.345  64.846  1.00  0.00    -0.711 OA 
HETATM   13  O   UNL     1     -10.413  12.878  64.916  1.00  0.00    -0.305 OA 
HETATM   14  C   UNL     1     -12.115  14.812  64.396  1.00  0.00    -0.440 C  
ENDBRANCH   9  10
ENDBRANCH   8   9
ENDBRANCH   7   8
ENDBRANCH   6   7
ENDBRANCH   3   6
TORSDOF 5
ENDMDL
MODEL      141
REMARK 921   NORMALIZED FREE ENERGY PREDICTED BY IDOCK:   -3.24 KCAL/MOL
REMARK 922        TOTAL FREE ENERGY PREDICTED BY IDOCK:   -4.37 KCAL/MOL
REMARK 923 INTER-LIGAND FREE ENERGY PREDICTED BY IDOCK:   -3.89 KCAL/MOL
REMARK 924 INTRA-LIGAND FREE ENERGY PREDICTED BY IDOCK:   -0.48 KCAL/MOL
REMARK 927      BINDING AFFINITY PREDICTED BY RF-SCORE:    0.00 PKD
ROOT
HETATM    1  C   UNL     1      -6.940  13.986  68.844  1.00  0.00    -0.110 C  
HETATM    2  S   UNL     1      -7.793  15.544  68.896  1.00  0.00    -0.201 S  
HETATM    3  O   UNL     1      -7.769  15.855  67.296  1.00  0.00    -0.154 OA 
HETATM    4  O   UNL     1      -9.163  15.307  69.294  1.00  0.00    -0.220 OA 
HETATM    5  O   UNL     1      -6.952  16.512  69.566  1.00  0.00    -0.229 OA 
ENDROOT
BRANCH   3   6
HETATM    6  C   UNL     1      -8.337  17.090  66.878  1.00  0.00    -0.218 C  
BRANCH   6   7
HETATM    7  C   UNL     1      -9.678  16.839  66.195  1.00  0.00    -0.315 C  
BRANCH   7   8
HETATM    8  C   UNL     1      -9.815  15.447  65.564  1.00  0.00    -0.359 C  
BRANCH   8   9
HETATM    9  C   UNL     1     -11.218  14.857  65.651  1.00  0.00    -0.347 C  
BRANCH   9  10
HETATM   10  O   UNL     1     -11.498  14.512  67.000  1.00  0.00    -0.343 OA 
HETATM   11  S   UNL     1     -11.301  12.951  67.422  1.00  0.00    -0.328 S  
HETATM   12  O   UNL     1      -9.888  12.647  67.400  1.00  0.00    -0.201 OA 
HETATM   13  O   UNL     1     -12.274  12.153  66.707  1.00  0.00    -0.553 OA 
HETATM   14  C   UNL     1     -11.821  13.110  69.112  1.00  0.00    -0.314 C  
ENDBRANCH   9  10
ENDBRANCH   8   9
ENDBRANCH   7   8
ENDBRANCH   6   7
ENDBRANCH   3   6
TORSDOF 5
ENDMDL
MODEL      142
REMARK 921   NORMALIZED FREE ENERGY PREDICTED BY IDOCK:   -3.23 KCAL/MOL
REMARK 922        TOTAL FREE ENERGY PREDICTED BY IDOCK:   -4.36 KCAL/MOL
REMARK 923 INTER-LIGAND FREE ENERGY PREDICTED BY IDOCK:   -4.51 KCAL/MOL
REMARK 924 INTRA-LIGAND FREE ENERGY PREDICTED BY IDOCK:    0.15 KCAL/MOL
REMARK 927      BINDING AFFINITY PREDICTED BY RF-SCORE:    0.00 PKD
ROOT
HETATM    1  C   UNL     1      -9.918  19.769  69.250  1.00  0.00    -0.235 C  
HETATM    2  S   UNL     1      -9.619  19.406  67.537  1.00  0.00    -0.341 S  
HETATM    3  O   UNL     1     -10.489  18.031  67.453  1.00  0.00    -0.369 OA 
HETATM    4  O   UNL     1     -10.275  20.412  66.731  1.00  0.00    -0.410 OA 
HETATM    5  O   UNL     1      -8.220  19.077  67.369  1.00  0.00    -0.270 OA 
ENDROOT
BRANCH   3   6
HETATM    6  C   UNL     1     -10.487  17.350  66.206  1.00  0.00    -0.276 C  
BRANCH   6   7
HETATM    7  C   UNL     1      -9.144  16.659  65.995  1.00  0.00    -0.259 C  
BRANCH   7   8
HETATM    8  C   UNL     1      -9.039  15.271  66.639  1.00  0.00    -0.312 C  
BRANCH   8   9
HETATM    9  C   UNL     1      -9.948  14.220  66.009  1.00  0.00    -0.319 C  
BRANCH   9  10
HETATM   10  O   UNL     1     -10.499  13.404  67.032  1.00  0.00    -0.255 OA 
HETATM   11  S   UNL     1     -11.301  12.066  66.562  1.00  0.00    -0.344 S  
HETATM   12  O   UNL     1     -10.345  11.129  66.015  1.00  0.00    -0.241 OA 
HETATM   13  O   UNL     1     -12.487  12.469  65.837  1.00  0.00    -0.596 OA 
HETATM   14  C   UNL     1     -11.779  11.512  68.180  1.00  0.00    -0.287 C  
ENDBRANCH   9  10
ENDBRANCH   8   9
ENDBRANCH   7   8
ENDBRANCH   6   7
ENDBRANCH   3   6
TORSDOF 5
ENDMDL
MODEL      143
REMARK 921   NORMALIZED FREE ENERGY PREDICTED BY IDOCK:   -3.23 KCAL/MOL
REMARK 922        TOTAL FREE ENERGY PREDICTED BY IDOCK:   -4.36 KCAL/MOL
REMARK 923 INTER-LIGAND FREE ENERGY PREDICTED BY IDOCK:   -4.18 KCAL/MOL
REMARK 924 INTRA-LIGAND FREE ENERGY PREDICTED BY IDOCK:   -0.17 KCAL/MOL
REMARK 927      BINDING AFFINITY PREDICTED BY RF-SCORE:    0.00 PKD
ROOT
HETATM    1  C   UNL     1      -9.019   5.314  69.207  1.00  0.00    -0.103 C  
HETATM    2  S   UNL     1     -10.312   5.945  68.164  1.00  0.00    -0.229 S  
HETATM    3  O   UNL     1      -9.575   7.331  67.723  1.00  0.00    -0.136 OA 
HETATM    4  O   UNL     1     -10.422   5.096  66.999  1.00  0.00    -0.231 OA 
HETATM    5  O   UNL     1     -11.455   6.274  68.989  1.00  0.00    -0.363 OA 
ENDROOT
BRANCH   3   6
HETATM    6  C   UNL     1     -10.314   8.206  66.881  1.00  0.00    -0.331 C  
BRANCH   6   7
HETATM    7  C   UNL     1      -9.363   8.971  65.967  1.00  0.00    -0.305 C  
BRANCH   7   8
HETATM    8  C   UNL     1     -10.025  10.104  65.171  1.00  0.00    -0.379 C  
BRANCH   8   9
HETATM    9  C   UNL     1      -9.575  11.501  65.582  1.00  0.00    -0.231 C  
BRANCH   9  10
HETATM   10  O   UNL     1     -10.286  12.466  64.820  1.00  0.00    -0.284 OA 
HETATM   11  S   UNL     1     -11.412  13.345  65.603  1.00  0.00    -0.325 S  
HETATM   12  O   UNL     1     -10.738  14.235  66.522  1.00  0.00    -0.292 OA 
HETATM   13  O   UNL     1     -12.477  12.462  66.026  1.00  0.00    -0.551 OA 
HETATM   14  C   UNL     1     -11.970  14.288  64.205  1.00  0.00    -0.425 C  
ENDBRANCH   9  10
ENDBRANCH   8   9
ENDBRANCH   7   8
ENDBRANCH   6   7
ENDBRANCH   3   6
TORSDOF 5
ENDMDL
MODEL      144
REMARK 921   NORMALIZED FREE ENERGY PREDICTED BY IDOCK:   -3.22 KCAL/MOL
REMARK 922        TOTAL FREE ENERGY PREDICTED BY IDOCK:   -4.35 KCAL/MOL
REMARK 923 INTER-LIGAND FREE ENERGY PREDICTED BY IDOCK:   -3.99 KCAL/MOL
REMARK 924 INTRA-LIGAND FREE ENERGY PREDICTED BY IDOCK:   -0.36 KCAL/MOL
REMARK 927      BINDING AFFINITY PREDICTED BY RF-SCORE:    0.00 PKD
ROOT
HETATM    1  C   UNL     1     -10.588  13.780  64.343  1.00  0.00    -0.295 C  
HETATM    2  S   UNL     1     -11.438  15.181  65.030  1.00  0.00    -0.303 S  
HETATM    3  O   UNL     1     -10.126  16.097  65.341  1.00  0.00    -0.485 OA 
HETATM    4  O   UNL     1     -12.202  15.818  63.980  1.00  0.00    -0.664 OA 
HETATM    5  O   UNL     1     -12.035  14.790  66.289  1.00  0.00    -0.290 OA 
ENDROOT
BRANCH   3   6
HETATM    6  C   UNL     1     -10.358  17.352  65.967  1.00  0.00    -0.304 C  
BRANCH   6   7
HETATM    7  C   UNL     1      -9.177  17.710  66.863  1.00  0.00    -0.270 C  
BRANCH   7   8
HETATM    8  C   UNL     1      -7.804  17.416  66.245  1.00  0.00    -0.330 C  
BRANCH   8   9
HETATM    9  C   UNL     1      -6.907  16.535  67.107  1.00  0.00    -0.195 C  
BRANCH   9  10
HETATM   10  O   UNL     1      -7.474  15.236  67.198  1.00  0.00    -0.204 OA 
HETATM   11  S   UNL     1      -7.645  14.604  68.689  1.00  0.00    -0.135 S  
HETATM   12  O   UNL     1      -8.672  15.348  69.385  1.00  0.00    -0.245 OA 
HETATM   13  O   UNL     1      -6.330  14.390  69.255  1.00  0.00    -0.102 OA 
HETATM   14  C   UNL     1      -8.317  13.037  68.192  1.00  0.00    -0.164 C  
ENDBRANCH   9  10
ENDBRANCH   8   9
ENDBRANCH   7   8
ENDBRANCH   6   7
ENDBRANCH   3   6
TORSDOF 5
ENDMDL
MODEL      145
REMARK 921   NORMALIZED FREE ENERGY PREDICTED BY IDOCK:   -3.19 KCAL/MOL
REMARK 922        TOTAL FREE ENERGY PREDICTED BY IDOCK:   -4.31 KCAL/MOL
REMARK 923 INTER-LIGAND FREE ENERGY PREDICTED BY IDOCK:   -4.09 KCAL/MOL
REMARK 924 INTRA-LIGAND FREE ENERGY PREDICTED BY IDOCK:   -0.23 KCAL/MOL
REMARK 927      BINDING AFFINITY PREDICTED BY RF-SCORE:    0.00 PKD
ROOT
HETATM    1  C   UNL     1     -10.576  19.531  66.049  1.00  0.00    -0.491 C  
HETATM    2  S   UNL     1      -9.286  19.383  67.263  1.00  0.00    -0.326 S  
HETATM    3  O   UNL     1      -8.600  18.024  66.682  1.00  0.00    -0.248 OA 
HETATM    4  O   UNL     1      -8.356  20.476  67.083  1.00  0.00    -0.331 OA 
HETATM    5  O   UNL     1      -9.887  19.085  68.545  1.00  0.00    -0.363 OA 
ENDROOT
BRANCH   3   6
HETATM    6  C   UNL     1      -7.500  17.501  67.416  1.00  0.00    -0.195 C  
BRANCH   6   7
HETATM    7  C   UNL     1      -7.325  16.019  67.102  1.00  0.00    -0.257 C  
BRANCH   7   8
HETATM    8  C   UNL     1      -8.501  15.391  66.342  1.00  0.00    -0.169 C  
BRANCH   8   9
HETATM    9  C   UNL     1      -8.844  13.972  66.784  1.00  0.00    -0.157 C  
BRANCH   9  10
HETATM   10  O   UNL     1     -10.197  13.693  66.456  1.00  0.00    -0.272 OA 
HETATM   11  S   UNL     1     -10.463  12.693  65.197  1.00  0.00    -0.303 S  
HETATM   12  O   UNL     1     -10.043  11.362  65.576  1.00  0.00    -0.226 OA 
HETATM   13  O   UNL     1      -9.995  13.336  63.988  1.00  0.00    -0.264 OA 
HETATM   14  C   UNL     1     -12.237  12.760  65.231  1.00  0.00    -0.483 C  
ENDBRANCH   9  10
ENDBRANCH   8   9
ENDBRANCH   7   8
ENDBRANCH   6   7
ENDBRANCH   3   6
TORSDOF 5
ENDMDL
MODEL      146
REMARK 921   NORMALIZED FREE ENERGY PREDICTED BY IDOCK:   -3.18 KCAL/MOL
REMARK 922        TOTAL FREE ENERGY PREDICTED BY IDOCK:   -4.30 KCAL/MOL
REMARK 923 INTER-LIGAND FREE ENERGY PREDICTED BY IDOCK:   -4.06 KCAL/MOL
REMARK 924 INTRA-LIGAND FREE ENERGY PREDICTED BY IDOCK:   -0.24 KCAL/MOL
REMARK 927      BINDING AFFINITY PREDICTED BY RF-SCORE:    0.00 PKD
ROOT
HETATM    1  C   UNL     1      -6.891   9.566  69.106  1.00  0.00    -0.050 C  
HETATM    2  S   UNL     1      -8.470   8.773  68.917  1.00  0.00    -0.133 S  
HETATM    3  O   UNL     1      -9.399  10.104  69.071  1.00  0.00    -0.167 OA 
HETATM    4  O   UNL     1      -8.585   8.291  67.559  1.00  0.00    -0.128 OA 
HETATM    5  O   UNL     1      -8.699   7.917  70.062  1.00  0.00    -0.137 OA 
ENDROOT
BRANCH   3   6
HETATM    6  C   UNL     1     -10.806   9.908  69.025  1.00  0.00    -0.215 C  
BRANCH   6   7
HETATM    7  C   UNL     1     -11.440  10.926  68.084  1.00  0.00    -0.368 C  
BRANCH   7   8
HETATM    8  C   UNL     1     -10.563  11.312  66.886  1.00  0.00    -0.300 C  
BRANCH   8   9
HETATM    9  C   UNL     1     -11.346  11.737  65.648  1.00  0.00    -0.233 C  
BRANCH   9  10
HETATM   10  O   UNL     1     -11.148  13.124  65.422  1.00  0.00    -0.276 OA 
HETATM   11  S   UNL     1     -12.342  13.929  64.658  1.00  0.00    -0.358 S  
HETATM   12  O   UNL     1     -13.482  14.004  65.545  1.00  0.00    -0.677 OA 
HETATM   13  O   UNL     1     -12.447  13.423  63.306  1.00  0.00    -0.739 OA 
HETATM   14  C   UNL     1     -11.549  15.517  64.616  1.00  0.00    -0.281 C  
ENDBRANCH   9  10
ENDBRANCH   8   9
ENDBRANCH   7   8
ENDBRANCH   6   7
ENDBRANCH   3   6
TORSDOF 5
ENDMDL
MODEL      147
REMARK 921   NORMALIZED FREE ENERGY PREDICTED BY IDOCK:   -3.16 KCAL/MOL
REMARK 922        TOTAL FREE ENERGY PREDICTED BY IDOCK:   -4.27 KCAL/MOL
REMARK 923 INTER-LIGAND FREE ENERGY PREDICTED BY IDOCK:   -4.05 KCAL/MOL
REMARK 924 INTRA-LIGAND FREE ENERGY PREDICTED BY IDOCK:   -0.22 KCAL/MOL
REMARK 927      BINDING AFFINITY PREDICTED BY RF-SCORE:    0.00 PKD
ROOT
HETATM    1  C   UNL     1      -8.235  14.425  67.635  1.00  0.00    -0.176 C  
HETATM    2  S   UNL     1      -9.470  13.184  67.330  1.00  0.00    -0.234 S  
HETATM    3  O   UNL     1     -10.446  13.539  68.586  1.00  0.00    -0.243 OA 
HETATM    4  O   UNL     1     -10.164  13.515  66.104  1.00  0.00    -0.288 OA 
HETATM    5  O   UNL     1      -8.883  11.881  67.556  1.00  0.00    -0.158 OA 
ENDROOT
BRANCH   3   6
HETATM    6  C   UNL     1     -11.594  12.717  68.754  1.00  0.00    -0.313 C  
BRANCH   6   7
HETATM    7  C   UNL     1     -12.177  12.920  70.148  1.00  0.00    -0.336 C  
BRANCH   7   8
HETATM    8  C   UNL     1     -12.467  11.619  70.907  1.00  0.00    -0.440 C  
BRANCH   8   9
HETATM    9  C   UNL     1     -11.475  10.496  70.624  1.00  0.00    -0.327 C  
BRANCH   9  10
HETATM   10  O   UNL     1     -11.633   9.474  71.597  1.00  0.00    -0.377 OA 
HETATM   11  S   UNL     1     -10.425   8.390  71.737  1.00  0.00    -0.311 S  
HETATM   12  O   UNL     1      -9.273   9.060  72.298  1.00  0.00    -0.344 OA 
HETATM   13  O   UNL     1     -10.351   7.621  70.514  1.00  0.00    -0.207 OA 
HETATM   14  C   UNL     1     -11.170   7.388  73.000  1.00  0.00    -0.297 C  
ENDBRANCH   9  10
ENDBRANCH   8   9
ENDBRANCH   7   8
ENDBRANCH   6   7
ENDBRANCH   3   6
TORSDOF 5
ENDMDL
MODEL      148
REMARK 921   NORMALIZED FREE ENERGY PREDICTED BY IDOCK:   -3.14 KCAL/MOL
REMARK 922        TOTAL FREE ENERGY PREDICTED BY IDOCK:   -4.24 KCAL/MOL
REMARK 923 INTER-LIGAND FREE ENERGY PREDICTED BY IDOCK:   -3.87 KCAL/MOL
REMARK 924 INTRA-LIGAND FREE ENERGY PREDICTED BY IDOCK:   -0.37 KCAL/MOL
REMARK 927      BINDING AFFINITY PREDICTED BY RF-SCORE:    0.00 PKD
ROOT
HETATM    1  C   UNL     1      -6.103  20.612  68.518  1.00  0.00    -0.337 C  
HETATM    2  S   UNL     1      -6.859  20.100  66.994  1.00  0.00    -0.241 S  
HETATM    3  O   UNL     1      -8.398  20.466  67.385  1.00  0.00    -0.333 OA 
HETATM    4  O   UNL     1      -6.430  20.995  65.942  1.00  0.00    -0.227 OA 
HETATM    5  O   UNL     1      -6.742  18.662  66.878  1.00  0.00    -0.187 OA 
ENDROOT
BRANCH   3   6
HETATM    6  C   UNL     1      -9.392  20.159  66.415  1.00  0.00    -0.335 C  
BRANCH   6   7
HETATM    7  C   UNL     1     -10.358  19.119  66.974  1.00  0.00    -0.503 C  
BRANCH   7   8
HETATM    8  C   UNL     1     -10.526  17.875  66.092  1.00  0.00    -0.321 C  
BRANCH   8   9
HETATM    9  C   UNL     1     -10.371  16.555  66.839  1.00  0.00    -0.300 C  
BRANCH   9  10
HETATM   10  O   UNL     1      -9.150  16.567  67.564  1.00  0.00    -0.197 OA 
HETATM   11  S   UNL     1      -8.988  15.477  68.764  1.00  0.00    -0.220 S  
HETATM   12  O   UNL     1      -8.889  14.160  68.174  1.00  0.00    -0.168 OA 
HETATM   13  O   UNL     1      -9.948  15.787  69.802  1.00  0.00    -0.274 OA 
HETATM   14  C   UNL     1      -7.375  15.980  69.307  1.00  0.00    -0.231 C  
ENDBRANCH   9  10
ENDBRANCH   8   9
ENDBRANCH   7   8
ENDBRANCH   6   7
ENDBRANCH   3   6
TORSDOF 5
ENDMDL
MODEL      149
REMARK 921   NORMALIZED FREE ENERGY PREDICTED BY IDOCK:   -3.13 KCAL/MOL
REMARK 922        TOTAL FREE ENERGY PREDICTED BY IDOCK:   -4.24 KCAL/MOL
REMARK 923 INTER-LIGAND FREE ENERGY PREDICTED BY IDOCK:   -3.92 KCAL/MOL
REMARK 924 INTRA-LIGAND FREE ENERGY PREDICTED BY IDOCK:   -0.32 KCAL/MOL
REMARK 927      BINDING AFFINITY PREDICTED BY RF-SCORE:    0.00 PKD
ROOT
HETATM    1  C   UNL     1      -8.908   9.608  66.503  1.00  0.00    -0.142 C  
HETATM    2  S   UNL     1     -10.041  10.739  67.275  1.00  0.00    -0.205 S  
HETATM    3  O   UNL     1     -10.536  11.503  65.924  1.00  0.00    -0.254 OA 
HETATM    4  O   UNL     1     -11.154   9.985  67.807  1.00  0.00    -0.286 OA 
HETATM    5  O   UNL     1      -9.286  11.673  68.082  1.00  0.00    -0.171 OA 
ENDROOT
BRANCH   3   6
HETATM    6  C   UNL     1     -11.461  12.569  66.096  1.00  0.00    -0.377 C  
BRANCH   6   7
HETATM    7  C   UNL     1     -11.025  13.774  65.269  1.00  0.00    -0.322 C  
BRANCH   7   8
HETATM    8  C   UNL     1      -9.957  14.648  65.940  1.00  0.00    -0.352 C  
BRANCH   8   9
HETATM    9  C   UNL     1     -10.503  15.922  66.575  1.00  0.00    -0.304 C  
BRANCH   9  10
HETATM   10  O   UNL     1     -10.950  15.635  67.892  1.00  0.00    -0.300 OA 
HETATM   11  S   UNL     1     -10.174  16.378  69.117  1.00  0.00    -0.293 S  
HETATM   12  O   UNL     1     -10.494  17.788  69.071  1.00  0.00    -0.332 OA 
HETATM   13  O   UNL     1      -8.810  15.897  69.159  1.00  0.00    -0.227 OA 
HETATM   14  C   UNL     1     -11.086  15.631  70.444  1.00  0.00    -0.352 C  
ENDBRANCH   9  10
ENDBRANCH   8   9
ENDBRANCH   7   8
ENDBRANCH   6   7
ENDBRANCH   3   6
TORSDOF 5
ENDMDL
MODEL      150
REMARK 921   NORMALIZED FREE ENERGY PREDICTED BY IDOCK:   -3.13 KCAL/MOL
REMARK 922        TOTAL FREE ENERGY PREDICTED BY IDOCK:   -4.23 KCAL/MOL
REMARK 923 INTER-LIGAND FREE ENERGY PREDICTED BY IDOCK:   -4.02 KCAL/MOL
REMARK 924 INTRA-LIGAND FREE ENERGY PREDICTED BY IDOCK:   -0.21 KCAL/MOL
REMARK 927      BINDING AFFINITY PREDICTED BY RF-SCORE:    0.00 PKD
ROOT
HETATM    1  C   UNL     1      -9.520  18.938  68.422  1.00  0.00    -0.356 C  
HETATM    2  S   UNL     1      -8.680  18.022  67.152  1.00  0.00    -0.249 S  
HETATM    3  O   UNL     1      -9.847  16.919  66.874  1.00  0.00    -0.256 OA 
HETATM    4  O   UNL     1      -8.558  18.862  65.981  1.00  0.00    -0.467 OA 
HETATM    5  O   UNL     1      -7.542  17.349  67.741  1.00  0.00    -0.187 OA 
ENDROOT
BRANCH   3   6
HETATM    6  C   UNL     1      -9.560  15.914  65.911  1.00  0.00    -0.343 C  
BRANCH   6   7
HETATM    7  C   UNL     1     -10.145  14.580  66.363  1.00  0.00    -0.293 C  
BRANCH   7   8
HETATM    8  C   UNL     1     -11.036  13.895  65.318  1.00  0.00    -0.318 C  
BRANCH   8   9
HETATM    9  C   UNL     1     -11.611  12.557  65.768  1.00  0.00    -0.392 C  
BRANCH   9  10
HETATM   10  O   UNL     1     -10.882  11.504  65.156  1.00  0.00    -0.291 OA 
HETATM   11  S   UNL     1      -9.920  10.610  66.120  1.00  0.00    -0.237 S  
HETATM   12  O   UNL     1     -10.758   9.824  66.999  1.00  0.00    -0.234 OA 
HETATM   13  O   UNL     1      -8.855  11.453  66.620  1.00  0.00    -0.171 OA 
HETATM   14  C   UNL     1      -9.265   9.547  64.858  1.00  0.00    -0.223 C  
ENDBRANCH   9  10
ENDBRANCH   8   9
ENDBRANCH   7   8
ENDBRANCH   6   7
ENDBRANCH   3   6
TORSDOF 5
ENDMDL
MODEL      151
REMARK 921   NORMALIZED FREE ENERGY PREDICTED BY IDOCK:   -3.12 KCAL/MOL
REMARK 922        TOTAL FREE ENERGY PREDICTED BY IDOCK:   -4.22 KCAL/MOL
REMARK 923 INTER-LIGAND FREE ENERGY PREDICTED BY IDOCK:   -3.83 KCAL/MOL
REMARK 924 INTRA-LIGAND FREE ENERGY PREDICTED BY IDOCK:   -0.39 KCAL/MOL
REMARK 927      BINDING AFFINITY PREDICTED BY RF-SCORE:    0.00 PKD
ROOT
HETATM    1  C   UNL     1      -6.367  14.242  69.834  1.00  0.00    -0.150 C  
HETATM    2  S   UNL     1      -7.113  13.630  68.342  1.00  0.00    -0.119 S  
HETATM    3  O   UNL     1      -8.310  14.729  68.234  1.00  0.00    -0.136 OA 
HETATM    4  O   UNL     1      -6.195  13.845  67.245  1.00  0.00    -0.307 OA 
HETATM    5  O   UNL     1      -7.699  12.335  68.614  1.00  0.00    -0.121 OA 
ENDROOT
BRANCH   3   6
HETATM    6  C   UNL     1      -9.220  14.577  67.152  1.00  0.00    -0.223 C  
BRANCH   6   7
HETATM    7  C   UNL     1      -9.059  15.735  66.172  1.00  0.00    -0.377 C  
BRANCH   7   8
HETATM    8  C   UNL     1     -10.381  16.372  65.724  1.00  0.00    -0.388 C  
BRANCH   8   9
HETATM    9  C   UNL     1     -10.417  17.891  65.851  1.00  0.00    -0.253 C  
BRANCH   9  10
HETATM   10  O   UNL     1      -9.343  18.317  66.677  1.00  0.00    -0.286 OA 
HETATM   11  S   UNL     1      -9.729  18.950  68.128  1.00  0.00    -0.369 S  
HETATM   12  O   UNL     1     -10.250  17.891  68.963  1.00  0.00    -0.378 OA 
HETATM   13  O   UNL     1     -10.446  20.189  67.916  1.00  0.00    -0.355 OA 
HETATM   14  C   UNL     1      -8.075  19.327  68.653  1.00  0.00    -0.370 C  
ENDBRANCH   9  10
ENDBRANCH   8   9
ENDBRANCH   7   8
ENDBRANCH   6   7
ENDBRANCH   3   6
TORSDOF 5
ENDMDL
MODEL      152
REMARK 921   NORMALIZED FREE ENERGY PREDICTED BY IDOCK:   -3.12 KCAL/MOL
REMARK 922        TOTAL FREE ENERGY PREDICTED BY IDOCK:   -4.22 KCAL/MOL
REMARK 923 INTER-LIGAND FREE ENERGY PREDICTED BY IDOCK:   -4.05 KCAL/MOL
REMARK 924 INTRA-LIGAND FREE ENERGY PREDICTED BY IDOCK:   -0.18 KCAL/MOL
REMARK 927      BINDING AFFINITY PREDICTED BY RF-SCORE:    0.00 PKD
ROOT
HETATM    1  C   UNL     1      -9.212   3.459  67.689  1.00  0.00    -0.190 C  
HETATM    2  S   UNL     1      -9.547   4.795  66.566  1.00  0.00    -0.196 S  
HETATM    3  O   UNL     1     -10.411   5.724  67.589  1.00  0.00    -0.175 OA 
HETATM    4  O   UNL     1      -8.304   5.473  66.272  1.00  0.00    -0.109 OA 
HETATM    5  O   UNL     1     -10.428   4.314  65.524  1.00  0.00    -0.233 OA 
ENDROOT
BRANCH   3   6
HETATM    6  C   UNL     1     -10.940   6.933  67.060  1.00  0.00    -0.334 C  
BRANCH   6   7
HETATM    7  C   UNL     1     -10.446   8.119  67.882  1.00  0.00    -0.259 C  
BRANCH   7   8
HETATM    8  C   UNL     1     -10.367   9.438  67.104  1.00  0.00    -0.326 C  
BRANCH   8   9
HETATM    9  C   UNL     1     -11.094  10.601  67.772  1.00  0.00    -0.321 C  
BRANCH   9  10
HETATM   10  O   UNL     1     -11.685  11.419  66.773  1.00  0.00    -0.474 OA 
HETATM   11  S   UNL     1     -11.384  13.018  66.851  1.00  0.00    -0.327 S  
HETATM   12  O   UNL     1      -9.991  13.237  66.528  1.00  0.00    -0.266 OA 
HETATM   13  O   UNL     1     -11.988  13.544  68.057  1.00  0.00    -0.355 OA 
HETATM   14  C   UNL     1     -12.373  13.500  65.458  1.00  0.00    -0.481 C  
ENDBRANCH   9  10
ENDBRANCH   8   9
ENDBRANCH   7   8
ENDBRANCH   6   7
ENDBRANCH   3   6
TORSDOF 5
ENDMDL
MODEL      153
REMARK 921   NORMALIZED FREE ENERGY PREDICTED BY IDOCK:   -3.10 KCAL/MOL
REMARK 922        TOTAL FREE ENERGY PREDICTED BY IDOCK:   -4.20 KCAL/MOL
REMARK 923 INTER-LIGAND FREE ENERGY PREDICTED BY IDOCK:   -4.06 KCAL/MOL
REMARK 924 INTRA-LIGAND FREE ENERGY PREDICTED BY IDOCK:   -0.14 KCAL/MOL
REMARK 927      BINDING AFFINITY PREDICTED BY RF-SCORE:    0.00 PKD
ROOT
HETATM    1  C   UNL     1     -12.935  15.595  73.408  1.00  0.00    -0.559 C  
HETATM    2  S   UNL     1     -13.596  14.677  72.037  1.00  0.00    -0.448 S  
HETATM    3  O   UNL     1     -12.176  14.246  71.363  1.00  0.00    -0.340 OA 
HETATM    4  O   UNL     1     -14.238  13.486  72.547  1.00  0.00    -0.734 OA 
HETATM    5  O   UNL     1     -14.270  15.595  71.145  1.00  0.00    -0.514 OA 
ENDROOT
BRANCH   3   6
HETATM    6  C   UNL     1     -12.244  13.499  70.155  1.00  0.00    -0.330 C  
BRANCH   6   7
HETATM    7  C   UNL     1     -12.044  12.016  70.452  1.00  0.00    -0.407 C  
BRANCH   7   8
HETATM    8  C   UNL     1     -11.065  11.309  69.506  1.00  0.00    -0.299 C  
BRANCH   8   9
HETATM    9  C   UNL     1      -9.916  12.188  69.026  1.00  0.00     0.167 C  
BRANCH   9  10
HETATM   10  O   UNL     1      -8.970  11.387  68.333  1.00  0.00    -0.162 OA 
HETATM   11  S   UNL     1      -7.645  10.922  69.159  1.00  0.00    -0.113 S  
HETATM   12  O   UNL     1      -8.050   9.971  70.172  1.00  0.00    -0.175 OA 
HETATM   13  O   UNL     1      -6.860  12.096  69.473  1.00  0.00    -0.066 OA 
HETATM   14  C   UNL     1      -6.855  10.041  67.836  1.00  0.00    -0.075 C  
ENDBRANCH   9  10
ENDBRANCH   8   9
ENDBRANCH   7   8
ENDBRANCH   6   7
ENDBRANCH   3   6
TORSDOF 5
ENDMDL
MODEL      154
REMARK 921   NORMALIZED FREE ENERGY PREDICTED BY IDOCK:   -3.10 KCAL/MOL
REMARK 922        TOTAL FREE ENERGY PREDICTED BY IDOCK:   -4.19 KCAL/MOL
REMARK 923 INTER-LIGAND FREE ENERGY PREDICTED BY IDOCK:   -3.89 KCAL/MOL
REMARK 924 INTRA-LIGAND FREE ENERGY PREDICTED BY IDOCK:   -0.31 KCAL/MOL
REMARK 927      BINDING AFFINITY PREDICTED BY RF-SCORE:    0.00 PKD
ROOT
HETATM    1  C   UNL     1     -10.277   9.476  66.395  1.00  0.00    -0.232 C  
HETATM    2  S   UNL     1      -9.135  10.309  67.471  1.00  0.00    -0.137 S  
HETATM    3  O   UNL     1      -9.093  11.733  66.680  1.00  0.00    -0.184 OA 
HETATM    4  O   UNL     1      -9.775  10.517  68.752  1.00  0.00    -0.168 OA 
HETATM    5  O   UNL     1      -7.839   9.676  67.351  1.00  0.00    -0.095 OA 
ENDROOT
BRANCH   3   6
HETATM    6  C   UNL     1      -8.222  12.728  67.203  1.00  0.00    -0.146 C  
BRANCH   6   7
HETATM    7  C   UNL     1      -8.880  14.100  67.099  1.00  0.00    -0.241 C  
BRANCH   7   8
HETATM    8  C   UNL     1     -10.169  14.121  66.267  1.00  0.00    -0.301 C  
BRANCH   8   9
HETATM    9  C   UNL     1     -10.298  15.329  65.346  1.00  0.00    -0.393 C  
BRANCH   9  10
HETATM   10  O   UNL     1      -9.363  16.322  65.741  1.00  0.00    -0.442 OA 
HETATM   11  S   UNL     1      -9.962  17.678  66.416  1.00  0.00    -0.327 S  
HETATM   12  O   UNL     1     -10.500  17.343  67.716  1.00  0.00    -0.349 OA 
HETATM   13  O   UNL     1     -10.737  18.386  65.419  1.00  0.00    -0.594 OA 
HETATM   14  C   UNL     1      -8.414  18.518  66.640  1.00  0.00    -0.278 C  
ENDBRANCH   9  10
ENDBRANCH   8   9
ENDBRANCH   7   8
ENDBRANCH   6   7
ENDBRANCH   3   6
TORSDOF 5
ENDMDL
MODEL      155
REMARK 921   NORMALIZED FREE ENERGY PREDICTED BY IDOCK:   -3.10 KCAL/MOL
REMARK 922        TOTAL FREE ENERGY PREDICTED BY IDOCK:   -4.19 KCAL/MOL
REMARK 923 INTER-LIGAND FREE ENERGY PREDICTED BY IDOCK:   -3.99 KCAL/MOL
REMARK 924 INTRA-LIGAND FREE ENERGY PREDICTED BY IDOCK:   -0.20 KCAL/MOL
REMARK 927      BINDING AFFINITY PREDICTED BY RF-SCORE:    0.00 PKD
ROOT
HETATM    1  C   UNL     1     -11.171  16.186  64.789  1.00  0.00    -0.304 C  
HETATM    2  S   UNL     1     -10.207  16.907  66.097  1.00  0.00    -0.317 S  
HETATM    3  O   UNL     1      -8.919  15.915  65.986  1.00  0.00    -0.333 OA 
HETATM    4  O   UNL     1      -9.798  18.234  65.691  1.00  0.00    -0.462 OA 
HETATM    5  O   UNL     1     -10.874  16.657  67.356  1.00  0.00    -0.287 OA 
ENDROOT
BRANCH   3   6
HETATM    6  C   UNL     1      -7.873  16.121  66.927  1.00  0.00    -0.248 C  
BRANCH   6   7
HETATM    7  C   UNL     1      -7.355  14.776  67.428  1.00  0.00    -0.214 C  
BRANCH   7   8
HETATM    8  C   UNL     1      -8.070  14.250  68.679  1.00  0.00    -0.140 C  
BRANCH   8   9
HETATM    9  C   UNL     1      -9.520  13.841  68.444  1.00  0.00    -0.198 C  
BRANCH   9  10
HETATM   10  O   UNL     1      -9.552  12.574  67.805  1.00  0.00    -0.191 OA 
HETATM   11  S   UNL     1     -10.842  12.250  66.864  1.00  0.00    -0.263 S  
HETATM   12  O   UNL     1     -10.775  13.094  65.692  1.00  0.00    -0.274 OA 
HETATM   13  O   UNL     1     -12.021  12.186  67.702  1.00  0.00    -0.529 OA 
HETATM   14  C   UNL     1     -10.376  10.600  66.405  1.00  0.00    -0.231 C  
ENDBRANCH   9  10
ENDBRANCH   8   9
ENDBRANCH   7   8
ENDBRANCH   6   7
ENDBRANCH   3   6
TORSDOF 5
ENDMDL
MODEL      156
REMARK 921   NORMALIZED FREE ENERGY PREDICTED BY IDOCK:   -3.09 KCAL/MOL
REMARK 922        TOTAL FREE ENERGY PREDICTED BY IDOCK:   -4.19 KCAL/MOL
REMARK 923 INTER-LIGAND FREE ENERGY PREDICTED BY IDOCK:   -4.10 KCAL/MOL
REMARK 924 INTRA-LIGAND FREE ENERGY PREDICTED BY IDOCK:   -0.09 KCAL/MOL
REMARK 927      BINDING AFFINITY PREDICTED BY RF-SCORE:    0.00 PKD
ROOT
HETATM    1  C   UNL     1     -12.619  12.806  64.710  1.00  0.00    -0.446 C  
HETATM    2  S   UNL     1     -11.171  13.383  65.563  1.00  0.00    -0.291 S  
HETATM    3  O   UNL     1     -11.910  13.886  66.926  1.00  0.00    -0.376 OA 
HETATM    4  O   UNL     1     -10.342  12.243  65.888  1.00  0.00    -0.240 OA 
HETATM    5  O   UNL     1     -10.652  14.540  64.867  1.00  0.00    -0.409 OA 
ENDROOT
BRANCH   3   6
HETATM    6  C   UNL     1     -11.085  14.488  67.914  1.00  0.00    -0.279 C  
BRANCH   6   7
HETATM    7  C   UNL     1     -11.936  14.929  69.101  1.00  0.00    -0.313 C  
BRANCH   7   8
HETATM    8  C   UNL     1     -12.334  13.790  70.050  1.00  0.00    -0.364 C  
BRANCH   8   9
HETATM    9  C   UNL     1     -11.595  12.481  69.799  1.00  0.00    -0.221 C  
BRANCH   9  10
HETATM   10  O   UNL     1     -12.520  11.404  69.843  1.00  0.00    -0.221 OA 
HETATM   11  S   UNL     1     -12.655  10.600  71.254  1.00  0.00    -0.443 S  
HETATM   12  O   UNL     1     -13.280  11.476  72.220  1.00  0.00    -0.425 OA 
HETATM   13  O   UNL     1     -11.404   9.923  71.522  1.00  0.00    -0.343 OA 
HETATM   14  C   UNL     1     -13.850   9.403  70.715  1.00  0.00     0.270 C  
ENDBRANCH   9  10
ENDBRANCH   8   9
ENDBRANCH   7   8
ENDBRANCH   6   7
ENDBRANCH   3   6
TORSDOF 5
ENDMDL
MODEL      157
REMARK 921   NORMALIZED FREE ENERGY PREDICTED BY IDOCK:   -3.07 KCAL/MOL
REMARK 922        TOTAL FREE ENERGY PREDICTED BY IDOCK:   -4.16 KCAL/MOL
REMARK 923 INTER-LIGAND FREE ENERGY PREDICTED BY IDOCK:   -3.87 KCAL/MOL
REMARK 924 INTRA-LIGAND FREE ENERGY PREDICTED BY IDOCK:   -0.29 KCAL/MOL
REMARK 927      BINDING AFFINITY PREDICTED BY RF-SCORE:    0.00 PKD
ROOT
HETATM    1  C   UNL     1      -8.943   9.674  64.074  1.00  0.00    -0.223 C  
HETATM    2  S   UNL     1      -8.571   9.297  65.770  1.00  0.00    -0.161 S  
HETATM    3  O   UNL     1      -9.595  10.364  66.457  1.00  0.00    -0.169 OA 
HETATM    4  O   UNL     1      -9.042   7.961  66.060  1.00  0.00    -0.174 OA 
HETATM    5  O   UNL     1      -7.214   9.715  66.051  1.00  0.00    -0.094 OA 
ENDROOT
BRANCH   3   6
HETATM    6  C   UNL     1      -9.588  10.431  67.877  1.00  0.00    -0.142 C  
BRANCH   6   7
HETATM    7  C   UNL     1      -9.306  11.861  68.326  1.00  0.00    -0.193 C  
BRANCH   7   8
HETATM    8  C   UNL     1      -9.117  12.859  67.177  1.00  0.00    -0.220 C  
BRANCH   8   9
HETATM    9  C   UNL     1     -10.381  13.625  66.801  1.00  0.00    -0.268 C  
BRANCH   9  10
HETATM   10  O   UNL     1     -10.808  13.219  65.509  1.00  0.00    -0.279 OA 
HETATM   11  S   UNL     1     -11.974  14.109  64.800  1.00  0.00    -0.454 S  
HETATM   12  O   UNL     1     -11.420  15.400  64.460  1.00  0.00    -0.394 OA 
HETATM   13  O   UNL     1     -13.193  13.970  65.569  1.00  0.00    -0.710 OA 
HETATM   14  C   UNL     1     -12.120  13.145  63.316  1.00  0.00    -0.386 C  
ENDBRANCH   9  10
ENDBRANCH   8   9
ENDBRANCH   7   8
ENDBRANCH   6   7
ENDBRANCH   3   6
TORSDOF 5
ENDMDL
MODEL      158
REMARK 921   NORMALIZED FREE ENERGY PREDICTED BY IDOCK:   -3.07 KCAL/MOL
REMARK 922        TOTAL FREE ENERGY PREDICTED BY IDOCK:   -4.16 KCAL/MOL
REMARK 923 INTER-LIGAND FREE ENERGY PREDICTED BY IDOCK:   -3.88 KCAL/MOL
REMARK 924 INTRA-LIGAND FREE ENERGY PREDICTED BY IDOCK:   -0.27 KCAL/MOL
REMARK 927      BINDING AFFINITY PREDICTED BY RF-SCORE:    0.00 PKD
ROOT
HETATM    1  C   UNL     1      -8.241   9.274  67.038  1.00  0.00    -0.116 C  
HETATM    2  S   UNL     1      -9.860   9.888  67.438  1.00  0.00    -0.189 S  
HETATM    3  O   UNL     1     -10.154  10.651  66.028  1.00  0.00    -0.231 OA 
HETATM    4  O   UNL     1     -10.765   8.765  67.547  1.00  0.00    -0.253 OA 
HETATM    5  O   UNL     1      -9.735  10.882  68.482  1.00  0.00    -0.168 OA 
ENDROOT
BRANCH   3   6
HETATM    6  C   UNL     1     -11.387  11.351  65.927  1.00  0.00    -0.020 C  
BRANCH   6   7
HETATM    7  C   UNL     1     -11.149  12.847  66.101  1.00  0.00    -0.314 C  
BRANCH   7   8
HETATM    8  C   UNL     1     -12.098  13.737  65.288  1.00  0.00    -0.425 C  
BRANCH   8   9
HETATM    9  C   UNL     1     -11.509  15.089  64.901  1.00  0.00    -0.399 C  
BRANCH   9  10
HETATM   10  O   UNL     1     -10.214  15.216  65.469  1.00  0.00    -0.322 OA 
HETATM   11  S   UNL     1      -9.921  16.549  66.358  1.00  0.00    -0.320 S  
HETATM   12  O   UNL     1     -10.695  16.465  67.576  1.00  0.00    -0.325 OA 
HETATM   13  O   UNL     1      -9.974  17.705  65.488  1.00  0.00    -0.533 OA 
HETATM   14  C   UNL     1      -8.223  16.196  66.738  1.00  0.00    -0.269 C  
ENDBRANCH   9  10
ENDBRANCH   8   9
ENDBRANCH   7   8
ENDBRANCH   6   7
ENDBRANCH   3   6
TORSDOF 5
ENDMDL
MODEL      159
REMARK 921   NORMALIZED FREE ENERGY PREDICTED BY IDOCK:   -3.05 KCAL/MOL
REMARK 922        TOTAL FREE ENERGY PREDICTED BY IDOCK:   -4.13 KCAL/MOL
REMARK 923 INTER-LIGAND FREE ENERGY PREDICTED BY IDOCK:   -3.79 KCAL/MOL
REMARK 924 INTRA-LIGAND FREE ENERGY PREDICTED BY IDOCK:   -0.34 KCAL/MOL
REMARK 927      BINDING AFFINITY PREDICTED BY RF-SCORE:    0.00 PKD
ROOT
HETATM    1  C   UNL     1      -9.722   9.547  68.652  1.00  0.00    -0.155 C  
HETATM    2  S   UNL     1     -10.005  11.219  68.120  1.00  0.00    -0.187 S  
HETATM    3  O   UNL     1     -11.204  11.576  69.165  1.00  0.00    -0.236 OA 
HETATM    4  O   UNL     1      -8.848  12.015  68.464  1.00  0.00    -0.166 OA 
HETATM    5  O   UNL     1     -10.554  11.193  66.781  1.00  0.00    -0.241 OA 
ENDROOT
BRANCH   3   6
HETATM    6  C   UNL     1     -11.784  12.869  69.052  1.00  0.00    -0.327 C  
BRANCH   6   7
HETATM    7  C   UNL     1     -11.926  13.496  70.435  1.00  0.00    -0.367 C  
BRANCH   7   8
HETATM    8  C   UNL     1     -12.396  14.956  70.421  1.00  0.00    -0.401 C  
BRANCH   8   9
HETATM    9  C   UNL     1     -11.271  15.973  70.257  1.00  0.00    -0.389 C  
BRANCH   9  10
HETATM   10  O   UNL     1     -11.206  16.384  68.900  1.00  0.00    -0.332 OA 
HETATM   11  S   UNL     1      -9.723  16.627  68.269  1.00  0.00    -0.253 S  
HETATM   12  O   UNL     1      -9.063  15.346  68.150  1.00  0.00    -0.180 OA 
HETATM   13  O   UNL     1      -9.112  17.751  68.946  1.00  0.00    -0.236 OA 
HETATM   14  C   UNL     1     -10.249  17.147  66.655  1.00  0.00    -0.319 C  
ENDBRANCH   9  10
ENDBRANCH   8   9
ENDBRANCH   7   8
ENDBRANCH   6   7
ENDBRANCH   3   6
TORSDOF 5
ENDMDL
MODEL      160
REMARK 921   NORMALIZED FREE ENERGY PREDICTED BY IDOCK:   -3.03 KCAL/MOL
REMARK 922        TOTAL FREE ENERGY PREDICTED BY IDOCK:   -4.11 KCAL/MOL
REMARK 923 INTER-LIGAND FREE ENERGY PREDICTED BY IDOCK:   -3.95 KCAL/MOL
REMARK 924 INTRA-LIGAND FREE ENERGY PREDICTED BY IDOCK:   -0.16 KCAL/MOL
REMARK 927      BINDING AFFINITY PREDICTED BY RF-SCORE:    0.00 PKD
ROOT
HETATM    1  C   UNL     1      -7.383   8.713  71.368  1.00  0.00    -0.102 C  
HETATM    2  S   UNL     1      -8.830   8.663  70.338  1.00  0.00    -0.170 S  
HETATM    3  O   UNL     1      -8.297   9.666  69.169  1.00  0.00    -0.115 OA 
HETATM    4  O   UNL     1      -8.953   7.335  69.779  1.00  0.00    -0.142 OA 
HETATM    5  O   UNL     1      -9.920   9.309  71.038  1.00  0.00    -0.270 OA 
ENDROOT
BRANCH   3   6
HETATM    6  C   UNL     1      -9.204   9.954  68.113  1.00  0.00    -0.128 C  
BRANCH   6   7
HETATM    7  C   UNL     1      -9.922  11.271  68.392  1.00  0.00    -0.201 C  
BRANCH   7   8
HETATM    8  C   UNL     1     -11.389  11.298  67.942  1.00  0.00    -0.367 C  
BRANCH   8   9
HETATM    9  C   UNL     1     -11.812  12.601  67.273  1.00  0.00    -0.328 C  
BRANCH   9  10
HETATM   10  O   UNL     1     -12.371  12.314  66.000  1.00  0.00    -0.609 OA 
HETATM   11  S   UNL     1     -11.366  12.372  64.719  1.00  0.00    -0.327 S  
HETATM   12  O   UNL     1     -10.441  11.265  64.815  1.00  0.00    -0.292 OA 
HETATM   13  O   UNL     1     -10.920  13.738  64.543  1.00  0.00    -0.387 OA 
HETATM   14  C   UNL     1     -12.573  11.998  63.472  1.00  0.00    -0.507 C  
ENDBRANCH   9  10
ENDBRANCH   8   9
ENDBRANCH   7   8
ENDBRANCH   6   7
ENDBRANCH   3   6
TORSDOF 5
ENDMDL
MODEL      161
REMARK 921   NORMALIZED FREE ENERGY PREDICTED BY IDOCK:   -3.03 KCAL/MOL
REMARK 922        TOTAL FREE ENERGY PREDICTED BY IDOCK:   -4.10 KCAL/MOL
REMARK 923 INTER-LIGAND FREE ENERGY PREDICTED BY IDOCK:   -3.73 KCAL/MOL
REMARK 924 INTRA-LIGAND FREE ENERGY PREDICTED BY IDOCK:   -0.38 KCAL/MOL
REMARK 927      BINDING AFFINITY PREDICTED BY RF-SCORE:    0.00 PKD
ROOT
HETATM    1  C   UNL     1      -6.756   8.630  68.513  1.00  0.00    -0.060 C  
HETATM    2  S   UNL     1      -8.362   9.332  68.218  1.00  0.00    -0.120 S  
HETATM    3  O   UNL     1      -9.175   8.489  69.351  1.00  0.00    -0.152 OA 
HETATM    4  O   UNL     1      -8.338  10.722  68.614  1.00  0.00    -0.126 OA 
HETATM    5  O   UNL     1      -8.820   8.909  66.912  1.00  0.00    -0.123 OA 
ENDROOT
BRANCH   3   6
HETATM    6  C   UNL     1     -10.576   8.719  69.434  1.00  0.00    -0.209 C  
BRANCH   6   7
HETATM    7  C   UNL     1     -10.874   9.704  70.559  1.00  0.00    -0.371 C  
BRANCH   7   8
HETATM    8  C   UNL     1     -11.550  11.002  70.099  1.00  0.00    -0.421 C  
BRANCH   8   9
HETATM    9  C   UNL     1     -11.813  11.072  68.599  1.00  0.00    -0.247 C  
BRANCH   9  10
HETATM   10  O   UNL     1     -12.004  12.427  68.219  1.00  0.00    -0.334 OA 
HETATM   11  S   UNL     1     -11.524  12.852  66.722  1.00  0.00    -0.359 S  
HETATM   12  O   UNL     1     -12.404  12.221  65.764  1.00  0.00    -0.622 OA 
HETATM   13  O   UNL     1     -10.084  12.727  66.646  1.00  0.00    -0.235 OA 
HETATM   14  C   UNL     1     -11.944  14.573  66.833  1.00  0.00    -0.346 C  
ENDBRANCH   9  10
ENDBRANCH   8   9
ENDBRANCH   7   8
ENDBRANCH   6   7
ENDBRANCH   3   6
TORSDOF 5
ENDMDL
MODEL      162
REMARK 921   NORMALIZED FREE ENERGY PREDICTED BY IDOCK:   -3.02 KCAL/MOL
REMARK 922        TOTAL FREE ENERGY PREDICTED BY IDOCK:   -4.09 KCAL/MOL
REMARK 923 INTER-LIGAND FREE ENERGY PREDICTED BY IDOCK:   -3.74 KCAL/MOL
REMARK 924 INTRA-LIGAND FREE ENERGY PREDICTED BY IDOCK:   -0.36 KCAL/MOL
REMARK 927      BINDING AFFINITY PREDICTED BY RF-SCORE:    0.00 PKD
ROOT
HETATM    1  C   UNL     1     -11.054   6.721  67.093  1.00  0.00    -0.333 C  
HETATM    2  S   UNL     1      -9.516   7.429  67.632  1.00  0.00    -0.139 S  
HETATM    3  O   UNL     1      -9.959   8.995  67.547  1.00  0.00    -0.180 OA 
HETATM    4  O   UNL     1      -9.313   7.087  69.022  1.00  0.00    -0.138 OA 
HETATM    5  O   UNL     1      -8.510   7.179  66.622  1.00  0.00    -0.113 OA 
ENDROOT
BRANCH   3   6
HETATM    6  C   UNL     1      -8.963   9.958  67.867  1.00  0.00    -0.128 C  
BRANCH   6   7
HETATM    7  C   UNL     1      -8.697  10.850  66.659  1.00  0.00    -0.156 C  
BRANCH   7   8
HETATM    8  C   UNL     1      -8.329  12.297  67.012  1.00  0.00    -0.168 C  
BRANCH   8   9
HETATM    9  C   UNL     1      -9.428  13.311  66.712  1.00  0.00    -0.257 C  
BRANCH   9  10
HETATM   10  O   UNL     1     -10.085  12.947  65.507  1.00  0.00    -0.278 OA 
HETATM   11  S   UNL     1     -11.714  12.917  65.530  1.00  0.00    -0.407 S  
HETATM   12  O   UNL     1     -12.194  14.276  65.648  1.00  0.00    -0.400 OA 
HETATM   13  O   UNL     1     -12.144  11.865  66.427  1.00  0.00    -0.552 OA 
HETATM   14  C   UNL     1     -11.951  12.374  63.856  1.00  0.00    -0.486 C  
ENDBRANCH   9  10
ENDBRANCH   8   9
ENDBRANCH   7   8
ENDBRANCH   6   7
ENDBRANCH   3   6
TORSDOF 5
ENDMDL
MODEL      163
REMARK 921   NORMALIZED FREE ENERGY PREDICTED BY IDOCK:   -3.02 KCAL/MOL
REMARK 922        TOTAL FREE ENERGY PREDICTED BY IDOCK:   -4.09 KCAL/MOL
REMARK 923 INTER-LIGAND FREE ENERGY PREDICTED BY IDOCK:   -3.87 KCAL/MOL
REMARK 924 INTRA-LIGAND FREE ENERGY PREDICTED BY IDOCK:   -0.22 KCAL/MOL
REMARK 927      BINDING AFFINITY PREDICTED BY RF-SCORE:    0.00 PKD
ROOT
HETATM    1  C   UNL     1      -6.130  16.442  67.122  1.00  0.00    -0.147 C  
HETATM    2  S   UNL     1      -7.683  17.271  67.363  1.00  0.00    -0.180 S  
HETATM    3  O   UNL     1      -8.641  15.954  67.305  1.00  0.00    -0.168 OA 
HETATM    4  O   UNL     1      -7.719  17.803  68.707  1.00  0.00    -0.278 OA 
HETATM    5  O   UNL     1      -7.957  18.091  66.202  1.00  0.00    -0.405 OA 
ENDROOT
BRANCH   3   6
HETATM    6  C   UNL     1     -10.041  16.178  67.417  1.00  0.00    -0.257 C  
BRANCH   6   7
HETATM    7  C   UNL     1     -10.803  15.040  66.745  1.00  0.00    -0.318 C  
BRANCH   7   8
HETATM    8  C   UNL     1     -11.552  14.120  67.718  1.00  0.00    -0.379 C  
BRANCH   8   9
HETATM    9  C   UNL     1     -10.645  13.219  68.549  1.00  0.00    -0.256 C  
BRANCH   9  10
HETATM   10  O   UNL     1     -11.406  12.616  69.585  1.00  0.00    -0.207 OA 
HETATM   11  S   UNL     1     -11.602  11.001  69.517  1.00  0.00    -0.343 S  
HETATM   12  O   UNL     1     -10.325  10.375  69.780  1.00  0.00    -0.240 OA 
HETATM   13  O   UNL     1     -12.393  10.680  68.348  1.00  0.00    -0.269 OA 
HETATM   14  C   UNL     1     -12.623  10.839  70.961  1.00  0.00    -0.420 C  
ENDBRANCH   9  10
ENDBRANCH   8   9
ENDBRANCH   7   8
ENDBRANCH   6   7
ENDBRANCH   3   6
TORSDOF 5
ENDMDL
MODEL      164
REMARK 921   NORMALIZED FREE ENERGY PREDICTED BY IDOCK:   -3.00 KCAL/MOL
REMARK 922        TOTAL FREE ENERGY PREDICTED BY IDOCK:   -4.07 KCAL/MOL
REMARK 923 INTER-LIGAND FREE ENERGY PREDICTED BY IDOCK:   -3.83 KCAL/MOL
REMARK 924 INTRA-LIGAND FREE ENERGY PREDICTED BY IDOCK:   -0.24 KCAL/MOL
REMARK 927      BINDING AFFINITY PREDICTED BY RF-SCORE:    0.00 PKD
ROOT
HETATM    1  C   UNL     1      -6.062  19.949  69.541  1.00  0.00    -0.322 C  
HETATM    2  S   UNL     1      -7.274  19.569  68.298  1.00  0.00    -0.313 S  
HETATM    3  O   UNL     1      -8.532  19.302  69.299  1.00  0.00    -0.206 OA 
HETATM    4  O   UNL     1      -7.544  20.767  67.535  1.00  0.00    -0.325 OA 
HETATM    5  O   UNL     1      -6.914  18.318  67.667  1.00  0.00    -0.200 OA 
ENDROOT
BRANCH   3   6
HETATM    6  C   UNL     1      -9.756  18.906  68.693  1.00  0.00    -0.400 C  
BRANCH   6   7
HETATM    7  C   UNL     1     -10.058  17.451  69.037  1.00  0.00    -0.295 C  
BRANCH   7   8
HETATM    8  C   UNL     1     -11.046  16.769  68.083  1.00  0.00    -0.254 C  
BRANCH   8   9
HETATM    9  C   UNL     1     -10.394  16.130  66.861  1.00  0.00    -0.297 C  
BRANCH   9  10
HETATM   10  O   UNL     1      -9.614  15.018  67.274  1.00  0.00    -0.204 OA 
HETATM   11  S   UNL     1     -10.206  13.535  66.950  1.00  0.00    -0.260 S  
HETATM   12  O   UNL     1     -10.157  13.328  65.519  1.00  0.00    -0.292 OA 
HETATM   13  O   UNL     1     -11.419  13.343  67.716  1.00  0.00    -0.280 OA 
HETATM   14  C   UNL     1      -8.898  12.602  67.705  1.00  0.00    -0.184 C  
ENDBRANCH   9  10
ENDBRANCH   8   9
ENDBRANCH   7   8
ENDBRANCH   6   7
ENDBRANCH   3   6
TORSDOF 5
ENDMDL
MODEL      165
REMARK 921   NORMALIZED FREE ENERGY PREDICTED BY IDOCK:   -2.99 KCAL/MOL
REMARK 922        TOTAL FREE ENERGY PREDICTED BY IDOCK:   -4.06 KCAL/MOL
REMARK 923 INTER-LIGAND FREE ENERGY PREDICTED BY IDOCK:   -3.81 KCAL/MOL
REMARK 924 INTRA-LIGAND FREE ENERGY PREDICTED BY IDOCK:   -0.24 KCAL/MOL
REMARK 927      BINDING AFFINITY PREDICTED BY RF-SCORE:    0.00 PKD
ROOT
HETATM    1  C   UNL     1      -7.521  10.454  69.268  1.00  0.00    -0.120 C  
HETATM    2  S   UNL     1      -8.425   9.825  67.874  1.00  0.00    -0.125 S  
HETATM    3  O   UNL     1      -9.758  10.747  68.049  1.00  0.00    -0.157 OA 
HETATM    4  O   UNL     1      -7.746  10.229  66.663  1.00  0.00    -0.107 OA 
HETATM    5  O   UNL     1      -8.781   8.447  68.135  1.00  0.00    -0.140 OA 
ENDROOT
BRANCH   3   6
HETATM    6  C   UNL     1     -10.812  10.527  67.121  1.00  0.00    -0.259 C  
BRANCH   6   7
HETATM    7  C   UNL     1     -10.787  11.605  66.042  1.00  0.00    -0.339 C  
BRANCH   7   8
HETATM    8  C   UNL     1     -11.988  12.559  66.075  1.00  0.00    -0.456 C  
BRANCH   8   9
HETATM    9  C   UNL     1     -11.688  13.959  65.549  1.00  0.00    -0.349 C  
BRANCH   9  10
HETATM   10  O   UNL     1     -11.464  14.833  66.645  1.00  0.00    -0.355 OA 
HETATM   11  S   UNL     1     -10.143  15.784  66.577  1.00  0.00    -0.297 S  
HETATM   12  O   UNL     1     -10.344  16.770  65.538  1.00  0.00    -0.558 OA 
HETATM   13  O   UNL     1      -8.965  14.944  66.627  1.00  0.00    -0.255 OA 
HETATM   14  C   UNL     1     -10.352  16.571  68.155  1.00  0.00    -0.296 C  
ENDBRANCH   9  10
ENDBRANCH   8   9
ENDBRANCH   7   8
ENDBRANCH   6   7
ENDBRANCH   3   6
TORSDOF 5
ENDMDL
MODEL      166
REMARK 921   NORMALIZED FREE ENERGY PREDICTED BY IDOCK:   -2.99 KCAL/MOL
REMARK 922        TOTAL FREE ENERGY PREDICTED BY IDOCK:   -4.05 KCAL/MOL
REMARK 923 INTER-LIGAND FREE ENERGY PREDICTED BY IDOCK:   -3.69 KCAL/MOL
REMARK 924 INTRA-LIGAND FREE ENERGY PREDICTED BY IDOCK:   -0.35 KCAL/MOL
REMARK 927      BINDING AFFINITY PREDICTED BY RF-SCORE:    0.00 PKD
ROOT
HETATM    1  C   UNL     1      -8.207   4.394  64.751  1.00  0.00    -0.105 C  
HETATM    2  S   UNL     1      -9.737   4.316  65.652  1.00  0.00    -0.219 S  
HETATM    3  O   UNL     1      -9.778   5.871  66.139  1.00  0.00    -0.137 OA 
HETATM    4  O   UNL     1     -10.815   4.104  64.712  1.00  0.00    -0.258 OA 
HETATM    5  O   UNL     1      -9.549   3.474  66.813  1.00  0.00    -0.193 OA 
ENDROOT
BRANCH   3   6
HETATM    6  C   UNL     1     -10.870   6.251  66.967  1.00  0.00    -0.383 C  
BRANCH   6   7
HETATM    7  C   UNL     1     -10.356   6.682  68.337  1.00  0.00    -0.220 C  
BRANCH   7   8
HETATM    8  C   UNL     1     -10.615   5.666  69.457  1.00  0.00    -0.384 C  
BRANCH   8   9
HETATM    9  C   UNL     1     -11.412   6.222  70.632  1.00  0.00    -0.329 C  
BRANCH   9  10
HETATM   10  O   UNL     1     -11.647   7.607  70.425  1.00  0.00    -0.231 OA 
HETATM   11  S   UNL     1     -11.027   8.637  71.525  1.00  0.00    -0.317 S  
HETATM   12  O   UNL     1      -9.587   8.630  71.395  1.00  0.00    -0.194 OA 
HETATM   13  O   UNL     1     -11.689   8.413  72.793  1.00  0.00    -0.367 OA 
HETATM   14  C   UNL     1     -11.656  10.134  70.808  1.00  0.00    -0.357 C  
ENDBRANCH   9  10
ENDBRANCH   8   9
ENDBRANCH   7   8
ENDBRANCH   6   7
ENDBRANCH   3   6
TORSDOF 5
ENDMDL
MODEL      167
REMARK 921   NORMALIZED FREE ENERGY PREDICTED BY IDOCK:   -2.98 KCAL/MOL
REMARK 922        TOTAL FREE ENERGY PREDICTED BY IDOCK:   -4.04 KCAL/MOL
REMARK 923 INTER-LIGAND FREE ENERGY PREDICTED BY IDOCK:   -3.74 KCAL/MOL
REMARK 924 INTRA-LIGAND FREE ENERGY PREDICTED BY IDOCK:   -0.29 KCAL/MOL
REMARK 927      BINDING AFFINITY PREDICTED BY RF-SCORE:    0.00 PKD
ROOT
HETATM    1  C   UNL     1     -11.092   7.160  70.761  1.00  0.00    -0.269 C  
HETATM    2  S   UNL     1     -10.374   8.746  71.119  1.00  0.00    -0.271 S  
HETATM    3  O   UNL     1      -9.277   8.763  69.914  1.00  0.00    -0.150 OA 
HETATM    4  O   UNL     1     -11.360   9.769  70.853  1.00  0.00    -0.307 OA 
HETATM    5  O   UNL     1      -9.671   8.662  72.381  1.00  0.00    -0.295 OA 
ENDROOT
BRANCH   3   6
HETATM    6  C   UNL     1      -8.414   9.890  69.853  1.00  0.00    -0.191 C  
BRANCH   6   7
HETATM    7  C   UNL     1      -8.873  10.836  68.747  1.00  0.00    -0.163 C  
BRANCH   7   8
HETATM    8  C   UNL     1      -8.625  10.313  67.326  1.00  0.00    -0.125 C  
BRANCH   8   9
HETATM    9  C   UNL     1      -9.221  11.187  66.227  1.00  0.00    -0.195 C  
BRANCH   9  10
HETATM   10  O   UNL     1      -9.781  12.355  66.809  1.00  0.00    -0.212 OA 
HETATM   11  S   UNL     1     -11.347  12.666  66.487  1.00  0.00    -0.346 S  
HETATM   12  O   UNL     1     -12.157  11.671  67.154  1.00  0.00    -0.575 OA 
HETATM   13  O   UNL     1     -11.481  12.949  65.074  1.00  0.00    -0.300 OA 
HETATM   14  C   UNL     1     -11.462  14.191  67.390  1.00  0.00    -0.345 C  
ENDBRANCH   9  10
ENDBRANCH   8   9
ENDBRANCH   7   8
ENDBRANCH   6   7
ENDBRANCH   3   6
TORSDOF 5
ENDMDL
MODEL      168
REMARK 921   NORMALIZED FREE ENERGY PREDICTED BY IDOCK:   -2.97 KCAL/MOL
REMARK 922        TOTAL FREE ENERGY PREDICTED BY IDOCK:   -4.03 KCAL/MOL
REMARK 923 INTER-LIGAND FREE ENERGY PREDICTED BY IDOCK:   -3.94 KCAL/MOL
REMARK 924 INTRA-LIGAND FREE ENERGY PREDICTED BY IDOCK:   -0.09 KCAL/MOL
REMARK 927      BINDING AFFINITY PREDICTED BY RF-SCORE:    0.00 PKD
ROOT
HETATM    1  C   UNL     1     -10.896  12.689  63.889  1.00  0.00    -0.429 C  
HETATM    2  S   UNL     1     -10.946  12.184  65.592  1.00  0.00    -0.305 S  
HETATM    3  O   UNL     1     -10.465  10.642  65.373  1.00  0.00    -0.258 OA 
HETATM    4  O   UNL     1      -9.909  12.888  66.313  1.00  0.00    -0.264 OA 
HETATM    5  O   UNL     1     -12.324  12.178  66.034  1.00  0.00    -0.550 OA 
ENDROOT
BRANCH   3   6
HETATM    6  C   UNL     1     -10.407   9.821  66.532  1.00  0.00    -0.192 C  
BRANCH   6   7
HETATM    7  C   UNL     1      -9.057   9.991  67.220  1.00  0.00    -0.152 C  
BRANCH   7   8
HETATM    8  C   UNL     1      -8.944   9.279  68.574  1.00  0.00    -0.129 C  
BRANCH   8   9
HETATM    9  C   UNL     1     -10.064   8.281  68.851  1.00  0.00    -0.199 C  
BRANCH   9  10
HETATM   10  O   UNL     1     -10.919   8.805  69.856  1.00  0.00    -0.239 OA 
HETATM   11  S   UNL     1     -11.281   7.824  71.106  1.00  0.00    -0.269 S  
HETATM   12  O   UNL     1     -10.087   7.637  71.899  1.00  0.00    -0.173 OA 
HETATM   13  O   UNL     1     -12.060   6.710  70.608  1.00  0.00    -0.394 OA 
HETATM   14  C   UNL     1     -12.363   8.942  71.961  1.00  0.00    -0.390 C  
ENDBRANCH   9  10
ENDBRANCH   8   9
ENDBRANCH   7   8
ENDBRANCH   6   7
ENDBRANCH   3   6
TORSDOF 5
ENDMDL
MODEL      169
REMARK 921   NORMALIZED FREE ENERGY PREDICTED BY IDOCK:   -2.96 KCAL/MOL
REMARK 922        TOTAL FREE ENERGY PREDICTED BY IDOCK:   -4.02 KCAL/MOL
REMARK 923 INTER-LIGAND FREE ENERGY PREDICTED BY IDOCK:   -3.83 KCAL/MOL
REMARK 924 INTRA-LIGAND FREE ENERGY PREDICTED BY IDOCK:   -0.19 KCAL/MOL
REMARK 927      BINDING AFFINITY PREDICTED BY RF-SCORE:    0.00 PKD
ROOT
HETATM    1  C   UNL     1     -12.962   8.812  72.423  1.00  0.00    -0.383 C  
HETATM    2  S   UNL     1     -13.089  10.200  71.322  1.00  0.00    -0.388 S  
HETATM    3  O   UNL     1     -11.565  10.160  70.748  1.00  0.00    -0.304 OA 
HETATM    4  O   UNL     1     -13.992   9.854  70.246  1.00  0.00     0.419 OA 
HETATM    5  O   UNL     1     -13.254  11.404  72.109  1.00  0.00    -0.490 OA 
ENDROOT
BRANCH   3   6
HETATM    6  C   UNL     1     -11.204  11.178  69.822  1.00  0.00    -0.245 C  
BRANCH   6   7
HETATM    7  C   UNL     1     -10.795  10.549  68.494  1.00  0.00    -0.275 C  
BRANCH   7   8
HETATM    8  C   UNL     1     -11.111  11.410  67.264  1.00  0.00    -0.363 C  
BRANCH   8   9
HETATM    9  C   UNL     1      -9.890  12.072  66.635  1.00  0.00    -0.204 C  
BRANCH   9  10
HETATM   10  O   UNL     1     -10.313  13.154  65.818  1.00  0.00    -0.279 OA 
HETATM   11  S   UNL     1     -10.170  14.653  66.441  1.00  0.00    -0.301 S  
HETATM   12  O   UNL     1      -8.763  14.976  66.535  1.00  0.00    -0.269 OA 
HETATM   13  O   UNL     1     -11.066  14.771  67.571  1.00  0.00    -0.297 OA 
HETATM   14  C   UNL     1     -10.864  15.533  65.065  1.00  0.00    -0.450 C  
ENDBRANCH   9  10
ENDBRANCH   8   9
ENDBRANCH   7   8
ENDBRANCH   6   7
ENDBRANCH   3   6
TORSDOF 5
ENDMDL
MODEL      170
REMARK 921   NORMALIZED FREE ENERGY PREDICTED BY IDOCK:   -2.96 KCAL/MOL
REMARK 922        TOTAL FREE ENERGY PREDICTED BY IDOCK:   -4.01 KCAL/MOL
REMARK 923 INTER-LIGAND FREE ENERGY PREDICTED BY IDOCK:   -3.88 KCAL/MOL
REMARK 924 INTRA-LIGAND FREE ENERGY PREDICTED BY IDOCK:   -0.13 KCAL/MOL
REMARK 927      BINDING AFFINITY PREDICTED BY RF-SCORE:    0.00 PKD
ROOT
HETATM    1  C   UNL     1      -9.702  10.407  68.002  1.00  0.00    -0.150 C  
HETATM    2  S   UNL     1      -9.473  11.304  66.486  1.00  0.00    -0.199 S  
HETATM    3  O   UNL     1     -10.334  12.628  66.887  1.00  0.00    -0.231 OA 
HETATM    4  O   UNL     1      -8.081  11.681  66.378  1.00  0.00    -0.130 OA 
HETATM    5  O   UNL     1     -10.167  10.607  65.425  1.00  0.00    -0.274 OA 
ENDROOT
BRANCH   3   6
HETATM    6  C   UNL     1     -10.455  13.637  65.892  1.00  0.00    -0.296 C  
BRANCH   6   7
HETATM    7  C   UNL     1     -10.792  14.972  66.546  1.00  0.00    -0.320 C  
BRANCH   7   8
HETATM    8  C   UNL     1     -10.448  16.199  65.691  1.00  0.00    -0.402 C  
BRANCH   8   9
HETATM    9  C   UNL     1     -10.372  17.505  66.475  1.00  0.00    -0.325 C  
BRANCH   9  10
HETATM   10  O   UNL     1      -9.328  18.309  65.945  1.00  0.00    -0.506 OA 
HETATM   11  S   UNL     1      -7.864  18.180  66.646  1.00  0.00    -0.253 S  
HETATM   12  O   UNL     1      -7.323  16.875  66.337  1.00  0.00    -0.256 OA 
HETATM   13  O   UNL     1      -7.956  18.676  68.003  1.00  0.00    -0.260 OA 
HETATM   14  C   UNL     1      -7.031  19.391  65.649  1.00  0.00    -0.282 C  
ENDBRANCH   9  10
ENDBRANCH   8   9
ENDBRANCH   7   8
ENDBRANCH   6   7
ENDBRANCH   3   6
TORSDOF 5
ENDMDL
MODEL      171
REMARK 921   NORMALIZED FREE ENERGY PREDICTED BY IDOCK:   -2.96 KCAL/MOL
REMARK 922        TOTAL FREE ENERGY PREDICTED BY IDOCK:   -4.01 KCAL/MOL
REMARK 923 INTER-LIGAND FREE ENERGY PREDICTED BY IDOCK:   -3.81 KCAL/MOL
REMARK 924 INTRA-LIGAND FREE ENERGY PREDICTED BY IDOCK:   -0.20 KCAL/MOL
REMARK 927      BINDING AFFINITY PREDICTED BY RF-SCORE:    0.00 PKD
ROOT
HETATM    1  C   UNL     1     -10.468  19.746  66.082  1.00  0.00    -0.509 C  
HETATM    2  S   UNL     1      -9.067  18.753  66.539  1.00  0.00    -0.310 S  
HETATM    3  O   UNL     1      -9.578  17.349  65.888  1.00  0.00    -0.509 OA 
HETATM    4  O   UNL     1      -7.915  19.209  65.793  1.00  0.00    -0.456 OA 
HETATM    5  O   UNL     1      -9.047  18.613  67.979  1.00  0.00    -0.291 OA 
ENDROOT
BRANCH   3   6
HETATM    6  C   UNL     1      -8.736  16.218  66.070  1.00  0.00    -0.250 C  
BRANCH   6   7
HETATM    7  C   UNL     1      -9.309  15.315  67.157  1.00  0.00    -0.227 C  
BRANCH   7   8
HETATM    8  C   UNL     1     -10.443  14.396  66.683  1.00  0.00    -0.274 C  
BRANCH   8   9
HETATM    9  C   UNL     1     -10.109  12.910  66.742  1.00  0.00    -0.238 C  
BRANCH   9  10
HETATM   10  O   UNL     1      -8.714  12.751  66.958  1.00  0.00    -0.202 OA 
HETATM   11  S   UNL     1      -8.142  11.227  67.017  1.00  0.00    -0.154 S  
HETATM   12  O   UNL     1      -8.232  10.655  65.691  1.00  0.00    -0.159 OA 
HETATM   13  O   UNL     1      -8.696  10.569  68.180  1.00  0.00    -0.125 OA 
HETATM   14  C   UNL     1      -6.446  11.638  67.344  1.00  0.00    -0.103 C  
ENDBRANCH   9  10
ENDBRANCH   8   9
ENDBRANCH   7   8
ENDBRANCH   6   7
ENDBRANCH   3   6
TORSDOF 5
ENDMDL
MODEL      172
REMARK 921   NORMALIZED FREE ENERGY PREDICTED BY IDOCK:   -2.94 KCAL/MOL
REMARK 922        TOTAL FREE ENERGY PREDICTED BY IDOCK:   -3.98 KCAL/MOL
REMARK 923 INTER-LIGAND FREE ENERGY PREDICTED BY IDOCK:   -3.71 KCAL/MOL
REMARK 924 INTRA-LIGAND FREE ENERGY PREDICTED BY IDOCK:   -0.27 KCAL/MOL
REMARK 927      BINDING AFFINITY PREDICTED BY RF-SCORE:    0.00 PKD
ROOT
HETATM    1  C   UNL     1     -13.800   9.080  72.359  1.00  0.00    -0.475 C  
HETATM    2  S   UNL     1     -12.196   8.613  71.753  1.00  0.00    -0.368 S  
HETATM    3  O   UNL     1     -11.642   7.921  73.120  1.00  0.00    -0.292 OA 
HETATM    4  O   UNL     1     -12.362   7.581  70.753  1.00  0.00    -0.209 OA 
HETATM    5  O   UNL     1     -11.428   9.814  71.501  1.00  0.00    -0.378 OA 
ENDROOT
BRANCH   3   6
HETATM    6  C   UNL     1     -10.310   7.426  73.091  1.00  0.00    -0.334 C  
BRANCH   6   7
HETATM    7  C   UNL     1     -10.317   5.938  72.753  1.00  0.00    -0.222 C  
BRANCH   7   8
HETATM    8  C   UNL     1      -9.299   5.529  71.680  1.00  0.00    -0.168 C  
BRANCH   8   9
HETATM    9  C   UNL     1      -9.816   4.486  70.695  1.00  0.00    -0.222 C  
BRANCH   9  10
HETATM   10  O   UNL     1     -10.501   5.139  69.637  1.00  0.00    -0.280 OA 
HETATM   11  S   UNL     1      -9.773   5.152  68.179  1.00  0.00    -0.148 S  
HETATM   12  O   UNL     1      -9.778   3.805  67.655  1.00  0.00    -0.178 OA 
HETATM   13  O   UNL     1      -8.562   5.939  68.274  1.00  0.00    -0.114 OA 
HETATM   14  C   UNL     1     -11.006   6.100  67.323  1.00  0.00    -0.326 C  
ENDBRANCH   9  10
ENDBRANCH   8   9
ENDBRANCH   7   8
ENDBRANCH   6   7
ENDBRANCH   3   6
TORSDOF 5
ENDMDL
MODEL      173
REMARK 921   NORMALIZED FREE ENERGY PREDICTED BY IDOCK:   -2.92 KCAL/MOL
REMARK 922        TOTAL FREE ENERGY PREDICTED BY IDOCK:   -3.96 KCAL/MOL
REMARK 923 INTER-LIGAND FREE ENERGY PREDICTED BY IDOCK:   -3.77 KCAL/MOL
REMARK 924 INTRA-LIGAND FREE ENERGY PREDICTED BY IDOCK:   -0.19 KCAL/MOL
REMARK 927      BINDING AFFINITY PREDICTED BY RF-SCORE:    0.00 PKD
ROOT
HETATM    1  C   UNL     1     -10.076   9.458  66.632  1.00  0.00    -0.262 C  
HETATM    2  S   UNL     1     -10.560  10.981  67.410  1.00  0.00    -0.253 S  
HETATM    3  O   UNL     1     -11.441  10.335  68.619  1.00  0.00    -0.212 OA 
HETATM    4  O   UNL     1      -9.385  11.601  67.982  1.00  0.00    -0.165 OA 
HETATM    5  O   UNL     1     -11.452  11.694  66.521  1.00  0.00    -0.411 OA 
ENDROOT
BRANCH   3   6
HETATM    6  C   UNL     1     -12.080  11.248  69.502  1.00  0.00    -0.317 C  
BRANCH   6   7
HETATM    7  C   UNL     1     -12.546  10.516  70.756  1.00  0.00    -0.474 C  
BRANCH   7   8
HETATM    8  C   UNL     1     -11.781   9.220  71.052  1.00  0.00    -0.378 C  
BRANCH   8   9
HETATM    9  C   UNL     1     -10.370   9.436  71.588  1.00  0.00    -0.092 C  
BRANCH   9  10
HETATM   10  O   UNL     1      -9.670   8.200  71.576  1.00  0.00    -0.160 OA 
HETATM   11  S   UNL     1      -9.128   7.641  73.007  1.00  0.00    -0.212 S  
HETATM   12  O   UNL     1     -10.269   7.248  73.805  1.00  0.00    -0.343 OA 
HETATM   13  O   UNL     1      -8.115   8.547  73.504  1.00  0.00    -0.378 OA 
HETATM   14  C   UNL     1      -8.335   6.178  72.390  1.00  0.00    -0.115 C  
ENDBRANCH   9  10
ENDBRANCH   8   9
ENDBRANCH   7   8
ENDBRANCH   6   7
ENDBRANCH   3   6
TORSDOF 5
ENDMDL
MODEL      174
REMARK 921   NORMALIZED FREE ENERGY PREDICTED BY IDOCK:   -2.92 KCAL/MOL
REMARK 922        TOTAL FREE ENERGY PREDICTED BY IDOCK:   -3.96 KCAL/MOL
REMARK 923 INTER-LIGAND FREE ENERGY PREDICTED BY IDOCK:   -3.75 KCAL/MOL
REMARK 924 INTRA-LIGAND FREE ENERGY PREDICTED BY IDOCK:   -0.21 KCAL/MOL
REMARK 927      BINDING AFFINITY PREDICTED BY RF-SCORE:    0.00 PKD
ROOT
HETATM    1  C   UNL     1      -9.452   4.236  67.880  1.00  0.00    -0.165 C  
HETATM    2  S   UNL     1     -10.275   5.802  68.053  1.00  0.00    -0.203 S  
HETATM    3  O   UNL     1      -8.944   6.738  68.125  1.00  0.00    -0.121 OA 
HETATM    4  O   UNL     1     -10.974   6.095  66.821  1.00  0.00    -0.333 OA 
HETATM    5  O   UNL     1     -10.934   5.839  69.341  1.00  0.00    -0.342 OA 
ENDROOT
BRANCH   3   6
HETATM    6  C   UNL     1      -9.153   8.131  68.316  1.00  0.00    -0.135 C  
BRANCH   6   7
HETATM    7  C   UNL     1      -7.989   8.917  67.721  1.00  0.00    -0.102 C  
BRANCH   7   8
HETATM    8  C   UNL     1      -8.188  10.438  67.721  1.00  0.00    -0.110 C  
BRANCH   8   9
HETATM    9  C   UNL     1      -9.345  10.917  66.851  1.00  0.00    -0.168 C  
BRANCH   9  10
HETATM   10  O   UNL     1      -9.913  12.083  67.427  1.00  0.00    -0.190 OA 
HETATM   11  S   UNL     1     -11.536  12.218  67.381  1.00  0.00    -0.360 S  
HETATM   12  O   UNL     1     -12.101  11.228  68.271  1.00  0.00    -0.619 OA 
HETATM   13  O   UNL     1     -11.950  12.341  66.000  1.00  0.00    -0.570 OA 
HETATM   14  C   UNL     1     -11.650  13.811  68.158  1.00  0.00    -0.335 C  
ENDBRANCH   9  10
ENDBRANCH   8   9
ENDBRANCH   7   8
ENDBRANCH   6   7
ENDBRANCH   3   6
TORSDOF 5
ENDMDL
MODEL      175
REMARK 921   NORMALIZED FREE ENERGY PREDICTED BY IDOCK:   -2.92 KCAL/MOL
REMARK 922        TOTAL FREE ENERGY PREDICTED BY IDOCK:   -3.96 KCAL/MOL
REMARK 923 INTER-LIGAND FREE ENERGY PREDICTED BY IDOCK:   -3.61 KCAL/MOL
REMARK 924 INTRA-LIGAND FREE ENERGY PREDICTED BY IDOCK:   -0.35 KCAL/MOL
REMARK 927      BINDING AFFINITY PREDICTED BY RF-SCORE:    0.00 PKD
ROOT
HETATM    1  C   UNL     1      -8.412   6.012  65.789  1.00  0.00    -0.146 C  
HETATM    2  S   UNL     1      -9.930   5.937  66.709  1.00  0.00    -0.189 S  
HETATM    3  O   UNL     1      -9.329   5.251  68.059  1.00  0.00    -0.111 OA 
HETATM    4  O   UNL     1     -10.343   7.286  67.028  1.00  0.00    -0.251 OA 
HETATM    5  O   UNL     1     -10.816   4.991  66.066  1.00  0.00    -0.283 OA 
ENDROOT
BRANCH   3   6
HETATM    6  C   UNL     1     -10.259   4.957  69.094  1.00  0.00    -0.116 C  
BRANCH   6   7
HETATM    7  C   UNL     1      -9.943   5.795  70.328  1.00  0.00    -0.258 C  
BRANCH   7   8
HETATM    8  C   UNL     1     -10.968   5.661  71.462  1.00  0.00    -0.268 C  
BRANCH   8   9
HETATM    9  C   UNL     1     -12.055   6.730  71.451  1.00  0.00    -0.366 C  
BRANCH   9  10
HETATM   10  O   UNL     1     -11.645   7.807  70.620  1.00  0.00    -0.281 OA 
HETATM   11  S   UNL     1     -11.276   9.212  71.356  1.00  0.00    -0.377 S  
HETATM   12  O   UNL     1     -10.053   9.027  72.106  1.00  0.00    -0.296 OA 
HETATM   13  O   UNL     1     -12.478   9.748  71.959  1.00  0.00    -0.367 OA 
HETATM   14  C   UNL     1     -10.908  10.142  69.889  1.00  0.00    -0.299 C  
ENDBRANCH   9  10
ENDBRANCH   8   9
ENDBRANCH   7   8
ENDBRANCH   6   7
ENDBRANCH   3   6
TORSDOF 5
ENDMDL
MODEL      176
REMARK 921   NORMALIZED FREE ENERGY PREDICTED BY IDOCK:   -2.91 KCAL/MOL
REMARK 922        TOTAL FREE ENERGY PREDICTED BY IDOCK:   -3.95 KCAL/MOL
REMARK 923 INTER-LIGAND FREE ENERGY PREDICTED BY IDOCK:   -3.74 KCAL/MOL
REMARK 924 INTRA-LIGAND FREE ENERGY PREDICTED BY IDOCK:   -0.21 KCAL/MOL
REMARK 927      BINDING AFFINITY PREDICTED BY RF-SCORE:    0.00 PKD
ROOT
HETATM    1  C   UNL     1     -11.180   6.808  70.406  1.00  0.00    -0.328 C  
HETATM    2  S   UNL     1     -11.128   8.490  70.979  1.00  0.00    -0.271 S  
HETATM    3  O   UNL     1     -11.062   9.212  69.519  1.00  0.00    -0.177 OA 
HETATM    4  O   UNL     1     -12.399   8.809  71.589  1.00  0.00    -0.304 OA 
HETATM    5  O   UNL     1      -9.869   8.710  71.658  1.00  0.00    -0.225 OA 
ENDROOT
BRANCH   3   6
HETATM    6  C   UNL     1     -10.959  10.630  69.513  1.00  0.00    -0.272 C  
BRANCH   6   7
HETATM    7  C   UNL     1     -11.962  11.218  68.525  1.00  0.00    -0.288 C  
BRANCH   7   8
HETATM    8  C   UNL     1     -11.660  12.661  68.103  1.00  0.00    -0.386 C  
BRANCH   8   9
HETATM    9  C   UNL     1     -10.433  13.266  68.777  1.00  0.00    -0.169 C  
BRANCH   9  10
HETATM   10  O   UNL     1     -10.234  14.585  68.291  1.00  0.00    -0.224 OA 
HETATM   11  S   UNL     1      -9.793  15.717  69.377  1.00  0.00    -0.295 S  
HETATM   12  O   UNL     1      -8.445  15.429  69.813  1.00  0.00    -0.209 OA 
HETATM   13  O   UNL     1     -10.882  15.909  70.312  1.00  0.00    -0.316 OA 
HETATM   14  C   UNL     1      -9.748  17.095  68.259  1.00  0.00    -0.280 C  
ENDBRANCH   9  10
ENDBRANCH   8   9
ENDBRANCH   7   8
ENDBRANCH   6   7
ENDBRANCH   3   6
TORSDOF 5
ENDMDL
MODEL      177
REMARK 921   NORMALIZED FREE ENERGY PREDICTED BY IDOCK:   -2.90 KCAL/MOL
REMARK 922        TOTAL FREE ENERGY PREDICTED BY IDOCK:   -3.94 KCAL/MOL
REMARK 923 INTER-LIGAND FREE ENERGY PREDICTED BY IDOCK:   -4.08 KCAL/MOL
REMARK 924 INTRA-LIGAND FREE ENERGY PREDICTED BY IDOCK:    0.15 KCAL/MOL
REMARK 927      BINDING AFFINITY PREDICTED BY RF-SCORE:    0.00 PKD
ROOT
HETATM    1  C   UNL     1     -11.830  14.370  67.000  1.00  0.00    -0.412 C  
HETATM    2  S   UNL     1     -12.047  14.127  65.253  1.00  0.00    -0.422 S  
HETATM    3  O   UNL     1     -10.973  12.915  65.070  1.00  0.00    -0.284 OA 
HETATM    4  O   UNL     1     -13.374  13.600  65.021  1.00  0.00    -0.593 OA 
HETATM    5  O   UNL     1     -11.548  15.294  64.557  1.00  0.00    -0.395 OA 
ENDROOT
BRANCH   3   6
HETATM    6  C   UNL     1     -10.787  12.422  63.749  1.00  0.00    -0.454 C  
BRANCH   6   7
HETATM    7  C   UNL     1     -10.306  10.975  63.799  1.00  0.00    -0.427 C  
BRANCH   7   8
HETATM    8  C   UNL     1      -9.449  10.636  65.025  1.00  0.00    -0.293 C  
BRANCH   8   9
HETATM    9  C   UNL     1     -10.121   9.691  66.015  1.00  0.00    -0.248 C  
BRANCH   9  10
HETATM   10  O   UNL     1      -9.128   9.069  66.817  1.00  0.00    -0.136 OA 
HETATM   11  S   UNL     1      -8.176   7.962  66.093  1.00  0.00    -0.124 S  
HETATM   12  O   UNL     1      -7.314   8.646  65.155  1.00  0.00    -0.085 OA 
HETATM   13  O   UNL     1      -8.993   6.831  65.708  1.00  0.00    -0.122 OA 
HETATM   14  C   UNL     1      -7.221   7.519  67.523  1.00  0.00    -0.090 C  
ENDBRANCH   9  10
ENDBRANCH   8   9
ENDBRANCH   7   8
ENDBRANCH   6   7
ENDBRANCH   3   6
TORSDOF 5
ENDMDL
MODEL      178
REMARK 921   NORMALIZED FREE ENERGY PREDICTED BY IDOCK:   -2.90 KCAL/MOL
REMARK 922        TOTAL FREE ENERGY PREDICTED BY IDOCK:   -3.93 KCAL/MOL
REMARK 923 INTER-LIGAND FREE ENERGY PREDICTED BY IDOCK:   -3.75 KCAL/MOL
REMARK 924 INTRA-LIGAND FREE ENERGY PREDICTED BY IDOCK:   -0.18 KCAL/MOL
REMARK 927      BINDING AFFINITY PREDICTED BY RF-SCORE:    0.00 PKD
ROOT
HETATM    1  C   UNL     1     -12.040  16.196  72.416  1.00  0.00    -0.540 C  
HETATM    2  S   UNL     1     -12.933  15.329  71.147  1.00  0.00    -0.484 S  
HETATM    3  O   UNL     1     -12.768  13.826  71.756  1.00  0.00    -0.324 OA 
HETATM    4  O   UNL     1     -14.328  15.703  71.227  1.00  0.00    -0.521 OA 
HETATM    5  O   UNL     1     -12.183  15.411  69.913  1.00  0.00    -0.342 OA 
ENDROOT
BRANCH   3   6
HETATM    6  C   UNL     1     -13.325  12.764  70.993  1.00  0.00     0.322 C  
BRANCH   6   7
HETATM    7  C   UNL     1     -12.546  11.478  71.250  1.00  0.00    -0.452 C  
BRANCH   7   8
HETATM    8  C   UNL     1     -12.175  10.700  69.981  1.00  0.00    -0.373 C  
BRANCH   8   9
HETATM    9  C   UNL     1     -10.898   9.876  70.105  1.00  0.00    -0.304 C  
BRANCH   9  10
HETATM   10  O   UNL     1     -10.071  10.119  68.976  1.00  0.00    -0.183 OA 
HETATM   11  S   UNL     1      -9.730   8.847  68.018  1.00  0.00    -0.162 S  
HETATM   12  O   UNL     1     -10.941   8.454  67.332  1.00  0.00    -0.114 OA 
HETATM   13  O   UNL     1      -8.930   7.904  68.771  1.00  0.00    -0.141 OA 
HETATM   14  C   UNL     1      -8.680   9.704  66.873  1.00  0.00    -0.131 C  
ENDBRANCH   9  10
ENDBRANCH   8   9
ENDBRANCH   7   8
ENDBRANCH   6   7
ENDBRANCH   3   6
TORSDOF 5
ENDMDL
MODEL      179
REMARK 921   NORMALIZED FREE ENERGY PREDICTED BY IDOCK:   -2.90 KCAL/MOL
REMARK 922        TOTAL FREE ENERGY PREDICTED BY IDOCK:   -3.93 KCAL/MOL
REMARK 923 INTER-LIGAND FREE ENERGY PREDICTED BY IDOCK:   -3.67 KCAL/MOL
REMARK 924 INTRA-LIGAND FREE ENERGY PREDICTED BY IDOCK:   -0.26 KCAL/MOL
REMARK 927      BINDING AFFINITY PREDICTED BY RF-SCORE:    0.00 PKD
ROOT
HETATM    1  C   UNL     1     -10.836   9.919  67.260  1.00  0.00    -0.199 C  
HETATM    2  S   UNL     1     -10.523  10.774  68.786  1.00  0.00    -0.212 S  
HETATM    3  O   UNL     1     -11.564  12.007  68.559  1.00  0.00    -0.264 OA 
HETATM    4  O   UNL     1     -11.010   9.961  69.879  1.00  0.00    -0.247 OA 
HETATM    5  O   UNL     1      -9.175  11.298  68.756  1.00  0.00    -0.182 OA 
ENDROOT
BRANCH   3   6
HETATM    6  C   UNL     1     -11.605  13.003  69.573  1.00  0.00    -0.276 C  
BRANCH   6   7
HETATM    7  C   UNL     1     -11.504  14.388  68.943  1.00  0.00    -0.319 C  
BRANCH   7   8
HETATM    8  C   UNL     1     -10.110  14.738  68.406  1.00  0.00    -0.225 C  
BRANCH   8   9
HETATM    9  C   UNL     1      -9.528  16.028  68.973  1.00  0.00    -0.243 C  
BRANCH   9  10
HETATM   10  O   UNL     1      -8.835  16.721  67.945  1.00  0.00    -0.211 OA 
HETATM   11  S   UNL     1      -9.163  18.307  67.768  1.00  0.00    -0.274 S  
HETATM   12  O   UNL     1      -8.634  19.013  68.914  1.00  0.00    -0.333 OA 
HETATM   13  O   UNL     1     -10.539  18.449  67.342  1.00  0.00    -0.406 OA 
HETATM   14  C   UNL     1      -8.100  18.601  66.378  1.00  0.00    -0.281 C  
ENDBRANCH   9  10
ENDBRANCH   8   9
ENDBRANCH   7   8
ENDBRANCH   6   7
ENDBRANCH   3   6
TORSDOF 5
ENDMDL
MODEL      180
REMARK 921   NORMALIZED FREE ENERGY PREDICTED BY IDOCK:   -2.89 KCAL/MOL
REMARK 922        TOTAL FREE ENERGY PREDICTED BY IDOCK:   -3.92 KCAL/MOL
REMARK 923 INTER-LIGAND FREE ENERGY PREDICTED BY IDOCK:   -3.74 KCAL/MOL
REMARK 924 INTRA-LIGAND FREE ENERGY PREDICTED BY IDOCK:   -0.19 KCAL/MOL
REMARK 927      BINDING AFFINITY PREDICTED BY RF-SCORE:    0.00 PKD
ROOT
HETATM    1  C   UNL     1      -9.784   9.063  71.063  1.00  0.00    -0.278 C  
HETATM    2  S   UNL     1     -10.002   9.505  69.356  1.00  0.00    -0.204 S  
HETATM    3  O   UNL     1     -10.884  10.855  69.595  1.00  0.00    -0.245 OA 
HETATM    4  O   UNL     1      -8.719   9.889  68.811  1.00  0.00    -0.122 OA 
HETATM    5  O   UNL     1     -10.842   8.512  68.723  1.00  0.00    -0.108 OA 
ENDROOT
BRANCH   3   6
HETATM    6  C   UNL     1     -11.334  11.537  68.431  1.00  0.00    -0.279 C  
BRANCH   6   7
HETATM    7  C   UNL     1     -10.767  12.952  68.408  1.00  0.00    -0.273 C  
BRANCH   7   8
HETATM    8  C   UNL     1      -9.315  13.043  67.920  1.00  0.00    -0.212 C  
BRANCH   8   9
HETATM    9  C   UNL     1      -9.076  14.123  66.870  1.00  0.00    -0.245 C  
BRANCH   9  10
HETATM   10  O   UNL     1      -9.606  15.355  67.337  1.00  0.00    -0.209 OA 
HETATM   11  S   UNL     1      -9.768  16.553  66.245  1.00  0.00    -0.319 S  
HETATM   12  O   UNL     1     -10.821  16.190  65.322  1.00  0.00    -0.383 OA 
HETATM   13  O   UNL     1      -8.451  16.951  65.796  1.00  0.00    -0.492 OA 
HETATM   14  C   UNL     1     -10.390  17.788  67.359  1.00  0.00    -0.369 C  
ENDBRANCH   9  10
ENDBRANCH   8   9
ENDBRANCH   7   8
ENDBRANCH   6   7
ENDBRANCH   3   6
TORSDOF 5
ENDMDL
MODEL      181
REMARK 921   NORMALIZED FREE ENERGY PREDICTED BY IDOCK:   -2.88 KCAL/MOL
REMARK 922        TOTAL FREE ENERGY PREDICTED BY IDOCK:   -3.91 KCAL/MOL
REMARK 923 INTER-LIGAND FREE ENERGY PREDICTED BY IDOCK:   -3.53 KCAL/MOL
REMARK 924 INTRA-LIGAND FREE ENERGY PREDICTED BY IDOCK:   -0.38 KCAL/MOL
REMARK 927      BINDING AFFINITY PREDICTED BY RF-SCORE:    0.00 PKD
ROOT
HETATM    1  C   UNL     1     -10.048   4.899  69.341  1.00  0.00    -0.200 C  
HETATM    2  S   UNL     1      -8.969   5.746  70.471  1.00  0.00    -0.144 S  
HETATM    3  O   UNL     1     -10.118   6.530  71.319  1.00  0.00    -0.185 OA 
HETATM    4  O   UNL     1      -8.349   4.768  71.338  1.00  0.00    -0.103 OA 
HETATM    5  O   UNL     1      -8.196   6.721  69.731  1.00  0.00    -0.124 OA 
ENDROOT
BRANCH   3   6
HETATM    6  C   UNL     1      -9.669   7.402  72.348  1.00  0.00    -0.155 C  
BRANCH   6   7
HETATM    7  C   UNL     1     -10.444   8.714  72.291  1.00  0.00    -0.376 C  
BRANCH   7   8
HETATM    8  C   UNL     1     -11.805   8.614  71.590  1.00  0.00    -0.389 C  
BRANCH   8   9
HETATM    9  C   UNL     1     -12.224   9.883  70.856  1.00  0.00    -0.328 C  
BRANCH   9  10
HETATM   10  O   UNL     1     -11.080  10.483  70.267  1.00  0.00    -0.298 OA 
HETATM   11  S   UNL     1     -10.892  10.300  68.659  1.00  0.00    -0.241 S  
HETATM   12  O   UNL     1     -11.920  11.065  67.989  1.00  0.00    -0.623 OA 
HETATM   13  O   UNL     1     -10.667   8.898  68.377  1.00  0.00    -0.176 OA 
HETATM   14  C   UNL     1      -9.351  11.169  68.514  1.00  0.00    -0.190 C  
ENDBRANCH   9  10
ENDBRANCH   8   9
ENDBRANCH   7   8
ENDBRANCH   6   7
ENDBRANCH   3   6
TORSDOF 5
ENDMDL
MODEL      182
REMARK 921   NORMALIZED FREE ENERGY PREDICTED BY IDOCK:   -2.85 KCAL/MOL
REMARK 922        TOTAL FREE ENERGY PREDICTED BY IDOCK:   -3.88 KCAL/MOL
REMARK 923 INTER-LIGAND FREE ENERGY PREDICTED BY IDOCK:   -3.71 KCAL/MOL
REMARK 924 INTRA-LIGAND FREE ENERGY PREDICTED BY IDOCK:   -0.17 KCAL/MOL
REMARK 927      BINDING AFFINITY PREDICTED BY RF-SCORE:    0.00 PKD
ROOT
HETATM    1  C   UNL     1      -8.160   4.816  64.483  1.00  0.00    -0.109 C  
HETATM    2  S   UNL     1      -9.284   4.771  65.858  1.00  0.00    -0.157 S  
HETATM    3  O   UNL     1      -9.284   6.367  66.188  1.00  0.00    -0.158 OA 
HETATM    4  O   UNL     1     -10.596   4.406  65.371  1.00  0.00    -0.268 OA 
HETATM    5  O   UNL     1      -8.647   4.074  66.955  1.00  0.00    -0.103 OA 
ENDROOT
BRANCH   3   6
HETATM    6  C   UNL     1     -10.058   6.788  67.304  1.00  0.00    -0.182 C  
BRANCH   6   7
HETATM    7  C   UNL     1     -10.382   8.273  67.179  1.00  0.00    -0.387 C  
BRANCH   7   8
HETATM    8  C   UNL     1      -9.512   9.027  66.165  1.00  0.00    -0.318 C  
BRANCH   8   9
HETATM    9  C   UNL     1     -10.253  10.109  65.388  1.00  0.00    -0.211 C  
BRANCH   9  10
HETATM   10  O   UNL     1     -10.337  11.282  66.184  1.00  0.00    -0.237 OA 
HETATM   11  S   UNL     1     -11.111  12.562  65.538  1.00  0.00    -0.312 S  
HETATM   12  O   UNL     1     -12.519  12.248  65.449  1.00  0.00    -0.596 OA 
HETATM   13  O   UNL     1     -10.352  13.034  64.399  1.00  0.00    -0.388 OA 
HETATM   14  C   UNL     1     -10.862  13.681  66.894  1.00  0.00    -0.283 C  
ENDBRANCH   9  10
ENDBRANCH   8   9
ENDBRANCH   7   8
ENDBRANCH   6   7
ENDBRANCH   3   6
TORSDOF 5
ENDMDL
MODEL      183
REMARK 921   NORMALIZED FREE ENERGY PREDICTED BY IDOCK:   -2.85 KCAL/MOL
REMARK 922        TOTAL FREE ENERGY PREDICTED BY IDOCK:   -3.87 KCAL/MOL
REMARK 923 INTER-LIGAND FREE ENERGY PREDICTED BY IDOCK:   -3.55 KCAL/MOL
REMARK 924 INTRA-LIGAND FREE ENERGY PREDICTED BY IDOCK:   -0.32 KCAL/MOL
REMARK 927      BINDING AFFINITY PREDICTED BY RF-SCORE:    0.00 PKD
ROOT
HETATM    1  C   UNL     1      -7.937   9.057  67.315  1.00  0.00    -0.099 C  
HETATM    2  S   UNL     1      -9.480   9.164  68.190  1.00  0.00    -0.143 S  
HETATM    3  O   UNL     1     -10.144  10.365  67.310  1.00  0.00    -0.183 OA 
HETATM    4  O   UNL     1     -10.232   7.952  67.949  1.00  0.00    -0.189 OA 
HETATM    5  O   UNL     1      -9.223   9.659  69.525  1.00  0.00    -0.175 OA 
ENDROOT
BRANCH   3   6
HETATM    6  C   UNL     1     -11.428  10.818  67.717  1.00  0.00    -0.202 C  
BRANCH   6   7
HETATM    7  C   UNL     1     -11.296  12.128  68.486  1.00  0.00    -0.324 C  
BRANCH   7   8
HETATM    8  C   UNL     1     -11.886  12.091  69.902  1.00  0.00    -0.405 C  
BRANCH   8   9
HETATM    9  C   UNL     1     -12.257  13.461  70.460  1.00  0.00    -0.352 C  
BRANCH   9  10
HETATM   10  O   UNL     1     -12.030  14.449  69.465  1.00  0.00    -0.297 OA 
HETATM   11  S   UNL     1     -11.005  15.658  69.841  1.00  0.00    -0.349 S  
HETATM   12  O   UNL     1      -9.668  15.113  69.927  1.00  0.00    -0.155 OA 
HETATM   13  O   UNL     1     -11.588  16.444  70.908  1.00  0.00    -0.358 OA 
HETATM   14  C   UNL     1     -11.154  16.559  68.319  1.00  0.00    -0.321 C  
ENDBRANCH   9  10
ENDBRANCH   8   9
ENDBRANCH   7   8
ENDBRANCH   6   7
ENDBRANCH   3   6
TORSDOF 5
ENDMDL
MODEL      184
REMARK 921   NORMALIZED FREE ENERGY PREDICTED BY IDOCK:   -2.84 KCAL/MOL
REMARK 922        TOTAL FREE ENERGY PREDICTED BY IDOCK:   -3.85 KCAL/MOL
REMARK 923 INTER-LIGAND FREE ENERGY PREDICTED BY IDOCK:   -3.61 KCAL/MOL
REMARK 924 INTRA-LIGAND FREE ENERGY PREDICTED BY IDOCK:   -0.24 KCAL/MOL
REMARK 927      BINDING AFFINITY PREDICTED BY RF-SCORE:    0.00 PKD
ROOT
HETATM    1  C   UNL     1     -11.495  14.965  64.667  1.00  0.00    -0.379 C  
HETATM    2  S   UNL     1     -11.171  14.739  66.399  1.00  0.00    -0.330 S  
HETATM    3  O   UNL     1     -10.002  13.614  66.254  1.00  0.00    -0.285 OA 
HETATM    4  O   UNL     1     -10.577  15.951  66.919  1.00  0.00    -0.311 OA 
HETATM    5  O   UNL     1     -12.329  14.124  67.011  1.00  0.00    -0.396 OA 
ENDROOT
BRANCH   3   6
HETATM    6  C   UNL     1      -9.463  13.093  67.462  1.00  0.00    -0.212 C  
BRANCH   6   7
HETATM    7  C   UNL     1     -10.103  11.745  67.777  1.00  0.00    -0.199 C  
BRANCH   7   8
HETATM    8  C   UNL     1     -10.931  11.725  69.068  1.00  0.00    -0.276 C  
BRANCH   8   9
HETATM    9  C   UNL     1     -11.112  10.337  69.673  1.00  0.00    -0.274 C  
BRANCH   9  10
HETATM   10  O   UNL     1     -10.875   9.356  68.674  1.00  0.00    -0.195 OA 
HETATM   11  S   UNL     1     -10.037   8.032  69.119  1.00  0.00    -0.205 S  
HETATM   12  O   UNL     1     -10.862   7.250  70.013  1.00  0.00    -0.244 OA 
HETATM   13  O   UNL     1      -8.689   8.431  69.464  1.00  0.00    -0.134 OA 
HETATM   14  C   UNL     1     -10.011   7.240  67.530  1.00  0.00    -0.169 C  
ENDBRANCH   9  10
ENDBRANCH   8   9
ENDBRANCH   7   8
ENDBRANCH   6   7
ENDBRANCH   3   6
TORSDOF 5
ENDMDL
MODEL      185
REMARK 921   NORMALIZED FREE ENERGY PREDICTED BY IDOCK:   -2.83 KCAL/MOL
REMARK 922        TOTAL FREE ENERGY PREDICTED BY IDOCK:   -3.85 KCAL/MOL
REMARK 923 INTER-LIGAND FREE ENERGY PREDICTED BY IDOCK:   -3.52 KCAL/MOL
REMARK 924 INTRA-LIGAND FREE ENERGY PREDICTED BY IDOCK:   -0.33 KCAL/MOL
REMARK 927      BINDING AFFINITY PREDICTED BY RF-SCORE:    0.00 PKD
ROOT
HETATM    1  C   UNL     1      -6.536  12.549  69.222  1.00  0.00    -0.104 C  
HETATM    2  S   UNL     1      -6.367  13.973  68.172  1.00  0.00    -0.143 S  
HETATM    3  O   UNL     1      -5.854  15.019  69.311  1.00  0.00    -0.100 OA 
HETATM    4  O   UNL     1      -5.281  13.737  67.246  1.00  0.00    -0.318 OA 
HETATM    5  O   UNL     1      -7.683  14.381  67.730  1.00  0.00    -0.130 OA 
ENDROOT
BRANCH   3   6
HETATM    6  C   UNL     1      -5.628  16.359  68.891  1.00  0.00    -0.122 C  
BRANCH   6   7
HETATM    7  C   UNL     1      -6.625  17.291  69.573  1.00  0.00    -0.178 C  
BRANCH   7   8
HETATM    8  C   UNL     1      -6.701  18.694  68.957  1.00  0.00    -0.296 C  
BRANCH   8   9
HETATM    9  C   UNL     1      -7.935  18.930  68.093  1.00  0.00    -0.300 C  
BRANCH   9  10
HETATM   10  O   UNL     1      -8.863  17.875  68.302  1.00  0.00    -0.261 OA 
HETATM   11  S   UNL     1     -10.125  17.784  67.276  1.00  0.00    -0.352 S  
HETATM   12  O   UNL     1      -9.628  17.394  65.975  1.00  0.00    -0.464 OA 
HETATM   13  O   UNL     1     -10.960  18.951  67.465  1.00  0.00    -0.422 OA 
HETATM   14  C   UNL     1     -10.919  16.384  68.024  1.00  0.00    -0.327 C  
ENDBRANCH   9  10
ENDBRANCH   8   9
ENDBRANCH   7   8
ENDBRANCH   6   7
ENDBRANCH   3   6
TORSDOF 5
ENDMDL
MODEL      186
REMARK 921   NORMALIZED FREE ENERGY PREDICTED BY IDOCK:   -2.82 KCAL/MOL
REMARK 922        TOTAL FREE ENERGY PREDICTED BY IDOCK:   -3.83 KCAL/MOL
REMARK 923 INTER-LIGAND FREE ENERGY PREDICTED BY IDOCK:   -3.38 KCAL/MOL
REMARK 924 INTRA-LIGAND FREE ENERGY PREDICTED BY IDOCK:   -0.45 KCAL/MOL
REMARK 927      BINDING AFFINITY PREDICTED BY RF-SCORE:    0.00 PKD
ROOT
HETATM    1  C   UNL     1     -12.224  10.205  71.055  1.00  0.00    -0.374 C  
HETATM    2  S   UNL     1     -10.809   9.210  70.648  1.00  0.00    -0.287 S  
HETATM    3  O   UNL     1     -10.194   9.085  72.152  1.00  0.00    -0.300 OA 
HETATM    4  O   UNL     1     -11.268   7.904  70.231  1.00  0.00    -0.264 OA 
HETATM    5  O   UNL     1      -9.902  10.001  69.844  1.00  0.00    -0.235 OA 
ENDROOT
BRANCH   3   6
HETATM    6  C   UNL     1      -8.973   8.370  72.284  1.00  0.00    -0.233 C  
BRANCH   6   7
HETATM    7  C   UNL     1      -9.121   7.281  73.342  1.00  0.00    -0.213 C  
BRANCH   7   8
HETATM    8  C   UNL     1     -10.573   6.885  73.642  1.00  0.00    -0.371 C  
BRANCH   8   9
HETATM    9  C   UNL     1     -10.885   5.414  73.387  1.00  0.00    -0.297 C  
BRANCH   9  10
HETATM   10  O   UNL     1     -10.578   5.098  72.037  1.00  0.00    -0.218 OA 
HETATM   11  S   UNL     1      -9.622   3.804  71.777  1.00  0.00    -0.165 S  
HETATM   12  O   UNL     1     -10.363   2.612  72.128  1.00  0.00    -0.134 OA 
HETATM   13  O   UNL     1      -8.309   4.084  72.318  1.00  0.00    -0.094 OA 
HETATM   14  C   UNL     1      -9.552   3.930  70.008  1.00  0.00    -0.199 C  
ENDBRANCH   9  10
ENDBRANCH   8   9
ENDBRANCH   7   8
ENDBRANCH   6   7
ENDBRANCH   3   6
TORSDOF 5
ENDMDL
MODEL      187
REMARK 921   NORMALIZED FREE ENERGY PREDICTED BY IDOCK:   -2.82 KCAL/MOL
REMARK 922        TOTAL FREE ENERGY PREDICTED BY IDOCK:   -3.83 KCAL/MOL
REMARK 923 INTER-LIGAND FREE ENERGY PREDICTED BY IDOCK:   -3.51 KCAL/MOL
REMARK 924 INTRA-LIGAND FREE ENERGY PREDICTED BY IDOCK:   -0.32 KCAL/MOL
REMARK 927      BINDING AFFINITY PREDICTED BY RF-SCORE:    0.00 PKD
ROOT
HETATM    1  C   UNL     1     -13.527   9.023  72.365  1.00  0.00    -0.470 C  
HETATM    2  S   UNL     1     -12.000   8.505  71.619  1.00  0.00    -0.338 S  
HETATM    3  O   UNL     1     -11.605   9.927  70.927  1.00  0.00    -0.313 OA 
HETATM    4  O   UNL     1     -11.044   8.227  72.668  1.00  0.00    -0.367 OA 
HETATM    5  O   UNL     1     -12.295   7.550  70.572  1.00  0.00    -0.056 OA 
ENDROOT
BRANCH   3   6
HETATM    6  C   UNL     1     -10.414   9.951  70.152  1.00  0.00    -0.285 C  
BRANCH   6   7
HETATM    7  C   UNL     1     -10.726  10.418  68.734  1.00  0.00    -0.255 C  
BRANCH   7   8
HETATM    8  C   UNL     1     -10.055   9.587  67.633  1.00  0.00    -0.254 C  
BRANCH   8   9
HETATM    9  C   UNL     1     -10.659   8.200  67.440  1.00  0.00    -0.255 C  
BRANCH   9  10
HETATM   10  O   UNL     1      -9.616   7.240  67.373  1.00  0.00    -0.134 OA 
HETATM   11  S   UNL     1     -10.046   5.671  67.467  1.00  0.00    -0.194 S  
HETATM   12  O   UNL     1     -10.756   5.319  66.257  1.00  0.00    -0.294 OA 
HETATM   13  O   UNL     1     -10.593   5.419  68.783  1.00  0.00    -0.188 OA 
HETATM   14  C   UNL     1      -8.410   4.986  67.385  1.00  0.00    -0.106 C  
ENDBRANCH   9  10
ENDBRANCH   8   9
ENDBRANCH   7   8
ENDBRANCH   6   7
ENDBRANCH   3   6
TORSDOF 5
ENDMDL
MODEL      188
REMARK 921   NORMALIZED FREE ENERGY PREDICTED BY IDOCK:   -2.82 KCAL/MOL
REMARK 922        TOTAL FREE ENERGY PREDICTED BY IDOCK:   -3.83 KCAL/MOL
REMARK 923 INTER-LIGAND FREE ENERGY PREDICTED BY IDOCK:   -3.65 KCAL/MOL
REMARK 924 INTRA-LIGAND FREE ENERGY PREDICTED BY IDOCK:   -0.19 KCAL/MOL
REMARK 927      BINDING AFFINITY PREDICTED BY RF-SCORE:    0.00 PKD
ROOT
HETATM    1  C   UNL     1     -11.341   6.301  69.841  1.00  0.00    -0.434 C  
HETATM    2  S   UNL     1     -10.298   7.739  69.869  1.00  0.00    -0.227 S  
HETATM    3  O   UNL     1     -10.024   7.837  68.266  1.00  0.00    -0.167 OA 
HETATM    4  O   UNL     1     -11.095   8.879  70.266  1.00  0.00    -0.245 OA 
HETATM    5  O   UNL     1      -9.057   7.399  70.529  1.00  0.00    -0.155 OA 
ENDROOT
BRANCH   3   6
HETATM    6  C   UNL     1      -9.156   8.875  67.829  1.00  0.00    -0.134 C  
BRANCH   6   7
HETATM    7  C   UNL     1      -9.975  10.070  67.352  1.00  0.00    -0.242 C  
BRANCH   7   8
HETATM    8  C   UNL     1      -9.551  11.412  67.962  1.00  0.00    -0.184 C  
BRANCH   8   9
HETATM    9  C   UNL     1     -10.697  12.395  68.168  1.00  0.00    -0.221 C  
BRANCH   9  10
HETATM   10  O   UNL     1     -10.347  13.649  67.599  1.00  0.00    -0.235 OA 
HETATM   11  S   UNL     1     -11.558  14.704  67.329  1.00  0.00    -0.375 S  
HETATM   12  O   UNL     1     -12.055  15.166  68.606  1.00  0.00    -0.264 OA 
HETATM   13  O   UNL     1     -12.432  14.156  66.314  1.00  0.00    -0.466 OA 
HETATM   14  C   UNL     1     -10.574  15.991  66.602  1.00  0.00    -0.297 C  
ENDBRANCH   9  10
ENDBRANCH   8   9
ENDBRANCH   7   8
ENDBRANCH   6   7
ENDBRANCH   3   6
TORSDOF 5
ENDMDL
MODEL      189
REMARK 921   NORMALIZED FREE ENERGY PREDICTED BY IDOCK:   -2.82 KCAL/MOL
REMARK 922        TOTAL FREE ENERGY PREDICTED BY IDOCK:   -3.83 KCAL/MOL
REMARK 923 INTER-LIGAND FREE ENERGY PREDICTED BY IDOCK:   -3.60 KCAL/MOL
REMARK 924 INTRA-LIGAND FREE ENERGY PREDICTED BY IDOCK:   -0.23 KCAL/MOL
REMARK 927      BINDING AFFINITY PREDICTED BY RF-SCORE:    0.00 PKD
ROOT
HETATM    1  C   UNL     1     -12.884  13.900  66.288  1.00  0.00    -0.035 C  
HETATM    2  S   UNL     1     -11.149  13.515  66.297  1.00  0.00    -0.304 S  
HETATM    3  O   UNL     1     -10.590  15.044  66.377  1.00  0.00    -0.295 OA 
HETATM    4  O   UNL     1     -10.831  12.847  67.540  1.00  0.00    -0.230 OA 
HETATM    5  O   UNL     1     -10.791  12.960  65.010  1.00  0.00    -0.283 OA 
ENDROOT
BRANCH   3   6
HETATM    6  C   UNL     1      -9.178  15.209  66.360  1.00  0.00    -0.300 C  
BRANCH   6   7
HETATM    7  C   UNL     1      -8.827  16.687  66.487  1.00  0.00    -0.314 C  
BRANCH   7   8
HETATM    8  C   UNL     1      -9.328  17.347  67.778  1.00  0.00    -0.255 C  
BRANCH   8   9
HETATM    9  C   UNL     1      -8.218  17.872  68.682  1.00  0.00    -0.275 C  
BRANCH   9  10
HETATM   10  O   UNL     1      -7.137  18.325  67.882  1.00  0.00    -0.216 OA 
HETATM   11  S   UNL     1      -6.840  19.927  67.873  1.00  0.00    -0.270 S  
HETATM   12  O   UNL     1      -6.333  20.304  69.174  1.00  0.00    -0.317 OA 
HETATM   13  O   UNL     1      -7.963  20.602  67.258  1.00  0.00    -0.335 OA 
HETATM   14  C   UNL     1      -5.488  19.898  66.723  1.00  0.00    -0.168 C  
ENDBRANCH   9  10
ENDBRANCH   8   9
ENDBRANCH   7   8
ENDBRANCH   6   7
ENDBRANCH   3   6
TORSDOF 5
ENDMDL
MODEL      190
REMARK 921   NORMALIZED FREE ENERGY PREDICTED BY IDOCK:   -2.82 KCAL/MOL
REMARK 922        TOTAL FREE ENERGY PREDICTED BY IDOCK:   -3.83 KCAL/MOL
REMARK 923 INTER-LIGAND FREE ENERGY PREDICTED BY IDOCK:   -3.61 KCAL/MOL
REMARK 924 INTRA-LIGAND FREE ENERGY PREDICTED BY IDOCK:   -0.22 KCAL/MOL
REMARK 927      BINDING AFFINITY PREDICTED BY RF-SCORE:    0.00 PKD
ROOT
HETATM    1  C   UNL     1      -8.183   8.588  71.365  1.00  0.00    -0.147 C  
HETATM    2  S   UNL     1      -8.886   9.257  69.877  1.00  0.00    -0.204 S  
HETATM    3  O   UNL     1     -10.235   9.886  70.540  1.00  0.00    -0.278 OA 
HETATM    4  O   UNL     1      -8.051  10.347  69.421  1.00  0.00    -0.151 OA 
HETATM    5  O   UNL     1      -9.266   8.162  69.010  1.00  0.00    -0.148 OA 
ENDROOT
BRANCH   3   6
HETATM    6  C   UNL     1     -11.152  10.510  69.650  1.00  0.00    -0.283 C  
BRANCH   6   7
HETATM    7  C   UNL     1     -12.278  11.166  70.443  1.00  0.00    -0.457 C  
BRANCH   7   8
HETATM    8  C   UNL     1     -12.180  12.694  70.533  1.00  0.00    -0.383 C  
BRANCH   8   9
HETATM    9  C   UNL     1     -11.873  13.380  69.206  1.00  0.00    -0.334 C  
BRANCH   9  10
HETATM   10  O   UNL     1     -10.926  14.416  69.422  1.00  0.00    -0.251 OA 
HETATM   11  S   UNL     1     -10.090  14.938  68.125  1.00  0.00    -0.225 S  
HETATM   12  O   UNL     1     -11.000  15.641  67.248  1.00  0.00    -0.311 OA 
HETATM   13  O   UNL     1      -9.244  13.861  67.656  1.00  0.00    -0.185 OA 
HETATM   14  C   UNL     1      -9.083  16.129  68.973  1.00  0.00    -0.250 C  
ENDBRANCH   9  10
ENDBRANCH   8   9
ENDBRANCH   7   8
ENDBRANCH   6   7
ENDBRANCH   3   6
TORSDOF 5
ENDMDL
MODEL      191
REMARK 921   NORMALIZED FREE ENERGY PREDICTED BY IDOCK:   -2.82 KCAL/MOL
REMARK 922        TOTAL FREE ENERGY PREDICTED BY IDOCK:   -3.83 KCAL/MOL
REMARK 923 INTER-LIGAND FREE ENERGY PREDICTED BY IDOCK:   -3.38 KCAL/MOL
REMARK 924 INTRA-LIGAND FREE ENERGY PREDICTED BY IDOCK:   -0.45 KCAL/MOL
REMARK 927      BINDING AFFINITY PREDICTED BY RF-SCORE:    0.00 PKD
ROOT
HETATM    1  C   UNL     1     -10.499  10.928  69.148  1.00  0.00    -0.221 C  
HETATM    2  S   UNL     1      -9.545   9.476  69.518  1.00  0.00    -0.201 S  
HETATM    3  O   UNL     1     -10.606   8.373  68.957  1.00  0.00    -0.218 OA 
HETATM    4  O   UNL     1      -8.377   9.460  68.666  1.00  0.00    -0.114 OA 
HETATM    5  O   UNL     1      -9.452   9.336  70.956  1.00  0.00    -0.266 OA 
ENDROOT
BRANCH   3   6
HETATM    6  C   UNL     1     -10.244   7.006  69.105  1.00  0.00    -0.187 C  
BRANCH   6   7
HETATM    7  C   UNL     1     -11.393   6.231  69.741  1.00  0.00    -0.506 C  
BRANCH   7   8
HETATM    8  C   UNL     1     -12.148   7.002  70.831  1.00  0.00    -0.403 C  
BRANCH   8   9
HETATM    9  C   UNL     1     -11.597   6.796  72.237  1.00  0.00    -0.273 C  
BRANCH   9  10
HETATM   10  O   UNL     1     -11.721   5.427  72.593  1.00  0.00    -0.271 OA 
HETATM   11  S   UNL     1     -10.398   4.696  73.201  1.00  0.00    -0.195 S  
HETATM   12  O   UNL     1     -10.133   5.248  74.511  1.00  0.00    -0.214 OA 
HETATM   13  O   UNL     1      -9.385   4.641  72.168  1.00  0.00    -0.131 OA 
HETATM   14  C   UNL     1     -11.105   3.080  73.396  1.00  0.00    -0.181 C  
ENDBRANCH   9  10
ENDBRANCH   8   9
ENDBRANCH   7   8
ENDBRANCH   6   7
ENDBRANCH   3   6
TORSDOF 5
ENDMDL
MODEL      192
REMARK 921   NORMALIZED FREE ENERGY PREDICTED BY IDOCK:   -2.82 KCAL/MOL
REMARK 922        TOTAL FREE ENERGY PREDICTED BY IDOCK:   -3.83 KCAL/MOL
REMARK 923 INTER-LIGAND FREE ENERGY PREDICTED BY IDOCK:   -3.43 KCAL/MOL
REMARK 924 INTRA-LIGAND FREE ENERGY PREDICTED BY IDOCK:   -0.40 KCAL/MOL
REMARK 927      BINDING AFFINITY PREDICTED BY RF-SCORE:    0.00 PKD
ROOT
HETATM    1  C   UNL     1     -12.560  12.346  71.028  1.00  0.00    -0.254 C  
HETATM    2  S   UNL     1     -12.470  10.753  70.245  1.00  0.00    -0.274 S  
HETATM    3  O   UNL     1     -11.023  10.301  70.844  1.00  0.00    -0.281 OA 
HETATM    4  O   UNL     1     -13.488   9.900  70.816  1.00  0.00    -0.296 OA 
HETATM    5  O   UNL     1     -12.337  10.946  68.817  1.00  0.00    -0.495 OA 
ENDROOT
BRANCH   3   6
HETATM    6  C   UNL     1     -10.521   9.042  70.416  1.00  0.00    -0.213 C  
BRANCH   6   7
HETATM    7  C   UNL     1      -9.014   9.131  70.199  1.00  0.00    -0.219 C  
BRANCH   7   8
HETATM    8  C   UNL     1      -8.545  10.440  69.552  1.00  0.00    -0.109 C  
BRANCH   8   9
HETATM    9  C   UNL     1      -9.050  10.650  68.129  1.00  0.00    -0.148 C  
BRANCH   9  10
HETATM   10  O   UNL     1      -8.496   9.652  67.284  1.00  0.00    -0.129 OA 
HETATM   11  S   UNL     1      -9.483   8.995  66.167  1.00  0.00    -0.267 S  
HETATM   12  O   UNL     1      -9.777  10.000  65.169  1.00  0.00    -0.275 OA 
HETATM   13  O   UNL     1     -10.525   8.256  66.848  1.00  0.00    -0.319 OA 
HETATM   14  C   UNL     1      -8.316   7.843  65.487  1.00  0.00    -0.147 C  
ENDBRANCH   9  10
ENDBRANCH   8   9
ENDBRANCH   7   8
ENDBRANCH   6   7
ENDBRANCH   3   6
TORSDOF 5
ENDMDL
MODEL      193
REMARK 921   NORMALIZED FREE ENERGY PREDICTED BY IDOCK:   -2.81 KCAL/MOL
REMARK 922        TOTAL FREE ENERGY PREDICTED BY IDOCK:   -3.82 KCAL/MOL
REMARK 923 INTER-LIGAND FREE ENERGY PREDICTED BY IDOCK:   -3.52 KCAL/MOL
REMARK 924 INTRA-LIGAND FREE ENERGY PREDICTED BY IDOCK:   -0.30 KCAL/MOL
REMARK 927      BINDING AFFINITY PREDICTED BY RF-SCORE:    0.00 PKD
ROOT
HETATM    1  C   UNL     1      -5.349   9.016  66.240  1.00  0.00    -0.037 C  
HETATM    2  S   UNL     1      -6.909   8.977  65.390  1.00  0.00    -0.073 S  
HETATM    3  O   UNL     1      -7.853   8.684  66.686  1.00  0.00    -0.095 OA 
HETATM    4  O   UNL     1      -7.202  10.306  64.902  1.00  0.00    -0.136 OA 
HETATM    5  O   UNL     1      -6.938   7.815  64.527  1.00  0.00    -0.057 OA 
ENDROOT
BRANCH   3   6
HETATM    6  C   UNL     1      -9.244   8.527  66.439  1.00  0.00    -0.199 C  
BRANCH   6   7
HETATM    7  C   UNL     1     -10.041   9.450  67.354  1.00  0.00    -0.271 C  
BRANCH   7   8
HETATM    8  C   UNL     1      -9.968  10.934  66.973  1.00  0.00    -0.227 C  
BRANCH   8   9
HETATM    9  C   UNL     1     -10.991  11.362  65.927  1.00  0.00    -0.207 C  
BRANCH   9  10
HETATM   10  O   UNL     1     -10.714  12.692  65.516  1.00  0.00    -0.265 OA 
HETATM   11  S   UNL     1     -11.916  13.781  65.670  1.00  0.00    -0.414 S  
HETATM   12  O   UNL     1     -12.138  14.020  67.079  1.00  0.00    -0.427 OA 
HETATM   13  O   UNL     1     -12.989  13.414  64.771  1.00  0.00    -0.696 OA 
HETATM   14  C   UNL     1     -11.047  15.171  64.988  1.00  0.00    -0.419 C  
ENDBRANCH   9  10
ENDBRANCH   8   9
ENDBRANCH   7   8
ENDBRANCH   6   7
ENDBRANCH   3   6
TORSDOF 5
ENDMDL
MODEL      194
REMARK 921   NORMALIZED FREE ENERGY PREDICTED BY IDOCK:   -2.80 KCAL/MOL
REMARK 922        TOTAL FREE ENERGY PREDICTED BY IDOCK:   -3.81 KCAL/MOL
REMARK 923 INTER-LIGAND FREE ENERGY PREDICTED BY IDOCK:   -3.66 KCAL/MOL
REMARK 924 INTRA-LIGAND FREE ENERGY PREDICTED BY IDOCK:   -0.15 KCAL/MOL
REMARK 927      BINDING AFFINITY PREDICTED BY RF-SCORE:    0.00 PKD
ROOT
HETATM    1  C   UNL     1      -8.125  19.390  66.474  1.00  0.00    -0.303 C  
HETATM    2  S   UNL     1      -7.640  18.800  68.078  1.00  0.00    -0.268 S  
HETATM    3  O   UNL     1      -8.161  17.265  67.910  1.00  0.00    -0.201 OA 
HETATM    4  O   UNL     1      -6.195  18.787  68.147  1.00  0.00    -0.201 OA 
HETATM    5  O   UNL     1      -8.453  19.456  69.079  1.00  0.00    -0.345 OA 
ENDROOT
BRANCH   3   6
HETATM    6  C   UNL     1      -8.002  16.411  69.035  1.00  0.00    -0.227 C  
BRANCH   6   7
HETATM    7  C   UNL     1      -8.190  14.957  68.613  1.00  0.00    -0.157 C  
BRANCH   7   8
HETATM    8  C   UNL     1      -9.378  14.721  67.673  1.00  0.00    -0.195 C  
BRANCH   8   9
HETATM    9  C   UNL     1      -9.679  13.251  67.403  1.00  0.00    -0.221 C  
BRANCH   9  10
HETATM   10  O   UNL     1     -10.255  13.119  66.112  1.00  0.00    -0.278 OA 
HETATM   11  S   UNL     1     -11.069  11.743  65.800  1.00  0.00    -0.264 S  
HETATM   12  O   UNL     1     -12.281  11.741  66.590  1.00  0.00    -0.368 OA 
HETATM   13  O   UNL     1     -10.134  10.638  65.819  1.00  0.00    -0.245 OA 
HETATM   14  C   UNL     1     -11.490  12.109  64.115  1.00  0.00    -0.387 C  
ENDBRANCH   9  10
ENDBRANCH   8   9
ENDBRANCH   7   8
ENDBRANCH   6   7
ENDBRANCH   3   6
TORSDOF 5
ENDMDL
MODEL      195
REMARK 921   NORMALIZED FREE ENERGY PREDICTED BY IDOCK:   -2.79 KCAL/MOL
REMARK 922        TOTAL FREE ENERGY PREDICTED BY IDOCK:   -3.79 KCAL/MOL
REMARK 923 INTER-LIGAND FREE ENERGY PREDICTED BY IDOCK:   -3.62 KCAL/MOL
REMARK 924 INTRA-LIGAND FREE ENERGY PREDICTED BY IDOCK:   -0.17 KCAL/MOL
REMARK 927      BINDING AFFINITY PREDICTED BY RF-SCORE:    0.00 PKD
ROOT
HETATM    1  C   UNL     1     -10.722   6.173  71.925  1.00  0.00    -0.232 C  
HETATM    2  S   UNL     1     -10.244   6.610  70.271  1.00  0.00    -0.191 S  
HETATM    3  O   UNL     1     -10.026   8.205  70.525  1.00  0.00    -0.185 OA 
HETATM    4  O   UNL     1      -8.957   6.013  69.989  1.00  0.00    -0.142 OA 
HETATM    5  O   UNL     1     -11.383   6.434  69.396  1.00  0.00    -0.394 OA 
ENDROOT
BRANCH   3   6
HETATM    6  C   UNL     1      -9.662   8.987  69.395  1.00  0.00    -0.169 C  
BRANCH   6   7
HETATM    7  C   UNL     1     -10.910   9.586  68.755  1.00  0.00    -0.173 C  
BRANCH   7   8
HETATM    8  C   UNL     1     -10.769   9.891  67.258  1.00  0.00    -0.304 C  
BRANCH   8   9
HETATM    9  C   UNL     1     -11.174  11.308  66.869  1.00  0.00    -0.230 C  
BRANCH   9  10
HETATM   10  O   UNL     1     -11.671  11.985  68.014  1.00  0.00    -0.337 OA 
HETATM   11  S   UNL     1     -11.256  13.550  68.189  1.00  0.00    -0.290 S  
HETATM   12  O   UNL     1     -11.927  14.318  67.163  1.00  0.00    -0.405 OA 
HETATM   13  O   UNL     1      -9.826  13.629  68.400  1.00  0.00    -0.225 OA 
HETATM   14  C   UNL     1     -12.079  13.828  69.737  1.00  0.00    -0.340 C  
ENDBRANCH   9  10
ENDBRANCH   8   9
ENDBRANCH   7   8
ENDBRANCH   6   7
ENDBRANCH   3   6
TORSDOF 5
ENDMDL
MODEL      196
REMARK 921   NORMALIZED FREE ENERGY PREDICTED BY IDOCK:   -2.77 KCAL/MOL
REMARK 922        TOTAL FREE ENERGY PREDICTED BY IDOCK:   -3.77 KCAL/MOL
REMARK 923 INTER-LIGAND FREE ENERGY PREDICTED BY IDOCK:   -3.71 KCAL/MOL
REMARK 924 INTRA-LIGAND FREE ENERGY PREDICTED BY IDOCK:   -0.06 KCAL/MOL
REMARK 927      BINDING AFFINITY PREDICTED BY RF-SCORE:    0.00 PKD
ROOT
HETATM    1  C   UNL     1      -6.597   5.397  65.835  1.00  0.00    -0.045 C  
HETATM    2  S   UNL     1      -8.119   6.044  65.184  1.00  0.00    -0.135 S  
HETATM    3  O   UNL     1      -8.224   7.356  66.146  1.00  0.00    -0.116 OA 
HETATM    4  O   UNL     1      -7.888   6.490  63.828  1.00  0.00    -0.110 OA 
HETATM    5  O   UNL     1      -9.193   5.136  65.525  1.00  0.00    -0.158 OA 
ENDROOT
BRANCH   3   6
HETATM    6  C   UNL     1      -9.375   8.175  65.984  1.00  0.00    -0.117 C  
BRANCH   6   7
HETATM    7  C   UNL     1      -9.101   9.255  64.943  1.00  0.00    -0.227 C  
BRANCH   7   8
HETATM    8  C   UNL     1      -9.844  10.574  65.190  1.00  0.00    -0.359 C  
BRANCH   8   9
HETATM    9  C   UNL     1     -10.202  11.337  63.919  1.00  0.00    -0.365 C  
BRANCH   9  10
HETATM   10  O   UNL     1     -10.380  12.710  64.232  1.00  0.00    -0.354 OA 
HETATM   11  S   UNL     1     -11.902  13.291  64.178  1.00  0.00    -0.464 S  
HETATM   12  O   UNL     1     -12.650  12.710  65.271  1.00  0.00    -0.630 OA 
HETATM   13  O   UNL     1     -12.368  13.238  62.809  1.00  0.00    -0.248 OA 
HETATM   14  C   UNL     1     -11.513  14.974  64.586  1.00  0.00    -0.381 C  
ENDBRANCH   9  10
ENDBRANCH   8   9
ENDBRANCH   7   8
ENDBRANCH   6   7
ENDBRANCH   3   6
TORSDOF 5
ENDMDL
MODEL      197
REMARK 921   NORMALIZED FREE ENERGY PREDICTED BY IDOCK:   -2.76 KCAL/MOL
REMARK 922        TOTAL FREE ENERGY PREDICTED BY IDOCK:   -3.76 KCAL/MOL
REMARK 923 INTER-LIGAND FREE ENERGY PREDICTED BY IDOCK:   -3.36 KCAL/MOL
REMARK 924 INTRA-LIGAND FREE ENERGY PREDICTED BY IDOCK:   -0.40 KCAL/MOL
REMARK 927      BINDING AFFINITY PREDICTED BY RF-SCORE:    0.00 PKD
ROOT
HETATM    1  C   UNL     1     -11.747  11.910  64.045  1.00  0.00    -0.378 C  
HETATM    2  S   UNL     1     -11.059  12.595  65.534  1.00  0.00    -0.305 S  
HETATM    3  O   UNL     1     -11.853  11.646  66.594  1.00  0.00    -0.533 OA 
HETATM    4  O   UNL     1      -9.653  12.263  65.588  1.00  0.00    -0.224 OA 
HETATM    5  O   UNL     1     -11.537  13.953  65.683  1.00  0.00    -0.319 OA 
ENDROOT
BRANCH   3   6
HETATM    6  C   UNL     1     -11.621  11.898  67.974  1.00  0.00    -0.332 C  
BRANCH   6   7
HETATM    7  C   UNL     1     -10.931  10.696  68.611  1.00  0.00    -0.291 C  
BRANCH   7   8
HETATM    8  C   UNL     1      -9.445  10.915  68.926  1.00  0.00    -0.182 C  
BRANCH   8   9
HETATM    9  C   UNL     1      -8.497  10.067  68.085  1.00  0.00    -0.114 C  
BRANCH   9  10
HETATM   10  O   UNL     1      -8.672   8.698  68.418  1.00  0.00    -0.140 OA 
HETATM   11  S   UNL     1      -8.752   7.639  67.183  1.00  0.00    -0.127 S  
HETATM   12  O   UNL     1      -7.446   7.557  66.567  1.00  0.00    -0.081 OA 
HETATM   13  O   UNL     1      -9.950   7.910  66.417  1.00  0.00    -0.217 OA 
HETATM   14  C   UNL     1      -9.014   6.178  68.157  1.00  0.00    -0.114 C  
ENDBRANCH   9  10
ENDBRANCH   8   9
ENDBRANCH   7   8
ENDBRANCH   6   7
ENDBRANCH   3   6
TORSDOF 5
ENDMDL
MODEL      198
REMARK 921   NORMALIZED FREE ENERGY PREDICTED BY IDOCK:   -2.74 KCAL/MOL
REMARK 922        TOTAL FREE ENERGY PREDICTED BY IDOCK:   -3.73 KCAL/MOL
REMARK 923 INTER-LIGAND FREE ENERGY PREDICTED BY IDOCK:   -3.48 KCAL/MOL
REMARK 924 INTRA-LIGAND FREE ENERGY PREDICTED BY IDOCK:   -0.25 KCAL/MOL
REMARK 927      BINDING AFFINITY PREDICTED BY RF-SCORE:    0.00 PKD
ROOT
HETATM    1  C   UNL     1      -8.703   7.405  70.985  1.00  0.00    -0.139 C  
HETATM    2  S   UNL     1     -10.111   7.683  69.937  1.00  0.00    -0.202 S  
HETATM    3  O   UNL     1      -9.359   8.574  68.799  1.00  0.00    -0.143 OA 
HETATM    4  O   UNL     1     -10.502   6.422  69.346  1.00  0.00    -0.191 OA 
HETATM    5  O   UNL     1     -11.052   8.530  70.639  1.00  0.00    -0.247 OA 
ENDROOT
BRANCH   3   6
HETATM    6  C   UNL     1     -10.167   9.069  67.740  1.00  0.00    -0.230 C  
BRANCH   6   7
HETATM    7  C   UNL     1     -10.399  10.566  67.920  1.00  0.00    -0.226 C  
BRANCH   7   8
HETATM    8  C   UNL     1     -10.696  11.321  66.618  1.00  0.00    -0.321 C  
BRANCH   8   9
HETATM    9  C   UNL     1     -11.673  12.481  66.778  1.00  0.00    -0.384 C  
BRANCH   9  10
HETATM   10  O   UNL     1     -11.041  13.685  66.368  1.00  0.00    -0.299 OA 
HETATM   11  S   UNL     1     -10.668  14.760  67.534  1.00  0.00    -0.274 S  
HETATM   12  O   UNL     1      -9.602  14.208  68.340  1.00  0.00    -0.217 OA 
HETATM   13  O   UNL     1     -11.897  15.256  68.116  1.00  0.00    -0.330 OA 
HETATM   14  C   UNL     1      -9.989  16.012  66.474  1.00  0.00    -0.279 C  
ENDBRANCH   9  10
ENDBRANCH   8   9
ENDBRANCH   7   8
ENDBRANCH   6   7
ENDBRANCH   3   6
TORSDOF 5
ENDMDL
MODEL      199
REMARK 921   NORMALIZED FREE ENERGY PREDICTED BY IDOCK:   -2.74 KCAL/MOL
REMARK 922        TOTAL FREE ENERGY PREDICTED BY IDOCK:   -3.73 KCAL/MOL
REMARK 923 INTER-LIGAND FREE ENERGY PREDICTED BY IDOCK:   -3.50 KCAL/MOL
REMARK 924 INTRA-LIGAND FREE ENERGY PREDICTED BY IDOCK:   -0.23 KCAL/MOL
REMARK 927      BINDING AFFINITY PREDICTED BY RF-SCORE:    0.00 PKD
ROOT
HETATM    1  C   UNL     1     -10.694   3.557  63.413  1.00  0.00    -0.234 C  
HETATM    2  S   UNL     1      -9.549   3.989  64.702  1.00  0.00    -0.182 S  
HETATM    3  O   UNL     1     -10.614   4.712  65.702  1.00  0.00    -0.287 OA 
HETATM    4  O   UNL     1      -9.084   2.774  65.333  1.00  0.00    -0.144 OA 
HETATM    5  O   UNL     1      -8.638   4.993  64.196  1.00  0.00    -0.139 OA 
ENDROOT
BRANCH   3   6
HETATM    6  C   UNL     1     -10.088   5.272  66.898  1.00  0.00    -0.219 C  
BRANCH   6   7
HETATM    7  C   UNL     1     -11.086   6.260  67.491  1.00  0.00    -0.379 C  
BRANCH   7   8
HETATM    8  C   UNL     1     -10.766   6.697  68.927  1.00  0.00    -0.304 C  
BRANCH   8   9
HETATM    9  C   UNL     1     -10.507   8.192  69.082  1.00  0.00    -0.206 C  
BRANCH   9  10
HETATM   10  O   UNL     1     -10.383   8.782  67.796  1.00  0.00    -0.215 OA 
HETATM   11  S   UNL     1     -10.557  10.399  67.702  1.00  0.00    -0.277 S  
HETATM   12  O   UNL     1      -9.420  11.018  68.346  1.00  0.00    -0.168 OA 
HETATM   13  O   UNL     1     -11.920  10.738  68.051  1.00  0.00    -0.537 OA 
HETATM   14  C   UNL     1     -10.362  10.543  65.944  1.00  0.00    -0.206 C  
ENDBRANCH   9  10
ENDBRANCH   8   9
ENDBRANCH   7   8
ENDBRANCH   6   7
ENDBRANCH   3   6
TORSDOF 5
ENDMDL
MODEL      200
REMARK 921   NORMALIZED FREE ENERGY PREDICTED BY IDOCK:   -2.74 KCAL/MOL
REMARK 922        TOTAL FREE ENERGY PREDICTED BY IDOCK:   -3.73 KCAL/MOL
REMARK 923 INTER-LIGAND FREE ENERGY PREDICTED BY IDOCK:   -3.51 KCAL/MOL
REMARK 924 INTRA-LIGAND FREE ENERGY PREDICTED BY IDOCK:   -0.21 KCAL/MOL
REMARK 927      BINDING AFFINITY PREDICTED BY RF-SCORE:    0.00 PKD
ROOT
HETATM    1  C   UNL     1      -9.934  10.768  69.050  1.00  0.00    -0.199 C  
HETATM    2  S   UNL     1     -10.456  12.302  68.320  1.00  0.00    -0.231 S  
HETATM    3  O   UNL     1     -11.320  12.858  69.585  1.00  0.00    -0.201 OA 
HETATM    4  O   UNL     1      -9.298  13.150  68.149  1.00  0.00    -0.208 OA 
HETATM    5  O   UNL     1     -11.366  12.012  67.233  1.00  0.00    -0.289 OA 
ENDROOT
BRANCH   3   6
HETATM    6  C   UNL     1     -11.983  14.103  69.406  1.00  0.00    -0.337 C  
BRANCH   6   7
HETATM    7  C   UNL     1     -12.915  14.368  70.584  1.00  0.00    -0.348 C  
BRANCH   7   8
HETATM    8  C   UNL     1     -12.543  13.613  71.866  1.00  0.00    -0.252 C  
BRANCH   8   9
HETATM    9  C   UNL     1     -13.365  12.352  72.109  1.00  0.00    -0.403 C  
BRANCH   9  10
HETATM   10  O   UNL     1     -12.538  11.211  71.931  1.00  0.00    -0.266 OA 
HETATM   11  S   UNL     1     -13.274   9.820  71.509  1.00  0.00    -0.404 S  
HETATM   12  O   UNL     1     -13.766   9.957  70.156  1.00  0.00     0.352 OA 
HETATM   13  O   UNL     1     -14.125   9.398  72.600  1.00  0.00    -0.418 OA 
HETATM   14  C   UNL     1     -11.822   8.798  71.485  1.00  0.00    -0.311 C  
ENDBRANCH   9  10
ENDBRANCH   8   9
ENDBRANCH   7   8
ENDBRANCH   6   7
ENDBRANCH   3   6
TORSDOF 5
ENDMDL
MODEL      201
REMARK 921   NORMALIZED FREE ENERGY PREDICTED BY IDOCK:   -2.71 KCAL/MOL
REMARK 922        TOTAL FREE ENERGY PREDICTED BY IDOCK:   -3.69 KCAL/MOL
REMARK 923 INTER-LIGAND FREE ENERGY PREDICTED BY IDOCK:   -3.50 KCAL/MOL
REMARK 924 INTRA-LIGAND FREE ENERGY PREDICTED BY IDOCK:   -0.18 KCAL/MOL
REMARK 927      BINDING AFFINITY PREDICTED BY RF-SCORE:    0.00 PKD
ROOT
HETATM    1  C   UNL     1     -10.946  11.151  69.266  1.00  0.00    -0.247 C  
HETATM    2  S   UNL     1      -9.703  10.279  68.343  1.00  0.00    -0.161 S  
HETATM    3  O   UNL     1     -10.646   9.058  67.815  1.00  0.00    -0.246 OA 
HETATM    4  O   UNL     1      -9.322  11.086  67.205  1.00  0.00    -0.155 OA 
HETATM    5  O   UNL     1      -8.729   9.741  69.268  1.00  0.00    -0.140 OA 
ENDROOT
BRANCH   3   6
HETATM    6  C   UNL     1     -10.011   8.053  67.035  1.00  0.00    -0.254 C  
BRANCH   6   7
HETATM    7  C   UNL     1     -10.834   6.770  67.074  1.00  0.00    -0.453 C  
BRANCH   7   8
HETATM    8  C   UNL     1     -11.371   6.405  68.464  1.00  0.00    -0.187 C  
BRANCH   8   9
HETATM    9  C   UNL     1     -10.320   5.834  69.409  1.00  0.00    -0.262 C  
BRANCH   9  10
HETATM   10  O   UNL     1     -10.172   6.699  70.525  1.00  0.00    -0.186 OA 
HETATM   11  S   UNL     1     -11.162   6.449  71.794  1.00  0.00    -0.291 S  
HETATM   12  O   UNL     1     -10.789   5.202  72.424  1.00  0.00    -0.222 OA 
HETATM   13  O   UNL     1     -12.521   6.729  71.383  1.00  0.00    -0.359 OA 
HETATM   14  C   UNL     1     -10.580   7.790  72.800  1.00  0.00    -0.341 C  
ENDBRANCH   9  10
ENDBRANCH   8   9
ENDBRANCH   7   8
ENDBRANCH   6   7
ENDBRANCH   3   6
TORSDOF 5
ENDMDL
MODEL      202
REMARK 921   NORMALIZED FREE ENERGY PREDICTED BY IDOCK:   -2.70 KCAL/MOL
REMARK 922        TOTAL FREE ENERGY PREDICTED BY IDOCK:   -3.68 KCAL/MOL
REMARK 923 INTER-LIGAND FREE ENERGY PREDICTED BY IDOCK:   -3.40 KCAL/MOL
REMARK 924 INTRA-LIGAND FREE ENERGY PREDICTED BY IDOCK:   -0.28 KCAL/MOL
REMARK 927      BINDING AFFINITY PREDICTED BY RF-SCORE:    0.00 PKD
ROOT
HETATM    1  C   UNL     1     -10.917   6.204  70.173  1.00  0.00    -0.358 C  
HETATM    2  S   UNL     1      -9.424   7.053  69.720  1.00  0.00    -0.143 S  
HETATM    3  O   UNL     1      -9.576   6.908  68.104  1.00  0.00    -0.126 OA 
HETATM    4  O   UNL     1      -9.563   8.450  70.068  1.00  0.00    -0.166 OA 
HETATM    5  O   UNL     1      -8.291   6.261  70.149  1.00  0.00    -0.125 OA 
ENDROOT
BRANCH   3   6
HETATM    6  C   UNL     1      -8.520   7.438  67.313  1.00  0.00    -0.118 C  
BRANCH   6   7
HETATM    7  C   UNL     1      -9.085   8.051  66.036  1.00  0.00    -0.193 C  
BRANCH   7   8
HETATM    8  C   UNL     1      -8.708   9.522  65.821  1.00  0.00    -0.170 C  
BRANCH   8   9
HETATM    9  C   UNL     1      -9.903  10.456  65.661  1.00  0.00    -0.259 C  
BRANCH   9  10
HETATM   10  O   UNL     1     -10.617  10.517  66.886  1.00  0.00    -0.248 OA 
HETATM   11  S   UNL     1     -11.185  11.975  67.342  1.00  0.00    -0.329 S  
HETATM   12  O   UNL     1     -12.250  12.352  66.439  1.00  0.00    -0.604 OA 
HETATM   13  O   UNL     1     -10.060  12.844  67.614  1.00  0.00    -0.214 OA 
HETATM   14  C   UNL     1     -11.901  11.464  68.884  1.00  0.00    -0.347 C  
ENDBRANCH   9  10
ENDBRANCH   8   9
ENDBRANCH   7   8
ENDBRANCH   6   7
ENDBRANCH   3   6
TORSDOF 5
ENDMDL
MODEL      203
REMARK 921   NORMALIZED FREE ENERGY PREDICTED BY IDOCK:   -2.69 KCAL/MOL
REMARK 922        TOTAL FREE ENERGY PREDICTED BY IDOCK:   -3.67 KCAL/MOL
REMARK 923 INTER-LIGAND FREE ENERGY PREDICTED BY IDOCK:   -3.40 KCAL/MOL
REMARK 924 INTRA-LIGAND FREE ENERGY PREDICTED BY IDOCK:   -0.27 KCAL/MOL
REMARK 927      BINDING AFFINITY PREDICTED BY RF-SCORE:    0.00 PKD
ROOT
HETATM    1  C   UNL     1      -7.763  20.889  66.973  1.00  0.00    -0.148 C  
HETATM    2  S   UNL     1      -8.880  19.567  67.374  1.00  0.00    -0.318 S  
HETATM    3  O   UNL     1      -7.921  18.790  68.439  1.00  0.00    -0.311 OA 
HETATM    4  O   UNL     1     -10.008  20.118  68.093  1.00  0.00    -0.392 OA 
HETATM    5  O   UNL     1      -9.046  18.728  66.206  1.00  0.00    -0.374 OA 
ENDROOT
BRANCH   3   6
HETATM    6  C   UNL     1      -8.433  17.589  69.000  1.00  0.00    -0.037 C  
BRANCH   6   7
HETATM    7  C   UNL     1      -7.624  16.397  68.500  1.00  0.00    -0.188 C  
BRANCH   7   8
HETATM    8  C   UNL     1      -8.078  15.044  69.063  1.00  0.00    -0.178 C  
BRANCH   8   9
HETATM    9  C   UNL     1      -7.885  13.873  68.106  1.00  0.00    -0.147 C  
BRANCH   9  10
HETATM   10  O   UNL     1      -8.562  14.147  66.888  1.00  0.00    -0.204 OA 
HETATM   11  S   UNL     1      -9.822  13.186  66.508  1.00  0.00    -0.268 S  
HETATM   12  O   UNL     1     -10.899  13.459  67.433  1.00  0.00    -0.263 OA 
HETATM   13  O   UNL     1      -9.327  11.846  66.273  1.00  0.00    -0.221 OA 
HETATM   14  C   UNL     1     -10.210  13.935  64.945  1.00  0.00    -0.351 C  
ENDBRANCH   9  10
ENDBRANCH   8   9
ENDBRANCH   7   8
ENDBRANCH   6   7
ENDBRANCH   3   6
TORSDOF 5
ENDMDL
MODEL      204
REMARK 921   NORMALIZED FREE ENERGY PREDICTED BY IDOCK:   -2.69 KCAL/MOL
REMARK 922        TOTAL FREE ENERGY PREDICTED BY IDOCK:   -3.67 KCAL/MOL
REMARK 923 INTER-LIGAND FREE ENERGY PREDICTED BY IDOCK:   -3.41 KCAL/MOL
REMARK 924 INTRA-LIGAND FREE ENERGY PREDICTED BY IDOCK:   -0.26 KCAL/MOL
REMARK 927      BINDING AFFINITY PREDICTED BY RF-SCORE:    0.00 PKD
ROOT
HETATM    1  C   UNL     1      -7.128  13.363  67.975  1.00  0.00    -0.125 C  
HETATM    2  S   UNL     1      -7.672  11.692  68.241  1.00  0.00    -0.135 S  
HETATM    3  O   UNL     1      -9.276  11.975  68.171  1.00  0.00    -0.185 OA 
HETATM    4  O   UNL     1      -7.299  10.897  67.092  1.00  0.00    -0.095 OA 
HETATM    5  O   UNL     1      -7.331  11.303  69.592  1.00  0.00    -0.051 OA 
ENDROOT
BRANCH   3   6
HETATM    6  C   UNL     1     -10.130  10.859  68.388  1.00  0.00    -0.183 C  
BRANCH   6   7
HETATM    7  C   UNL     1     -11.531  11.170  67.871  1.00  0.00    -0.359 C  
BRANCH   7   8
HETATM    8  C   UNL     1     -11.975  12.623  68.085  1.00  0.00    -0.274 C  
BRANCH   8   9
HETATM    9  C   UNL     1     -12.311  13.369  66.798  1.00  0.00    -0.231 C  
BRANCH   9  10
HETATM   10  O   UNL     1     -11.562  14.575  66.746  1.00  0.00    -0.357 OA 
HETATM   11  S   UNL     1     -11.016  15.046  65.285  1.00  0.00    -0.405 S  
HETATM   12  O   UNL     1     -12.150  15.448  64.482  1.00  0.00    -0.328 OA 
HETATM   13  O   UNL     1     -10.046  14.078  64.820  1.00  0.00    -0.375 OA 
HETATM   14  C   UNL     1     -10.158  16.502  65.827  1.00  0.00    -0.303 C  
ENDBRANCH   9  10
ENDBRANCH   8   9
ENDBRANCH   7   8
ENDBRANCH   6   7
ENDBRANCH   3   6
TORSDOF 5
ENDMDL
MODEL      205
REMARK 921   NORMALIZED FREE ENERGY PREDICTED BY IDOCK:   -2.68 KCAL/MOL
REMARK 922        TOTAL FREE ENERGY PREDICTED BY IDOCK:   -3.66 KCAL/MOL
REMARK 923 INTER-LIGAND FREE ENERGY PREDICTED BY IDOCK:   -3.36 KCAL/MOL
REMARK 924 INTRA-LIGAND FREE ENERGY PREDICTED BY IDOCK:   -0.29 KCAL/MOL
REMARK 927      BINDING AFFINITY PREDICTED BY RF-SCORE:    0.00 PKD
ROOT
HETATM    1  C   UNL     1      -8.002   9.552  64.288  1.00  0.00    -0.136 C  
HETATM    2  S   UNL     1      -9.145  10.090  65.538  1.00  0.00    -0.203 S  
HETATM    3  O   UNL     1      -9.436   8.631  66.204  1.00  0.00    -0.223 OA 
HETATM    4  O   UNL     1      -8.429  10.897  66.502  1.00  0.00    -0.147 OA 
HETATM    5  O   UNL     1     -10.355  10.552  64.892  1.00  0.00    -0.328 OA 
ENDROOT
BRANCH   3   6
HETATM    6  C   UNL     1     -10.379   8.593  67.267  1.00  0.00    -0.296 C  
BRANCH   6   7
HETATM    7  C   UNL     1     -10.342   7.226  67.944  1.00  0.00    -0.253 C  
BRANCH   7   8
HETATM    8  C   UNL     1      -9.079   6.967  68.775  1.00  0.00    -0.133 C  
BRANCH   8   9
HETATM    9  C   UNL     1      -9.285   7.091  70.280  1.00  0.00    -0.156 C  
BRANCH   9  10
HETATM   10  O   UNL     1     -10.657   7.341  70.546  1.00  0.00    -0.215 OA 
HETATM   11  S   UNL     1     -11.001   8.473  71.666  1.00  0.00    -0.318 S  
HETATM   12  O   UNL     1     -10.635   9.767  71.133  1.00  0.00    -0.297 OA 
HETATM   13  O   UNL     1     -10.532   8.008  72.953  1.00  0.00    -0.329 OA 
HETATM   14  C   UNL     1     -12.769   8.314  71.608  1.00  0.00    -0.327 C  
ENDBRANCH   9  10
ENDBRANCH   8   9
ENDBRANCH   7   8
ENDBRANCH   6   7
ENDBRANCH   3   6
TORSDOF 5
ENDMDL
MODEL      206
REMARK 921   NORMALIZED FREE ENERGY PREDICTED BY IDOCK:   -2.67 KCAL/MOL
REMARK 922        TOTAL FREE ENERGY PREDICTED BY IDOCK:   -3.64 KCAL/MOL
REMARK 923 INTER-LIGAND FREE ENERGY PREDICTED BY IDOCK:   -3.28 KCAL/MOL
REMARK 924 INTRA-LIGAND FREE ENERGY PREDICTED BY IDOCK:   -0.36 KCAL/MOL
REMARK 927      BINDING AFFINITY PREDICTED BY RF-SCORE:    0.00 PKD
ROOT
HETATM    1  C   UNL     1      -6.216  13.889  69.847  1.00  0.00    -0.136 C  
HETATM    2  S   UNL     1      -7.506  13.852  68.625  1.00  0.00    -0.114 S  
HETATM    3  O   UNL     1      -8.413  15.061  69.233  1.00  0.00    -0.200 OA 
HETATM    4  O   UNL     1      -6.956  14.285  67.360  1.00  0.00    -0.183 OA 
HETATM    5  O   UNL     1      -8.239  12.612  68.763  1.00  0.00    -0.032 OA 
ENDROOT
BRANCH   3   6
HETATM    6  C   UNL     1      -9.627  15.352  68.553  1.00  0.00    -0.201 C  
BRANCH   6   7
HETATM    7  C   UNL     1     -10.816  15.031  69.454  1.00  0.00    -0.265 C  
BRANCH   7   8
HETATM    8  C   UNL     1     -11.735  13.926  68.917  1.00  0.00    -0.373 C  
BRANCH   8   9
HETATM    9  C   UNL     1     -12.587  13.249  69.984  1.00  0.00     0.010 C  
BRANCH   9  10
HETATM   10  O   UNL     1     -12.117  13.629  71.269  1.00  0.00    -0.262 OA 
HETATM   11  S   UNL     1     -13.219  14.206  72.321  1.00  0.00    -0.483 S  
HETATM   12  O   UNL     1     -14.091  13.120  72.710  1.00  0.00    -0.641 OA 
HETATM   13  O   UNL     1     -13.730  15.461  71.813  1.00  0.00    -0.450 OA 
HETATM   14  C   UNL     1     -12.099  14.542  73.657  1.00  0.00     0.045 C  
ENDBRANCH   9  10
ENDBRANCH   8   9
ENDBRANCH   7   8
ENDBRANCH   6   7
ENDBRANCH   3   6
TORSDOF 5
ENDMDL
MODEL      207
REMARK 921   NORMALIZED FREE ENERGY PREDICTED BY IDOCK:   -2.66 KCAL/MOL
REMARK 922        TOTAL FREE ENERGY PREDICTED BY IDOCK:   -3.63 KCAL/MOL
REMARK 923 INTER-LIGAND FREE ENERGY PREDICTED BY IDOCK:   -3.42 KCAL/MOL
REMARK 924 INTRA-LIGAND FREE ENERGY PREDICTED BY IDOCK:   -0.21 KCAL/MOL
REMARK 927      BINDING AFFINITY PREDICTED BY RF-SCORE:    0.00 PKD
ROOT
HETATM    1  C   UNL     1      -6.211  15.883  68.837  1.00  0.00    -0.120 C  
HETATM    2  S   UNL     1      -6.488  17.064  67.539  1.00  0.00    -0.156 S  
HETATM    3  O   UNL     1      -8.054  16.711  67.258  1.00  0.00    -0.157 OA 
HETATM    4  O   UNL     1      -6.414  18.394  68.101  1.00  0.00    -0.195 OA 
HETATM    5  O   UNL     1      -5.713  16.672  66.381  1.00  0.00    -0.302 OA 
ENDROOT
BRANCH   3   6
HETATM    6  C   UNL     1      -8.692  17.430  66.210  1.00  0.00    -0.207 C  
BRANCH   6   7
HETATM    7  C   UNL     1      -9.929  16.671  65.739  1.00  0.00    -0.271 C  
BRANCH   7   8
HETATM    8  C   UNL     1     -10.005  15.220  66.231  1.00  0.00    -0.304 C  
BRANCH   8   9
HETATM    9  C   UNL     1     -11.208  14.925  67.121  1.00  0.00    -0.343 C  
BRANCH   9  10
HETATM   10  O   UNL     1     -11.448  13.525  67.135  1.00  0.00    -0.307 OA 
HETATM   11  S   UNL     1     -10.882  12.689  68.414  1.00  0.00    -0.254 S  
HETATM   12  O   UNL     1     -11.651  13.063  69.580  1.00  0.00    -0.283 OA 
HETATM   13  O   UNL     1      -9.436  12.739  68.395  1.00  0.00    -0.214 OA 
HETATM   14  C   UNL     1     -11.407  11.080  67.878  1.00  0.00    -0.311 C  
ENDBRANCH   9  10
ENDBRANCH   8   9
ENDBRANCH   7   8
ENDBRANCH   6   7
ENDBRANCH   3   6
TORSDOF 5
ENDMDL
MODEL      208
REMARK 921   NORMALIZED FREE ENERGY PREDICTED BY IDOCK:   -2.66 KCAL/MOL
REMARK 922        TOTAL FREE ENERGY PREDICTED BY IDOCK:   -3.63 KCAL/MOL
REMARK 923 INTER-LIGAND FREE ENERGY PREDICTED BY IDOCK:   -3.42 KCAL/MOL
REMARK 924 INTRA-LIGAND FREE ENERGY PREDICTED BY IDOCK:   -0.21 KCAL/MOL
REMARK 927      BINDING AFFINITY PREDICTED BY RF-SCORE:    0.00 PKD
ROOT
HETATM    1  C   UNL     1     -12.180   7.612  71.414  1.00  0.00    -0.326 C  
HETATM    2  S   UNL     1     -11.316   9.146  71.173  1.00  0.00    -0.352 S  
HETATM    3  O   UNL     1     -10.934   8.933  69.604  1.00  0.00    -0.216 OA 
HETATM    4  O   UNL     1     -12.267  10.231  71.269  1.00  0.00    -0.346 OA 
HETATM    5  O   UNL     1     -10.096   9.119  71.952  1.00  0.00    -0.322 OA 
ENDROOT
BRANCH   3   6
HETATM    6  C   UNL     1     -10.162   9.957  68.990  1.00  0.00    -0.200 C  
BRANCH   6   7
HETATM    7  C   UNL     1     -10.793  10.357  67.661  1.00  0.00    -0.361 C  
BRANCH   7   8
HETATM    8  C   UNL     1     -10.309  11.705  67.112  1.00  0.00    -0.247 C  
BRANCH   8   9
HETATM    9  C   UNL     1      -9.344  11.591  65.937  1.00  0.00    -0.226 C  
BRANCH   9  10
HETATM   10  O   UNL     1      -8.964  10.233  65.773  1.00  0.00    -0.151 OA 
HETATM   11  S   UNL     1      -8.288   9.818  64.350  1.00  0.00    -0.183 S  
HETATM   12  O   UNL     1      -6.980  10.431  64.270  1.00  0.00    -0.090 OA 
HETATM   13  O   UNL     1      -9.278   9.974  63.306  1.00  0.00    -0.262 OA 
HETATM   14  C   UNL     1      -8.086   8.088  64.694  1.00  0.00    -0.140 C  
ENDBRANCH   9  10
ENDBRANCH   8   9
ENDBRANCH   7   8
ENDBRANCH   6   7
ENDBRANCH   3   6
TORSDOF 5
ENDMDL
MODEL      209
REMARK 921   NORMALIZED FREE ENERGY PREDICTED BY IDOCK:   -2.65 KCAL/MOL
REMARK 922        TOTAL FREE ENERGY PREDICTED BY IDOCK:   -3.61 KCAL/MOL
REMARK 923 INTER-LIGAND FREE ENERGY PREDICTED BY IDOCK:   -3.84 KCAL/MOL
REMARK 924 INTRA-LIGAND FREE ENERGY PREDICTED BY IDOCK:    0.23 KCAL/MOL
REMARK 927      BINDING AFFINITY PREDICTED BY RF-SCORE:    0.00 PKD
ROOT
HETATM    1  C   UNL     1     -11.982  15.641  72.630  1.00  0.00    -0.473 C  
HETATM    2  S   UNL     1     -11.900  15.807  70.863  1.00  0.00    -0.436 S  
HETATM    3  O   UNL     1     -11.247  14.349  70.540  1.00  0.00    -0.131 OA 
HETATM    4  O   UNL     1     -13.248  15.829  70.338  1.00  0.00    -0.365 OA 
HETATM    5  O   UNL     1     -10.929  16.829  70.537  1.00  0.00    -0.148 OA 
ENDROOT
BRANCH   3   6
HETATM    6  C   UNL     1     -10.957  14.067  69.177  1.00  0.00    -0.230 C  
BRANCH   6   7
HETATM    7  C   UNL     1     -12.018  13.133  68.605  1.00  0.00    -0.319 C  
BRANCH   7   8
HETATM    8  C   UNL     1     -11.645  12.504  67.256  1.00  0.00    -0.434 C  
BRANCH   8   9
HETATM    9  C   UNL     1     -10.431  13.138  66.586  1.00  0.00    -0.277 C  
BRANCH   9  10
HETATM   10  O   UNL     1      -9.964  12.282  65.554  1.00  0.00    -0.252 OA 
HETATM   11  S   UNL     1      -9.357  10.839  66.007  1.00  0.00    -0.195 S  
HETATM   12  O   UNL     1     -10.442  10.023  66.505  1.00  0.00    -0.215 OA 
HETATM   13  O   UNL     1      -8.148  11.065  66.770  1.00  0.00    -0.138 OA 
HETATM   14  C   UNL     1      -8.912  10.266  64.386  1.00  0.00    -0.227 C  
ENDBRANCH   9  10
ENDBRANCH   8   9
ENDBRANCH   7   8
ENDBRANCH   6   7
ENDBRANCH   3   6
TORSDOF 5
ENDMDL
MODEL      210
REMARK 921   NORMALIZED FREE ENERGY PREDICTED BY IDOCK:   -2.61 KCAL/MOL
REMARK 922        TOTAL FREE ENERGY PREDICTED BY IDOCK:   -3.57 KCAL/MOL
REMARK 923 INTER-LIGAND FREE ENERGY PREDICTED BY IDOCK:   -3.33 KCAL/MOL
REMARK 924 INTRA-LIGAND FREE ENERGY PREDICTED BY IDOCK:   -0.23 KCAL/MOL
REMARK 927      BINDING AFFINITY PREDICTED BY RF-SCORE:    0.00 PKD
ROOT
HETATM    1  C   UNL     1      -5.235  18.102  68.943  1.00  0.00    -0.175 C  
HETATM    2  S   UNL     1      -6.026  17.024  67.772  1.00  0.00    -0.141 S  
HETATM    3  O   UNL     1      -7.283  16.577  68.708  1.00  0.00    -0.172 OA 
HETATM    4  O   UNL     1      -6.532  17.823  66.678  1.00  0.00    -0.162 OA 
HETATM    5  O   UNL     1      -5.178  15.871  67.557  1.00  0.00    -0.204 OA 
ENDROOT
BRANCH   3   6
HETATM    6  C   UNL     1      -8.191  15.635  68.149  1.00  0.00    -0.144 C  
BRANCH   6   7
HETATM    7  C   UNL     1      -9.625  16.096  68.385  1.00  0.00    -0.209 C  
BRANCH   7   8
HETATM    8  C   UNL     1     -10.556  15.905  67.180  1.00  0.00    -0.316 C  
BRANCH   8   9
HETATM    9  C   UNL     1     -10.529  17.057  66.181  1.00  0.00    -0.271 C  
BRANCH   9  10
HETATM   10  O   UNL     1      -9.663  18.074  66.662  1.00  0.00    -0.303 OA 
HETATM   11  S   UNL     1     -10.200  19.609  66.573  1.00  0.00    -0.521 S  
HETATM   12  O   UNL     1     -11.283  19.769  67.517  1.00  0.00    -0.212 OA 
HETATM   13  O   UNL     1     -10.332  19.972  65.178  1.00  0.00    -0.168 OA 
HETATM   14  C   UNL     1      -8.750  20.392  67.233  1.00  0.00    -0.333 C  
ENDBRANCH   9  10
ENDBRANCH   8   9
ENDBRANCH   7   8
ENDBRANCH   6   7
ENDBRANCH   3   6
TORSDOF 5
ENDMDL
MODEL      211
REMARK 921   NORMALIZED FREE ENERGY PREDICTED BY IDOCK:   -2.61 KCAL/MOL
REMARK 922        TOTAL FREE ENERGY PREDICTED BY IDOCK:   -3.56 KCAL/MOL
REMARK 923 INTER-LIGAND FREE ENERGY PREDICTED BY IDOCK:   -3.22 KCAL/MOL
REMARK 924 INTRA-LIGAND FREE ENERGY PREDICTED BY IDOCK:   -0.35 KCAL/MOL
REMARK 927      BINDING AFFINITY PREDICTED BY RF-SCORE:    0.00 PKD
ROOT
HETATM    1  C   UNL     1      -8.021   8.798  71.399  1.00  0.00    -0.133 C  
HETATM    2  S   UNL     1      -9.132   9.087  70.042  1.00  0.00    -0.191 S  
HETATM    3  O   UNL     1     -10.275   9.902  70.869  1.00  0.00    -0.210 OA 
HETATM    4  O   UNL     1      -8.500  10.000  69.115  1.00  0.00    -0.132 OA 
HETATM    5  O   UNL     1      -9.686   7.819  69.617  1.00  0.00    -0.170 OA 
ENDROOT
BRANCH   3   6
HETATM    6  C   UNL     1     -11.426  10.305  70.139  1.00  0.00    -0.309 C  
BRANCH   6   7
HETATM    7  C   UNL     1     -11.556  11.824  70.174  1.00  0.00    -0.281 C  
BRANCH   7   8
HETATM    8  C   UNL     1     -11.263  12.514  68.836  1.00  0.00    -0.330 C  
BRANCH   8   9
HETATM    9  C   UNL     1     -11.943  11.865  67.635  1.00  0.00    -0.057 C  
BRANCH   9  10
HETATM   10  O   UNL     1     -10.954  11.315  66.778  1.00  0.00    -0.282 OA 
HETATM   11  S   UNL     1     -10.598  12.150  65.425  1.00  0.00    -0.283 S  
HETATM   12  O   UNL     1      -9.915  13.366  65.806  1.00  0.00    -0.285 OA 
HETATM   13  O   UNL     1     -11.762  12.155  64.565  1.00  0.00    -0.345 OA 
HETATM   14  C   UNL     1      -9.405  11.011  64.767  1.00  0.00    -0.209 C  
ENDBRANCH   9  10
ENDBRANCH   8   9
ENDBRANCH   7   8
ENDBRANCH   6   7
ENDBRANCH   3   6
TORSDOF 5
ENDMDL
MODEL      212
REMARK 921   NORMALIZED FREE ENERGY PREDICTED BY IDOCK:   -2.60 KCAL/MOL
REMARK 922        TOTAL FREE ENERGY PREDICTED BY IDOCK:   -3.55 KCAL/MOL
REMARK 923 INTER-LIGAND FREE ENERGY PREDICTED BY IDOCK:   -3.35 KCAL/MOL
REMARK 924 INTRA-LIGAND FREE ENERGY PREDICTED BY IDOCK:   -0.20 KCAL/MOL
REMARK 927      BINDING AFFINITY PREDICTED BY RF-SCORE:    0.00 PKD
ROOT
HETATM    1  C   UNL     1      -6.161   8.969  65.624  1.00  0.00    -0.056 C  
HETATM    2  S   UNL     1      -7.814   9.106  64.985  1.00  0.00    -0.118 S  
HETATM    3  O   UNL     1      -8.546   9.540  66.375  1.00  0.00    -0.130 OA 
HETATM    4  O   UNL     1      -7.865  10.228  64.074  1.00  0.00    -0.156 OA 
HETATM    5  O   UNL     1      -8.278   7.787  64.612  1.00  0.00    -0.140 OA 
ENDROOT
BRANCH   3   6
HETATM    6  C   UNL     1      -9.956   9.719  66.325  1.00  0.00    -0.262 C  
BRANCH   6   7
HETATM    7  C   UNL     1     -10.355  10.927  67.165  1.00  0.00    -0.262 C  
BRANCH   7   8
HETATM    8  C   UNL     1     -11.375  10.621  68.269  1.00  0.00    -0.357 C  
BRANCH   8   9
HETATM    9  C   UNL     1     -10.753  10.151  69.580  1.00  0.00    -0.249 C  
BRANCH   9  10
HETATM   10  O   UNL     1     -11.779   9.961  70.543  1.00  0.00    -0.272 OA 
HETATM   11  S   UNL     1     -11.681   8.631  71.479  1.00  0.00    -0.328 S  
HETATM   12  O   UNL     1     -10.555   8.784  72.373  1.00  0.00    -0.307 OA 
HETATM   13  O   UNL     1     -11.846   7.463  70.640  1.00  0.00    -0.286 OA 
HETATM   14  C   UNL     1     -13.177   8.893  72.397  1.00  0.00    -0.430 C  
ENDBRANCH   9  10
ENDBRANCH   8   9
ENDBRANCH   7   8
ENDBRANCH   6   7
ENDBRANCH   3   6
TORSDOF 5
ENDMDL
MODEL      213
REMARK 921   NORMALIZED FREE ENERGY PREDICTED BY IDOCK:   -2.60 KCAL/MOL
REMARK 922        TOTAL FREE ENERGY PREDICTED BY IDOCK:   -3.55 KCAL/MOL
REMARK 923 INTER-LIGAND FREE ENERGY PREDICTED BY IDOCK:   -3.22 KCAL/MOL
REMARK 924 INTRA-LIGAND FREE ENERGY PREDICTED BY IDOCK:   -0.34 KCAL/MOL
REMARK 927      BINDING AFFINITY PREDICTED BY RF-SCORE:    0.00 PKD
ROOT
HETATM    1  C   UNL     1      -6.530   5.120  66.857  1.00  0.00    -0.041 C  
HETATM    2  S   UNL     1      -7.985   5.815  66.111  1.00  0.00    -0.105 S  
HETATM    3  O   UNL     1      -8.727   6.285  67.484  1.00  0.00    -0.108 OA 
HETATM    4  O   UNL     1      -7.604   6.997  65.370  1.00  0.00    -0.085 OA 
HETATM    5  O   UNL     1      -8.756   4.746  65.514  1.00  0.00    -0.125 OA 
ENDROOT
BRANCH   3   6
HETATM    6  C   UNL     1     -10.010   6.880  67.345  1.00  0.00    -0.166 C  
BRANCH   6   7
HETATM    7  C   UNL     1     -10.957   6.323  68.403  1.00  0.00    -0.409 C  
BRANCH   7   8
HETATM    8  C   UNL     1     -10.267   5.504  69.501  1.00  0.00    -0.331 C  
BRANCH   8   9
HETATM    9  C   UNL     1     -10.499   6.032  70.913  1.00  0.00    -0.236 C  
BRANCH   9  10
HETATM   10  O   UNL     1     -10.728   7.432  70.858  1.00  0.00    -0.229 OA 
HETATM   11  S   UNL     1     -11.895   8.031  71.824  1.00  0.00    -0.315 S  
HETATM   12  O   UNL     1     -11.450   7.928  73.196  1.00  0.00    -0.323 OA 
HETATM   13  O   UNL     1     -13.172   7.508  71.386  1.00  0.00    -0.349 OA 
HETATM   14  C   UNL     1     -11.764   9.725  71.309  1.00  0.00    -0.394 C  
ENDBRANCH   9  10
ENDBRANCH   8   9
ENDBRANCH   7   8
ENDBRANCH   6   7
ENDBRANCH   3   6
TORSDOF 5
ENDMDL
MODEL      214
REMARK 921   NORMALIZED FREE ENERGY PREDICTED BY IDOCK:   -2.58 KCAL/MOL
REMARK 922        TOTAL FREE ENERGY PREDICTED BY IDOCK:   -3.53 KCAL/MOL
REMARK 923 INTER-LIGAND FREE ENERGY PREDICTED BY IDOCK:   -3.23 KCAL/MOL
REMARK 924 INTRA-LIGAND FREE ENERGY PREDICTED BY IDOCK:   -0.30 KCAL/MOL
REMARK 927      BINDING AFFINITY PREDICTED BY RF-SCORE:    0.00 PKD
ROOT
HETATM    1  C   UNL     1      -8.000   6.178  69.938  1.00  0.00    -0.114 C  
HETATM    2  S   UNL     1      -8.169   5.161  71.385  1.00  0.00    -0.117 S  
HETATM    3  O   UNL     1      -9.780   4.929  71.298  1.00  0.00    -0.159 OA 
HETATM    4  O   UNL     1      -7.512   3.896  71.140  1.00  0.00    -0.043 OA 
HETATM    5  O   UNL     1      -7.881   5.965  72.553  1.00  0.00    -0.101 OA 
ENDROOT
BRANCH   3   6
HETATM    6  C   UNL     1     -10.372   4.167  72.342  1.00  0.00    -0.147 C  
BRANCH   6   7
HETATM    7  C   UNL     1     -11.345   5.037  73.132  1.00  0.00    -0.397 C  
BRANCH   7   8
HETATM    8  C   UNL     1     -11.698   6.366  72.452  1.00  0.00    -0.286 C  
BRANCH   8   9
HETATM    9  C   UNL     1     -11.010   7.582  73.063  1.00  0.00    -0.390 C  
BRANCH   9  10
HETATM   10  O   UNL     1     -11.418   8.750  72.366  1.00  0.00    -0.350 OA 
HETATM   11  S   UNL     1     -10.600   9.126  71.008  1.00  0.00    -0.320 S  
HETATM   12  O   UNL     1     -10.915   8.139  69.999  1.00  0.00    -0.248 OA 
HETATM   13  O   UNL     1      -9.238   9.458  71.365  1.00  0.00    -0.277 OA 
HETATM   14  C   UNL     1     -11.474  10.625  70.629  1.00  0.00    -0.281 C  
ENDBRANCH   9  10
ENDBRANCH   8   9
ENDBRANCH   7   8
ENDBRANCH   6   7
ENDBRANCH   3   6
TORSDOF 5
ENDMDL
MODEL      215
REMARK 921   NORMALIZED FREE ENERGY PREDICTED BY IDOCK:   -2.58 KCAL/MOL
REMARK 922        TOTAL FREE ENERGY PREDICTED BY IDOCK:   -3.53 KCAL/MOL
REMARK 923 INTER-LIGAND FREE ENERGY PREDICTED BY IDOCK:   -3.29 KCAL/MOL
REMARK 924 INTRA-LIGAND FREE ENERGY PREDICTED BY IDOCK:   -0.24 KCAL/MOL
REMARK 927      BINDING AFFINITY PREDICTED BY RF-SCORE:    0.00 PKD
ROOT
HETATM    1  C   UNL     1     -10.074   4.504  71.463  1.00  0.00    -0.169 C  
HETATM    2  S   UNL     1     -10.669   5.541  72.778  1.00  0.00    -0.266 S  
HETATM    3  O   UNL     1     -10.701   6.943  71.948  1.00  0.00    -0.215 OA 
HETATM    4  O   UNL     1     -12.030   5.161  73.086  1.00  0.00    -0.206 OA 
HETATM    5  O   UNL     1      -9.644   5.632  73.796  1.00  0.00    -0.137 OA 
ENDROOT
BRANCH   3   6
HETATM    6  C   UNL     1     -11.096   8.103  72.670  1.00  0.00    -0.380 C  
BRANCH   6   7
HETATM    7  C   UNL     1     -12.155   8.867  71.883  1.00  0.00    -0.443 C  
BRANCH   7   8
HETATM    8  C   UNL     1     -11.604  10.025  71.041  1.00  0.00    -0.476 C  
BRANCH   8   9
HETATM    9  C   UNL     1     -10.853   9.584  69.789  1.00  0.00    -0.243 C  
BRANCH   9  10
HETATM   10  O   UNL     1      -9.544  10.134  69.811  1.00  0.00    -0.222 OA 
HETATM   11  S   UNL     1      -8.822  10.386  68.372  1.00  0.00    -0.142 S  
HETATM   12  O   UNL     1      -9.510  11.465  67.699  1.00  0.00    -0.158 OA 
HETATM   13  O   UNL     1      -8.592   9.104  67.740  1.00  0.00    -0.120 OA 
HETATM   14  C   UNL     1      -7.279  11.000  69.000  1.00  0.00    -0.111 C  
ENDBRANCH   9  10
ENDBRANCH   8   9
ENDBRANCH   7   8
ENDBRANCH   6   7
ENDBRANCH   3   6
TORSDOF 5
ENDMDL
MODEL      216
REMARK 921   NORMALIZED FREE ENERGY PREDICTED BY IDOCK:   -2.58 KCAL/MOL
REMARK 922        TOTAL FREE ENERGY PREDICTED BY IDOCK:   -3.52 KCAL/MOL
REMARK 923 INTER-LIGAND FREE ENERGY PREDICTED BY IDOCK:   -3.28 KCAL/MOL
REMARK 924 INTRA-LIGAND FREE ENERGY PREDICTED BY IDOCK:   -0.24 KCAL/MOL
REMARK 927      BINDING AFFINITY PREDICTED BY RF-SCORE:    0.00 PKD
ROOT
HETATM    1  C   UNL     1     -11.939  12.909  70.265  1.00  0.00    -0.283 C  
HETATM    2  S   UNL     1     -12.073  11.195  69.812  1.00  0.00    -0.335 S  
HETATM    3  O   UNL     1     -10.505  10.797  70.011  1.00  0.00    -0.125 OA 
HETATM    4  O   UNL     1     -12.850  10.510  70.822  1.00  0.00    -0.360 OA 
HETATM    5  O   UNL     1     -12.394  11.112  68.404  1.00  0.00    -0.556 OA 
ENDROOT
BRANCH   3   6
HETATM    6  C   UNL     1     -10.142   9.459  69.698  1.00  0.00    -0.206 C  
BRANCH   6   7
HETATM    7  C   UNL     1      -9.041   9.454  68.643  1.00  0.00    -0.132 C  
BRANCH   7   8
HETATM    8  C   UNL     1      -8.523   8.057  68.277  1.00  0.00    -0.123 C  
BRANCH   8   9
HETATM    9  C   UNL     1      -8.833   7.631  66.846  1.00  0.00    -0.131 C  
BRANCH   9  10
HETATM   10  O   UNL     1      -9.527   8.678  66.185  1.00  0.00    -0.223 OA 
HETATM   11  S   UNL     1      -8.718   9.487  65.024  1.00  0.00    -0.189 S  
HETATM   12  O   UNL     1      -8.524   8.598  63.900  1.00  0.00    -0.154 OA 
HETATM   13  O   UNL     1      -7.621  10.203  65.639  1.00  0.00    -0.130 OA 
HETATM   14  C   UNL     1     -10.002  10.643  64.620  1.00  0.00    -0.337 C  
ENDBRANCH   9  10
ENDBRANCH   8   9
ENDBRANCH   7   8
ENDBRANCH   6   7
ENDBRANCH   3   6
TORSDOF 5
ENDMDL
MODEL      217
REMARK 921   NORMALIZED FREE ENERGY PREDICTED BY IDOCK:   -2.56 KCAL/MOL
REMARK 922        TOTAL FREE ENERGY PREDICTED BY IDOCK:   -3.50 KCAL/MOL
REMARK 923 INTER-LIGAND FREE ENERGY PREDICTED BY IDOCK:   -3.21 KCAL/MOL
REMARK 924 INTRA-LIGAND FREE ENERGY PREDICTED BY IDOCK:   -0.29 KCAL/MOL
REMARK 927      BINDING AFFINITY PREDICTED BY RF-SCORE:    0.00 PKD
ROOT
HETATM    1  C   UNL     1     -10.802   5.845  66.751  1.00  0.00    -0.270 C  
HETATM    2  S   UNL     1      -9.471   6.751  67.502  1.00  0.00    -0.129 S  
HETATM    3  O   UNL     1     -10.376   7.883  68.248  1.00  0.00    -0.199 OA 
HETATM    4  O   UNL     1      -8.858   5.918  68.513  1.00  0.00    -0.112 OA 
HETATM    5  O   UNL     1      -8.699   7.392  66.459  1.00  0.00    -0.127 OA 
ENDROOT
BRANCH   3   6
HETATM    6  C   UNL     1      -9.674   8.889  68.967  1.00  0.00    -0.171 C  
BRANCH   6   7
HETATM    7  C   UNL     1      -9.858  10.239  68.282  1.00  0.00    -0.161 C  
BRANCH   7   8
HETATM    8  C   UNL     1     -11.067  10.311  67.342  1.00  0.00    -0.261 C  
BRANCH   8   9
HETATM    9  C   UNL     1     -11.382  11.714  66.835  1.00  0.00    -0.295 C  
BRANCH   9  10
HETATM   10  O   UNL     1     -11.879  12.499  67.909  1.00  0.00    -0.351 OA 
HETATM   11  S   UNL     1     -11.100  13.893  68.231  1.00  0.00    -0.271 S  
HETATM   12  O   UNL     1     -11.345  14.815  67.144  1.00  0.00    -0.337 OA 
HETATM   13  O   UNL     1      -9.764  13.580  68.691  1.00  0.00    -0.196 OA 
HETATM   14  C   UNL     1     -12.085  14.383  69.624  1.00  0.00    -0.334 C  
ENDBRANCH   9  10
ENDBRANCH   8   9
ENDBRANCH   7   8
ENDBRANCH   6   7
ENDBRANCH   3   6
TORSDOF 5
ENDMDL
MODEL      218
REMARK 921   NORMALIZED FREE ENERGY PREDICTED BY IDOCK:   -2.56 KCAL/MOL
REMARK 922        TOTAL FREE ENERGY PREDICTED BY IDOCK:   -3.50 KCAL/MOL
REMARK 923 INTER-LIGAND FREE ENERGY PREDICTED BY IDOCK:   -3.23 KCAL/MOL
REMARK 924 INTRA-LIGAND FREE ENERGY PREDICTED BY IDOCK:   -0.27 KCAL/MOL
REMARK 927      BINDING AFFINITY PREDICTED BY RF-SCORE:    0.00 PKD
ROOT
HETATM    1  C   UNL     1      -6.244  14.187  71.189  1.00  0.00     0.024 C  
HETATM    2  S   UNL     1      -6.441  14.319  69.428  1.00  0.00    -0.131 S  
HETATM    3  O   UNL     1      -6.988  12.807  69.160  1.00  0.00    -0.090 OA 
HETATM    4  O   UNL     1      -7.514  15.248  69.152  1.00  0.00    -0.147 OA 
HETATM    5  O   UNL     1      -5.133  14.450  68.823  1.00  0.00    -0.083 OA 
ENDROOT
BRANCH   3   6
HETATM    6  C   UNL     1      -7.244  12.452  67.807  1.00  0.00    -0.119 C  
BRANCH   6   7
HETATM    7  C   UNL     1      -8.387  11.444  67.743  1.00  0.00    -0.127 C  
BRANCH   7   8
HETATM    8  C   UNL     1      -8.542  10.750  66.384  1.00  0.00    -0.159 C  
BRANCH   8   9
HETATM    9  C   UNL     1      -9.696  11.280  65.540  1.00  0.00    -0.229 C  
BRANCH   9  10
HETATM   10  O   UNL     1     -10.205  12.465  66.134  1.00  0.00    -0.233 OA 
HETATM   11  S   UNL     1     -11.805  12.514  66.437  1.00  0.00    -0.322 S  
HETATM   12  O   UNL     1     -12.095  11.583  67.505  1.00  0.00    -0.614 OA 
HETATM   13  O   UNL     1     -12.516  12.489  65.177  1.00  0.00    -0.573 OA 
HETATM   14  C   UNL     1     -11.857  14.164  67.092  1.00  0.00    -0.423 C  
ENDBRANCH   9  10
ENDBRANCH   8   9
ENDBRANCH   7   8
ENDBRANCH   6   7
ENDBRANCH   3   6
TORSDOF 5
ENDMDL
MODEL      219
REMARK 921   NORMALIZED FREE ENERGY PREDICTED BY IDOCK:   -2.55 KCAL/MOL
REMARK 922        TOTAL FREE ENERGY PREDICTED BY IDOCK:   -3.49 KCAL/MOL
REMARK 923 INTER-LIGAND FREE ENERGY PREDICTED BY IDOCK:   -3.18 KCAL/MOL
REMARK 924 INTRA-LIGAND FREE ENERGY PREDICTED BY IDOCK:   -0.31 KCAL/MOL
REMARK 927      BINDING AFFINITY PREDICTED BY RF-SCORE:    0.00 PKD
ROOT
HETATM    1  C   UNL     1      -9.068   8.253  69.427  1.00  0.00    -0.154 C  
HETATM    2  S   UNL     1     -10.130   9.183  68.347  1.00  0.00    -0.203 S  
HETATM    3  O   UNL     1     -10.960   9.983  69.499  1.00  0.00    -0.232 OA 
HETATM    4  O   UNL     1      -9.324  10.137  67.618  1.00  0.00    -0.146 OA 
HETATM    5  O   UNL     1     -11.032   8.267  67.682  1.00  0.00    -0.083 OA 
ENDROOT
BRANCH   3   6
HETATM    6  C   UNL     1     -11.995  10.850  69.053  1.00  0.00    -0.251 C  
BRANCH   6   7
HETATM    7  C   UNL     1     -11.740  12.266  69.561  1.00  0.00    -0.398 C  
BRANCH   7   8
HETATM    8  C   UNL     1     -11.516  13.303  68.454  1.00  0.00    -0.349 C  
BRANCH   8   9
HETATM    9  C   UNL     1     -10.049  13.556  68.121  1.00  0.00    -0.250 C  
BRANCH   9  10
HETATM   10  O   UNL     1      -9.948  14.702  67.289  1.00  0.00    -0.233 OA 
HETATM   11  S   UNL     1      -8.732  15.740  67.602  1.00  0.00    -0.173 S  
HETATM   12  O   UNL     1      -7.483  15.097  67.257  1.00  0.00    -0.195 OA 
HETATM   13  O   UNL     1      -8.958  16.339  68.901  1.00  0.00    -0.227 OA 
HETATM   14  C   UNL     1      -9.126  16.931  66.346  1.00  0.00    -0.283 C  
ENDBRANCH   9  10
ENDBRANCH   8   9
ENDBRANCH   7   8
ENDBRANCH   6   7
ENDBRANCH   3   6
TORSDOF 5
ENDMDL
MODEL      220
REMARK 921   NORMALIZED FREE ENERGY PREDICTED BY IDOCK:   -2.55 KCAL/MOL
REMARK 922        TOTAL FREE ENERGY PREDICTED BY IDOCK:   -3.48 KCAL/MOL
REMARK 923 INTER-LIGAND FREE ENERGY PREDICTED BY IDOCK:   -3.33 KCAL/MOL
REMARK 924 INTRA-LIGAND FREE ENERGY PREDICTED BY IDOCK:   -0.15 KCAL/MOL
REMARK 927      BINDING AFFINITY PREDICTED BY RF-SCORE:    0.00 PKD
ROOT
HETATM    1  C   UNL     1     -11.534  11.012  68.780  1.00  0.00    -0.305 C  
HETATM    2  S   UNL     1     -10.569   9.946  69.824  1.00  0.00    -0.283 S  
HETATM    3  O   UNL     1     -10.898   8.543  69.063  1.00  0.00    -0.140 OA 
HETATM    4  O   UNL     1      -9.170  10.254  69.630  1.00  0.00    -0.199 OA 
HETATM    5  O   UNL     1     -11.176   9.911  71.138  1.00  0.00    -0.354 OA 
ENDROOT
BRANCH   3   6
HETATM    6  C   UNL     1     -10.334   7.365  69.624  1.00  0.00    -0.223 C  
BRANCH   6   7
HETATM    7  C   UNL     1     -10.951   6.133  68.971  1.00  0.00    -0.436 C  
BRANCH   7   8
HETATM    8  C   UNL     1     -11.026   6.200  67.440  1.00  0.00    -0.409 C  
BRANCH   8   9
HETATM    9  C   UNL     1      -9.938   5.407  66.726  1.00  0.00    -0.192 C  
BRANCH   9  10
HETATM   10  O   UNL     1     -10.489   4.788  65.573  1.00  0.00    -0.205 OA 
HETATM   11  S   UNL     1      -9.560   3.691  64.805  1.00  0.00    -0.180 S  
HETATM   12  O   UNL     1      -9.438   2.525  65.651  1.00  0.00    -0.053 OA 
HETATM   13  O   UNL     1      -8.407   4.368  64.252  1.00  0.00    -0.100 OA 
HETATM   14  C   UNL     1     -10.694   3.322  63.489  1.00  0.00    -0.252 C  
ENDBRANCH   9  10
ENDBRANCH   8   9
ENDBRANCH   7   8
ENDBRANCH   6   7
ENDBRANCH   3   6
TORSDOF 5
ENDMDL
MODEL      221
REMARK 921   NORMALIZED FREE ENERGY PREDICTED BY IDOCK:   -2.54 KCAL/MOL
REMARK 922        TOTAL FREE ENERGY PREDICTED BY IDOCK:   -3.48 KCAL/MOL
REMARK 923 INTER-LIGAND FREE ENERGY PREDICTED BY IDOCK:   -3.20 KCAL/MOL
REMARK 924 INTRA-LIGAND FREE ENERGY PREDICTED BY IDOCK:   -0.28 KCAL/MOL
REMARK 927      BINDING AFFINITY PREDICTED BY RF-SCORE:    0.00 PKD
ROOT
HETATM    1  C   UNL     1      -8.975  15.277  69.112  1.00  0.00    -0.233 C  
HETATM    2  S   UNL     1      -9.090  14.186  67.714  1.00  0.00    -0.199 S  
HETATM    3  O   UNL     1     -10.029  13.047  68.406  1.00  0.00    -0.231 OA 
HETATM    4  O   UNL     1      -9.857  14.842  66.679  1.00  0.00    -0.243 OA 
HETATM    5  O   UNL     1      -7.784  13.615  67.462  1.00  0.00    -0.159 OA 
ENDROOT
BRANCH   3   6
HETATM    6  C   UNL     1     -10.344  11.911  67.612  1.00  0.00    -0.200 C  
BRANCH   6   7
HETATM    7  C   UNL     1      -9.812  10.648  68.280  1.00  0.00    -0.174 C  
BRANCH   7   8
HETATM    8  C   UNL     1     -10.604   9.376  67.949  1.00  0.00    -0.293 C  
BRANCH   8   9
HETATM    9  C   UNL     1     -10.119   8.130  68.682  1.00  0.00    -0.196 C  
BRANCH   9  10
HETATM   10  O   UNL     1     -11.126   7.695  69.583  1.00  0.00    -0.186 OA 
HETATM   11  S   UNL     1     -10.800   7.821  71.175  1.00  0.00    -0.238 S  
HETATM   12  O   UNL     1     -10.773   9.224  71.525  1.00  0.00    -0.334 OA 
HETATM   13  O   UNL     1      -9.711   6.924  71.496  1.00  0.00    -0.164 OA 
HETATM   14  C   UNL     1     -12.318   7.116  71.769  1.00  0.00    -0.350 C  
ENDBRANCH   9  10
ENDBRANCH   8   9
ENDBRANCH   7   8
ENDBRANCH   6   7
ENDBRANCH   3   6
TORSDOF 5
ENDMDL
MODEL      222
REMARK 921   NORMALIZED FREE ENERGY PREDICTED BY IDOCK:   -2.54 KCAL/MOL
REMARK 922        TOTAL FREE ENERGY PREDICTED BY IDOCK:   -3.48 KCAL/MOL
REMARK 923 INTER-LIGAND FREE ENERGY PREDICTED BY IDOCK:   -3.33 KCAL/MOL
REMARK 924 INTRA-LIGAND FREE ENERGY PREDICTED BY IDOCK:   -0.15 KCAL/MOL
REMARK 927      BINDING AFFINITY PREDICTED BY RF-SCORE:    0.00 PKD
ROOT
HETATM    1  C   UNL     1     -10.604   3.726  64.038  1.00  0.00    -0.262 C  
HETATM    2  S   UNL     1      -9.457   4.149  65.327  1.00  0.00    -0.185 S  
HETATM    3  O   UNL     1     -10.535   4.779  66.375  1.00  0.00    -0.282 OA 
HETATM    4  O   UNL     1      -8.929   2.928  65.894  1.00  0.00    -0.137 OA 
HETATM    5  O   UNL     1      -8.599   5.214  64.854  1.00  0.00    -0.145 OA 
ENDROOT
BRANCH   3   6
HETATM    6  C   UNL     1     -10.012   5.307  67.587  1.00  0.00    -0.165 C  
BRANCH   6   7
HETATM    7  C   UNL     1     -10.816   6.532  68.008  1.00  0.00    -0.372 C  
BRANCH   7   8
HETATM    8  C   UNL     1     -11.532   6.386  69.357  1.00  0.00    -0.374 C  
BRANCH   8   9
HETATM    9  C   UNL     1     -10.808   7.048  70.524  1.00  0.00    -0.251 C  
BRANCH   9  10
HETATM   10  O   UNL     1     -10.835   6.178  71.646  1.00  0.00    -0.239 OA 
HETATM   11  S   UNL     1     -10.230   6.754  73.045  1.00  0.00    -0.236 S  
HETATM   12  O   UNL     1     -11.118   7.785  73.536  1.00  0.00    -0.279 OA 
HETATM   13  O   UNL     1      -8.809   6.975  72.878  1.00  0.00    -0.124 OA 
HETATM   14  C   UNL     1     -10.472   5.287  74.014  1.00  0.00    -0.281 C  
ENDBRANCH   9  10
ENDBRANCH   8   9
ENDBRANCH   7   8
ENDBRANCH   6   7
ENDBRANCH   3   6
TORSDOF 5
ENDMDL
MODEL      223
REMARK 921   NORMALIZED FREE ENERGY PREDICTED BY IDOCK:   -2.54 KCAL/MOL
REMARK 922        TOTAL FREE ENERGY PREDICTED BY IDOCK:   -3.48 KCAL/MOL
REMARK 923 INTER-LIGAND FREE ENERGY PREDICTED BY IDOCK:   -3.25 KCAL/MOL
REMARK 924 INTRA-LIGAND FREE ENERGY PREDICTED BY IDOCK:   -0.22 KCAL/MOL
REMARK 927      BINDING AFFINITY PREDICTED BY RF-SCORE:    0.00 PKD
ROOT
HETATM    1  C   UNL     1      -9.393   8.018  72.977  1.00  0.00    -0.275 C  
HETATM    2  S   UNL     1      -7.786   8.301  72.274  1.00  0.00    -0.112 S  
HETATM    3  O   UNL     1      -8.220   9.443  71.196  1.00  0.00    -0.314 OA 
HETATM    4  O   UNL     1      -6.945   8.915  73.277  1.00  0.00    -0.340 OA 
HETATM    5  O   UNL     1      -7.381   7.115  71.550  1.00  0.00    -0.076 OA 
ENDROOT
BRANCH   3   6
HETATM    6  C   UNL     1      -7.194   9.943  70.348  1.00  0.00    -0.134 C  
BRANCH   6   7
HETATM    7  C   UNL     1      -7.659   9.907  68.896  1.00  0.00    -0.083 C  
BRANCH   7   8
HETATM    8  C   UNL     1      -9.180   9.987  68.717  1.00  0.00    -0.159 C  
BRANCH   8   9
HETATM    9  C   UNL     1      -9.623  10.404  67.319  1.00  0.00    -0.156 C  
BRANCH   9  10
HETATM   10  O   UNL     1      -9.713  11.819  67.258  1.00  0.00    -0.178 OA 
HETATM   11  S   UNL     1     -11.088  12.450  66.651  1.00  0.00    -0.307 S  
HETATM   12  O   UNL     1     -12.159  12.194  67.589  1.00  0.00    -0.522 OA 
HETATM   13  O   UNL     1     -11.184  12.089  65.253  1.00  0.00    -0.317 OA 
HETATM   14  C   UNL     1     -10.622  14.158  66.771  1.00  0.00    -0.277 C  
ENDBRANCH   9  10
ENDBRANCH   8   9
ENDBRANCH   7   8
ENDBRANCH   6   7
ENDBRANCH   3   6
TORSDOF 5
ENDMDL
MODEL      224
REMARK 921   NORMALIZED FREE ENERGY PREDICTED BY IDOCK:   -2.53 KCAL/MOL
REMARK 922        TOTAL FREE ENERGY PREDICTED BY IDOCK:   -3.45 KCAL/MOL
REMARK 923 INTER-LIGAND FREE ENERGY PREDICTED BY IDOCK:   -3.17 KCAL/MOL
REMARK 924 INTRA-LIGAND FREE ENERGY PREDICTED BY IDOCK:   -0.28 KCAL/MOL
REMARK 927      BINDING AFFINITY PREDICTED BY RF-SCORE:    0.00 PKD
ROOT
HETATM    1  C   UNL     1      -8.857  16.358  68.929  1.00  0.00    -0.256 C  
HETATM    2  S   UNL     1      -8.705  15.717  67.278  1.00  0.00    -0.208 S  
HETATM    3  O   UNL     1      -9.797  14.514  67.414  1.00  0.00    -0.223 OA 
HETATM    4  O   UNL     1      -9.221  16.700  66.352  1.00  0.00    -0.251 OA 
HETATM    5  O   UNL     1      -7.390  15.131  67.128  1.00  0.00    -0.199 OA 
ENDROOT
BRANCH   3   6
HETATM    6  C   UNL     1      -9.968  13.677  66.277  1.00  0.00    -0.300 C  
BRANCH   6   7
HETATM    7  C   UNL     1      -9.558  12.249  66.619  1.00  0.00    -0.227 C  
BRANCH   7   8
HETATM    8  C   UNL     1     -10.652  11.202  66.373  1.00  0.00    -0.315 C  
BRANCH   8   9
HETATM    9  C   UNL     1     -10.229   9.770  66.686  1.00  0.00    -0.226 C  
BRANCH   9  10
HETATM   10  O   UNL     1     -10.748   9.395  67.953  1.00  0.00    -0.249 OA 
HETATM   11  S   UNL     1      -9.678   8.885  69.071  1.00  0.00    -0.175 S  
HETATM   12  O   UNL     1      -8.873  10.015  69.481  1.00  0.00    -0.175 OA 
HETATM   13  O   UNL     1      -9.089   7.644  68.615  1.00  0.00    -0.136 OA 
HETATM   14  C   UNL     1     -10.850   8.526  70.355  1.00  0.00    -0.234 C  
ENDBRANCH   9  10
ENDBRANCH   8   9
ENDBRANCH   7   8
ENDBRANCH   6   7
ENDBRANCH   3   6
TORSDOF 5
ENDMDL
MODEL      225
REMARK 921   NORMALIZED FREE ENERGY PREDICTED BY IDOCK:   -2.52 KCAL/MOL
REMARK 922        TOTAL FREE ENERGY PREDICTED BY IDOCK:   -3.44 KCAL/MOL
REMARK 923 INTER-LIGAND FREE ENERGY PREDICTED BY IDOCK:   -3.05 KCAL/MOL
REMARK 924 INTRA-LIGAND FREE ENERGY PREDICTED BY IDOCK:   -0.40 KCAL/MOL
REMARK 927      BINDING AFFINITY PREDICTED BY RF-SCORE:    0.00 PKD
ROOT
HETATM    1  C   UNL     1     -12.676  12.343  71.190  1.00  0.00    -0.240 C  
HETATM    2  S   UNL     1     -12.808  10.573  71.108  1.00  0.00    -0.434 S  
HETATM    3  O   UNL     1     -11.308  10.221  71.639  1.00  0.00    -0.007 OA 
HETATM    4  O   UNL     1     -13.760  10.135  72.105  1.00  0.00    -0.297 OA 
HETATM    5  O   UNL     1     -12.909  10.179  69.719  1.00  0.00     0.100 OA 
ENDROOT
BRANCH   3   6
HETATM    6  C   UNL     1     -10.956   8.844  71.690  1.00  0.00    -0.345 C  
BRANCH   6   7
HETATM    7  C   UNL     1      -9.468   8.679  71.401  1.00  0.00    -0.306 C  
BRANCH   7   8
HETATM    8  C   UNL     1      -8.982   9.417  70.147  1.00  0.00    -0.256 C  
BRANCH   8   9
HETATM    9  C   UNL     1      -9.727   9.039  68.871  1.00  0.00    -0.163 C  
BRANCH   9  10
HETATM   10  O   UNL     1      -9.208   7.816  68.370  1.00  0.00    -0.138 OA 
HETATM   11  S   UNL     1     -10.269   6.605  68.124  1.00  0.00    -0.187 S  
HETATM   12  O   UNL     1     -11.120   6.963  67.011  1.00  0.00    -0.389 OA 
HETATM   13  O   UNL     1     -10.805   6.194  69.404  1.00  0.00    -0.277 OA 
HETATM   14  C   UNL     1      -9.097   5.389  67.576  1.00  0.00    -0.107 C  
ENDBRANCH   9  10
ENDBRANCH   8   9
ENDBRANCH   7   8
ENDBRANCH   6   7
ENDBRANCH   3   6
TORSDOF 5
ENDMDL
MODEL      226
REMARK 921   NORMALIZED FREE ENERGY PREDICTED BY IDOCK:   -2.51 KCAL/MOL
REMARK 922        TOTAL FREE ENERGY PREDICTED BY IDOCK:   -3.44 KCAL/MOL
REMARK 923 INTER-LIGAND FREE ENERGY PREDICTED BY IDOCK:   -3.29 KCAL/MOL
REMARK 924 INTRA-LIGAND FREE ENERGY PREDICTED BY IDOCK:   -0.15 KCAL/MOL
REMARK 927      BINDING AFFINITY PREDICTED BY RF-SCORE:    0.00 PKD
ROOT
HETATM    1  C   UNL     1     -11.997  12.808  70.268  1.00  0.00    -0.280 C  
HETATM    2  S   UNL     1     -12.220  11.138  69.706  1.00  0.00    -0.265 S  
HETATM    3  O   UNL     1     -10.766  10.561  70.162  1.00  0.00    -0.268 OA 
HETATM    4  O   UNL     1     -13.237  10.509  70.520  1.00  0.00    -0.282 OA 
HETATM    5  O   UNL     1     -12.282  11.139  68.260  1.00  0.00    -0.613 OA 
ENDROOT
BRANCH   3   6
HETATM    6  C   UNL     1     -10.491   9.202  69.847  1.00  0.00    -0.223 C  
BRANCH   6   7
HETATM    7  C   UNL     1      -9.022   9.044  69.469  1.00  0.00    -0.147 C  
BRANCH   7   8
HETATM    8  C   UNL     1      -8.654   7.655  68.932  1.00  0.00    -0.129 C  
BRANCH   8   9
HETATM    9  C   UNL     1      -8.261   6.652  70.011  1.00  0.00    -0.130 C  
BRANCH   9  10
HETATM   10  O   UNL     1      -8.657   7.151  71.280  1.00  0.00    -0.123 OA 
HETATM   11  S   UNL     1      -9.650   6.213  72.169  1.00  0.00    -0.149 S  
HETATM   12  O   UNL     1      -8.910   5.049  72.603  1.00  0.00    -0.122 OA 
HETATM   13  O   UNL     1     -10.921   6.108  71.485  1.00  0.00    -0.254 OA 
HETATM   14  C   UNL     1      -9.830   7.319  73.545  1.00  0.00    -0.301 C  
ENDBRANCH   9  10
ENDBRANCH   8   9
ENDBRANCH   7   8
ENDBRANCH   6   7
ENDBRANCH   3   6
TORSDOF 5
ENDMDL
MODEL      227
REMARK 921   NORMALIZED FREE ENERGY PREDICTED BY IDOCK:   -2.50 KCAL/MOL
REMARK 922        TOTAL FREE ENERGY PREDICTED BY IDOCK:   -3.42 KCAL/MOL
REMARK 923 INTER-LIGAND FREE ENERGY PREDICTED BY IDOCK:   -3.17 KCAL/MOL
REMARK 924 INTRA-LIGAND FREE ENERGY PREDICTED BY IDOCK:   -0.26 KCAL/MOL
REMARK 927      BINDING AFFINITY PREDICTED BY RF-SCORE:    0.00 PKD
ROOT
HETATM    1  C   UNL     1      -7.001   9.304  68.799  1.00  0.00    -0.061 C  
HETATM    2  S   UNL     1      -8.733   9.672  68.646  1.00  0.00    -0.127 S  
HETATM    3  O   UNL     1      -9.162   8.343  67.807  1.00  0.00    -0.132 OA 
HETATM    4  O   UNL     1      -9.338   9.599  69.958  1.00  0.00    -0.213 OA 
HETATM    5  O   UNL     1      -8.888  10.828  67.789  1.00  0.00    -0.129 OA 
ENDROOT
BRANCH   3   6
HETATM    6  C   UNL     1     -10.525   8.248  67.415  1.00  0.00    -0.283 C  
BRANCH   6   7
HETATM    7  C   UNL     1     -10.851   6.812  67.015  1.00  0.00    -0.453 C  
BRANCH   7   8
HETATM    8  C   UNL     1     -10.713   5.793  68.153  1.00  0.00    -0.288 C  
BRANCH   8   9
HETATM    9  C   UNL     1     -11.270   6.269  69.490  1.00  0.00    -0.430 C  
BRANCH   9  10
HETATM   10  O   UNL     1     -10.902   5.348  70.506  1.00  0.00    -0.239 OA 
HETATM   11  S   UNL     1     -11.034   5.855  72.049  1.00  0.00    -0.272 S  
HETATM   12  O   UNL     1     -12.439   5.991  72.365  1.00  0.00    -0.177 OA 
HETATM   13  O   UNL     1     -10.087   6.927  72.266  1.00  0.00    -0.176 OA 
HETATM   14  C   UNL     1     -10.418   4.380  72.822  1.00  0.00    -0.186 C  
ENDBRANCH   9  10
ENDBRANCH   8   9
ENDBRANCH   7   8
ENDBRANCH   6   7
ENDBRANCH   3   6
TORSDOF 5
ENDMDL
MODEL      228
REMARK 921   NORMALIZED FREE ENERGY PREDICTED BY IDOCK:   -2.50 KCAL/MOL
REMARK 922        TOTAL FREE ENERGY PREDICTED BY IDOCK:   -3.42 KCAL/MOL
REMARK 923 INTER-LIGAND FREE ENERGY PREDICTED BY IDOCK:   -3.18 KCAL/MOL
REMARK 924 INTRA-LIGAND FREE ENERGY PREDICTED BY IDOCK:   -0.25 KCAL/MOL
REMARK 927      BINDING AFFINITY PREDICTED BY RF-SCORE:    0.00 PKD
ROOT
HETATM    1  C   UNL     1      -5.640  10.373  66.536  1.00  0.00    -0.057 C  
HETATM    2  S   UNL     1      -7.247  10.051  65.848  1.00  0.00    -0.121 S  
HETATM    3  O   UNL     1      -8.010  11.350  66.467  1.00  0.00    -0.164 OA 
HETATM    4  O   UNL     1      -7.173  10.206  64.412  1.00  0.00    -0.138 OA 
HETATM    5  O   UNL     1      -7.786   8.860  66.468  1.00  0.00    -0.098 OA 
ENDROOT
BRANCH   3   6
HETATM    6  C   UNL     1      -9.399  11.468  66.187  1.00  0.00    -0.215 C  
BRANCH   6   7
HETATM    7  C   UNL     1     -10.197  11.411  67.486  1.00  0.00    -0.210 C  
BRANCH   7   8
HETATM    8  C   UNL     1     -11.612  11.993  67.385  1.00  0.00    -0.388 C  
BRANCH   8   9
HETATM    9  C   UNL     1     -11.897  13.118  68.374  1.00  0.00    -0.351 C  
BRANCH   9  10
HETATM   10  O   UNL     1     -10.686  13.797  68.673  1.00  0.00    -0.246 OA 
HETATM   11  S   UNL     1     -10.812  15.284  69.328  1.00  0.00    -0.273 S  
HETATM   12  O   UNL     1     -11.333  15.148  70.670  1.00  0.00    -0.267 OA 
HETATM   13  O   UNL     1     -11.412  16.169  68.352  1.00  0.00    -0.369 OA 
HETATM   14  C   UNL     1      -9.074  15.633  69.425  1.00  0.00    -0.278 C  
ENDBRANCH   9  10
ENDBRANCH   8   9
ENDBRANCH   7   8
ENDBRANCH   6   7
ENDBRANCH   3   6
TORSDOF 5
ENDMDL
MODEL      229
REMARK 921   NORMALIZED FREE ENERGY PREDICTED BY IDOCK:   -2.50 KCAL/MOL
REMARK 922        TOTAL FREE ENERGY PREDICTED BY IDOCK:   -3.42 KCAL/MOL
REMARK 923 INTER-LIGAND FREE ENERGY PREDICTED BY IDOCK:   -3.07 KCAL/MOL
REMARK 924 INTRA-LIGAND FREE ENERGY PREDICTED BY IDOCK:   -0.34 KCAL/MOL
REMARK 927      BINDING AFFINITY PREDICTED BY RF-SCORE:    0.00 PKD
ROOT
HETATM    1  C   UNL     1     -10.533   5.264  66.370  1.00  0.00    -0.292 C  
HETATM    2  S   UNL     1      -8.935   6.024  66.530  1.00  0.00    -0.137 S  
HETATM    3  O   UNL     1      -9.097   6.542  68.067  1.00  0.00    -0.117 OA 
HETATM    4  O   UNL     1      -7.926   4.989  66.501  1.00  0.00    -0.106 OA 
HETATM    5  O   UNL     1      -8.881   7.178  65.659  1.00  0.00    -0.121 OA 
ENDROOT
BRANCH   3   6
HETATM    6  C   UNL     1      -8.009   7.279  68.610  1.00  0.00    -0.124 C  
BRANCH   6   7
HETATM    7  C   UNL     1      -8.522   8.274  69.646  1.00  0.00    -0.125 C  
BRANCH   7   8
HETATM    8  C   UNL     1      -9.419   9.378  69.072  1.00  0.00    -0.160 C  
BRANCH   8   9
HETATM    9  C   UNL     1     -10.602   9.747  69.961  1.00  0.00    -0.276 C  
BRANCH   9  10
HETATM   10  O   UNL     1     -11.322   8.570  70.296  1.00  0.00    -0.232 OA 
HETATM   11  S   UNL     1     -11.907   8.465  71.813  1.00  0.00    -0.341 S  
HETATM   12  O   UNL     1     -12.973   9.432  71.959  1.00  0.00    -0.367 OA 
HETATM   13  O   UNL     1     -10.793   8.400  72.735  1.00  0.00    -0.312 OA 
HETATM   14  C   UNL     1     -12.624   6.848  71.665  1.00  0.00    -0.367 C  
ENDBRANCH   9  10
ENDBRANCH   8   9
ENDBRANCH   7   8
ENDBRANCH   6   7
ENDBRANCH   3   6
TORSDOF 5
ENDMDL
MODEL      230
REMARK 921   NORMALIZED FREE ENERGY PREDICTED BY IDOCK:   -2.50 KCAL/MOL
REMARK 922        TOTAL FREE ENERGY PREDICTED BY IDOCK:   -3.42 KCAL/MOL
REMARK 923 INTER-LIGAND FREE ENERGY PREDICTED BY IDOCK:   -3.17 KCAL/MOL
REMARK 924 INTRA-LIGAND FREE ENERGY PREDICTED BY IDOCK:   -0.25 KCAL/MOL
REMARK 927      BINDING AFFINITY PREDICTED BY RF-SCORE:    0.00 PKD
ROOT
HETATM    1  C   UNL     1      -6.513  12.491  69.438  1.00  0.00    -0.102 C  
HETATM    2  S   UNL     1      -7.024  12.790  67.762  1.00  0.00    -0.148 S  
HETATM    3  O   UNL     1      -8.551  13.258  68.084  1.00  0.00    -0.166 OA 
HETATM    4  O   UNL     1      -6.294  13.930  67.254  1.00  0.00    -0.296 OA 
HETATM    5  O   UNL     1      -7.068  11.526  67.059  1.00  0.00    -0.129 OA 
ENDROOT
BRANCH   3   6
HETATM    6  C   UNL     1      -9.373  13.564  66.965  1.00  0.00    -0.247 C  
BRANCH   6   7
HETATM    7  C   UNL     1     -10.279  12.379  66.647  1.00  0.00    -0.241 C  
BRANCH   7   8
HETATM    8  C   UNL     1     -11.677  12.466  67.275  1.00  0.00    -0.419 C  
BRANCH   8   9
HETATM    9  C   UNL     1     -11.881  11.547  68.474  1.00  0.00    -0.297 C  
BRANCH   9  10
HETATM   10  O   UNL     1     -10.618  11.097  68.940  1.00  0.00    -0.191 OA 
HETATM   11  S   UNL     1     -10.586   9.679  69.743  1.00  0.00    -0.259 S  
HETATM   12  O   UNL     1     -10.873   8.617  68.804  1.00  0.00    -0.116 OA 
HETATM   13  O   UNL     1     -11.318   9.833  70.982  1.00  0.00    -0.329 OA 
HETATM   14  C   UNL     1      -8.848   9.665  70.102  1.00  0.00    -0.231 C  
ENDBRANCH   9  10
ENDBRANCH   8   9
ENDBRANCH   7   8
ENDBRANCH   6   7
ENDBRANCH   3   6
TORSDOF 5
ENDMDL
MODEL      231
REMARK 921   NORMALIZED FREE ENERGY PREDICTED BY IDOCK:   -2.50 KCAL/MOL
REMARK 922        TOTAL FREE ENERGY PREDICTED BY IDOCK:   -3.42 KCAL/MOL
REMARK 923 INTER-LIGAND FREE ENERGY PREDICTED BY IDOCK:   -3.08 KCAL/MOL
REMARK 924 INTRA-LIGAND FREE ENERGY PREDICTED BY IDOCK:   -0.34 KCAL/MOL
REMARK 927      BINDING AFFINITY PREDICTED BY RF-SCORE:    0.00 PKD
ROOT
HETATM    1  C   UNL     1      -6.803   5.405  73.916  1.00  0.00    -0.077 C  
HETATM    2  S   UNL     1      -8.474   5.739  73.413  1.00  0.00    -0.114 S  
HETATM    3  O   UNL     1      -8.311   7.344  73.178  1.00  0.00    -0.112 OA 
HETATM    4  O   UNL     1      -8.704   5.111  72.130  1.00  0.00    -0.127 OA 
HETATM    5  O   UNL     1      -9.351   5.526  74.544  1.00  0.00    -0.125 OA 
ENDROOT
BRANCH   3   6
HETATM    6  C   UNL     1      -9.480   8.054  72.791  1.00  0.00    -0.269 C  
BRANCH   6   7
HETATM    7  C   UNL     1      -9.184   8.912  71.565  1.00  0.00    -0.322 C  
BRANCH   7   8
HETATM    8  C   UNL     1      -9.261   8.156  70.232  1.00  0.00    -0.151 C  
BRANCH   8   9
HETATM    9  C   UNL     1     -10.257   8.743  69.238  1.00  0.00    -0.210 C  
BRANCH   9  10
HETATM   10  O   UNL     1     -10.962   9.810  69.856  1.00  0.00    -0.238 OA 
HETATM   11  S   UNL     1     -11.116  11.189  69.002  1.00  0.00    -0.265 S  
HETATM   12  O   UNL     1     -12.008  10.941  67.892  1.00  0.00    -0.585 OA 
HETATM   13  O   UNL     1      -9.803  11.770  68.822  1.00  0.00    -0.178 OA 
HETATM   14  C   UNL     1     -11.989  12.119  70.236  1.00  0.00    -0.305 C  
ENDBRANCH   9  10
ENDBRANCH   8   9
ENDBRANCH   7   8
ENDBRANCH   6   7
ENDBRANCH   3   6
TORSDOF 5
ENDMDL
MODEL      232
REMARK 921   NORMALIZED FREE ENERGY PREDICTED BY IDOCK:   -2.50 KCAL/MOL
REMARK 922        TOTAL FREE ENERGY PREDICTED BY IDOCK:   -3.42 KCAL/MOL
REMARK 923 INTER-LIGAND FREE ENERGY PREDICTED BY IDOCK:   -3.15 KCAL/MOL
REMARK 924 INTRA-LIGAND FREE ENERGY PREDICTED BY IDOCK:   -0.26 KCAL/MOL
REMARK 927      BINDING AFFINITY PREDICTED BY RF-SCORE:    0.00 PKD
ROOT
HETATM    1  C   UNL     1      -6.325  13.773  70.196  1.00  0.00    -0.060 C  
HETATM    2  S   UNL     1      -6.898  13.381  68.560  1.00  0.00    -0.109 S  
HETATM    3  O   UNL     1      -8.190  14.374  68.542  1.00  0.00    -0.142 OA 
HETATM    4  O   UNL     1      -5.931  13.872  67.603  1.00  0.00    -0.267 OA 
HETATM    5  O   UNL     1      -7.368  12.013  68.549  1.00  0.00    -0.100 OA 
ENDROOT
BRANCH   3   6
HETATM    6  C   UNL     1      -9.001  14.344  67.375  1.00  0.00    -0.199 C  
BRANCH   6   7
HETATM    7  C   UNL     1      -8.785  15.615  66.560  1.00  0.00    -0.342 C  
BRANCH   7   8
HETATM    8  C   UNL     1     -10.038  16.485  66.401  1.00  0.00    -0.323 C  
BRANCH   8   9
HETATM    9  C   UNL     1      -9.767  17.985  66.445  1.00  0.00    -0.321 C  
BRANCH   9  10
HETATM   10  O   UNL     1      -8.542  18.219  67.125  1.00  0.00    -0.240 OA 
HETATM   11  S   UNL     1      -7.379  19.012  66.304  1.00  0.00    -0.270 S  
HETATM   12  O   UNL     1      -7.803  20.383  66.121  1.00  0.00    -0.195 OA 
HETATM   13  O   UNL     1      -6.947  18.184  65.198  1.00  0.00    -0.403 OA 
HETATM   14  C   UNL     1      -6.139  18.965  67.573  1.00  0.00    -0.183 C  
ENDBRANCH   9  10
ENDBRANCH   8   9
ENDBRANCH   7   8
ENDBRANCH   6   7
ENDBRANCH   3   6
TORSDOF 5
ENDMDL
MODEL      233
REMARK 921   NORMALIZED FREE ENERGY PREDICTED BY IDOCK:   -2.47 KCAL/MOL
REMARK 922        TOTAL FREE ENERGY PREDICTED BY IDOCK:   -3.39 KCAL/MOL
REMARK 923 INTER-LIGAND FREE ENERGY PREDICTED BY IDOCK:   -3.16 KCAL/MOL
REMARK 924 INTRA-LIGAND FREE ENERGY PREDICTED BY IDOCK:   -0.23 KCAL/MOL
REMARK 927      BINDING AFFINITY PREDICTED BY RF-SCORE:    0.00 PKD
ROOT
HETATM    1  C   UNL     1     -10.088   7.120  68.417  1.00  0.00    -0.168 C  
HETATM    2  S   UNL     1      -9.953   7.950  69.982  1.00  0.00    -0.194 S  
HETATM    3  O   UNL     1     -11.462   8.563  70.032  1.00  0.00    -0.098 OA 
HETATM    4  O   UNL     1      -9.829   6.954  71.024  1.00  0.00    -0.178 OA 
HETATM    5  O   UNL     1      -9.016   9.045  69.847  1.00  0.00    -0.145 OA 
ENDROOT
BRANCH   3   6
HETATM    6  C   UNL     1     -11.784   9.375  71.153  1.00  0.00    -0.345 C  
BRANCH   6   7
HETATM    7  C   UNL     1     -11.726  10.848  70.759  1.00  0.00    -0.355 C  
BRANCH   7   8
HETATM    8  C   UNL     1     -12.400  11.171  69.419  1.00  0.00    -0.224 C  
BRANCH   8   9
HETATM    9  C   UNL     1     -11.762  12.331  68.663  1.00  0.00    -0.328 C  
BRANCH   9  10
HETATM   10  O   UNL     1     -12.144  13.555  69.273  1.00  0.00    -0.322 OA 
HETATM   11  S   UNL     1     -11.222  14.860  68.958  1.00  0.00    -0.281 S  
HETATM   12  O   UNL     1     -11.412  15.229  67.572  1.00  0.00    -0.333 OA 
HETATM   13  O   UNL     1      -9.909  14.647  69.527  1.00  0.00    -0.068 OA 
HETATM   14  C   UNL     1     -12.109  16.011  69.979  1.00  0.00    -0.120 C  
ENDBRANCH   9  10
ENDBRANCH   8   9
ENDBRANCH   7   8
ENDBRANCH   6   7
ENDBRANCH   3   6
TORSDOF 5
ENDMDL
MODEL      234
REMARK 921   NORMALIZED FREE ENERGY PREDICTED BY IDOCK:   -2.46 KCAL/MOL
REMARK 922        TOTAL FREE ENERGY PREDICTED BY IDOCK:   -3.37 KCAL/MOL
REMARK 923 INTER-LIGAND FREE ENERGY PREDICTED BY IDOCK:   -3.15 KCAL/MOL
REMARK 924 INTRA-LIGAND FREE ENERGY PREDICTED BY IDOCK:   -0.22 KCAL/MOL
REMARK 927      BINDING AFFINITY PREDICTED BY RF-SCORE:    0.00 PKD
ROOT
HETATM    1  C   UNL     1      -7.159  13.189  68.288  1.00  0.00    -0.105 C  
HETATM    2  S   UNL     1      -7.907  11.578  68.236  1.00  0.00    -0.145 S  
HETATM    3  O   UNL     1      -9.463  12.064  68.212  1.00  0.00    -0.194 OA 
HETATM    4  O   UNL     1      -7.601  10.968  66.961  1.00  0.00    -0.113 OA 
HETATM    5  O   UNL     1      -7.653  10.908  69.492  1.00  0.00    -0.131 OA 
ENDROOT
BRANCH   3   6
HETATM    6  C   UNL     1     -10.451  11.042  68.214  1.00  0.00    -0.186 C  
BRANCH   6   7
HETATM    7  C   UNL     1     -11.823  11.648  68.491  1.00  0.00    -0.357 C  
BRANCH   7   8
HETATM    8  C   UNL     1     -11.969  12.270  69.885  1.00  0.00    -0.377 C  
BRANCH   8   9
HETATM    9  C   UNL     1     -12.119  13.787  69.879  1.00  0.00    -0.348 C  
BRANCH   9  10
HETATM   10  O   UNL     1     -11.633  14.301  68.648  1.00  0.00    -0.280 OA 
HETATM   11  S   UNL     1     -10.651  15.599  68.721  1.00  0.00    -0.250 S  
HETATM   12  O   UNL     1      -9.394  15.187  69.306  1.00  0.00    -0.218 OA 
HETATM   13  O   UNL     1     -11.408  16.723  69.231  1.00  0.00    -0.132 OA 
HETATM   14  C   UNL     1     -10.424  15.807  66.973  1.00  0.00    -0.309 C  
ENDBRANCH   9  10
ENDBRANCH   8   9
ENDBRANCH   7   8
ENDBRANCH   6   7
ENDBRANCH   3   6
TORSDOF 5
ENDMDL
MODEL      235
REMARK 921   NORMALIZED FREE ENERGY PREDICTED BY IDOCK:   -2.46 KCAL/MOL
REMARK 922        TOTAL FREE ENERGY PREDICTED BY IDOCK:   -3.37 KCAL/MOL
REMARK 923 INTER-LIGAND FREE ENERGY PREDICTED BY IDOCK:   -3.09 KCAL/MOL
REMARK 924 INTRA-LIGAND FREE ENERGY PREDICTED BY IDOCK:   -0.28 KCAL/MOL
REMARK 927      BINDING AFFINITY PREDICTED BY RF-SCORE:    0.00 PKD
ROOT
HETATM    1  C   UNL     1     -12.345   8.685  72.431  1.00  0.00    -0.357 C  
HETATM    2  S   UNL     1     -13.039   9.990  71.444  1.00  0.00    -0.423 S  
HETATM    3  O   UNL     1     -11.775  10.194  70.436  1.00  0.00    -0.271 OA 
HETATM    4  O   UNL     1     -14.147   9.454  70.684  1.00  0.00     0.115 OA 
HETATM    5  O   UNL     1     -13.170  11.174  72.266  1.00  0.00    -0.413 OA 
ENDROOT
BRANCH   3   6
HETATM    6  C   UNL     1     -11.894  11.224  69.464  1.00  0.00    -0.357 C  
BRANCH   6   7
HETATM    7  C   UNL     1     -11.359  10.735  68.122  1.00  0.00    -0.377 C  
BRANCH   7   8
HETATM    8  C   UNL     1      -9.858  10.415  68.119  1.00  0.00    -0.168 C  
BRANCH   8   9
HETATM    9  C   UNL     1      -9.536   8.931  68.253  1.00  0.00    -0.140 C  
BRANCH   9  10
HETATM   10  O   UNL     1      -8.257   8.781  68.852  1.00  0.00    -0.115 OA 
HETATM   11  S   UNL     1      -8.217   8.235  70.386  1.00  0.00    -0.118 S  
HETATM   12  O   UNL     1      -8.632   6.850  70.389  1.00  0.00    -0.140 OA 
HETATM   13  O   UNL     1      -8.829   9.226  71.246  1.00  0.00    -0.290 OA 
HETATM   14  C   UNL     1      -6.456   8.302  70.600  1.00  0.00    -0.036 C  
ENDBRANCH   9  10
ENDBRANCH   8   9
ENDBRANCH   7   8
ENDBRANCH   6   7
ENDBRANCH   3   6
TORSDOF 5
ENDMDL
MODEL      236
REMARK 921   NORMALIZED FREE ENERGY PREDICTED BY IDOCK:   -2.45 KCAL/MOL
REMARK 922        TOTAL FREE ENERGY PREDICTED BY IDOCK:   -3.36 KCAL/MOL
REMARK 923 INTER-LIGAND FREE ENERGY PREDICTED BY IDOCK:   -3.14 KCAL/MOL
REMARK 924 INTRA-LIGAND FREE ENERGY PREDICTED BY IDOCK:   -0.22 KCAL/MOL
REMARK 927      BINDING AFFINITY PREDICTED BY RF-SCORE:    0.00 PKD
ROOT
HETATM    1  C   UNL     1     -10.166   5.497  67.999  1.00  0.00    -0.181 C  
HETATM    2  S   UNL     1      -9.610   6.125  69.566  1.00  0.00    -0.144 S  
HETATM    3  O   UNL     1     -11.013   6.811  70.033  1.00  0.00    -0.256 OA 
HETATM    4  O   UNL     1      -9.336   5.006  70.441  1.00  0.00    -0.142 OA 
HETATM    5  O   UNL     1      -8.641   7.174  69.329  1.00  0.00    -0.135 OA 
ENDROOT
BRANCH   3   6
HETATM    6  C   UNL     1     -11.004   7.500  71.276  1.00  0.00    -0.242 C  
BRANCH   6   7
HETATM    7  C   UNL     1     -10.775   8.990  71.041  1.00  0.00    -0.339 C  
BRANCH   7   8
HETATM    8  C   UNL     1     -11.407   9.531  69.752  1.00  0.00    -0.117 C  
BRANCH   8   9
HETATM    9  C   UNL     1     -10.610  10.648  69.087  1.00  0.00    -0.226 C  
BRANCH   9  10
HETATM   10  O   UNL     1     -11.316  11.112  67.946  1.00  0.00    -0.283 OA 
HETATM   11  S   UNL     1     -10.891  12.568  67.352  1.00  0.00    -0.248 S  
HETATM   12  O   UNL     1      -9.571  12.456  66.771  1.00  0.00    -0.212 OA 
HETATM   13  O   UNL     1     -11.219  13.581  68.332  1.00  0.00    -0.249 OA 
HETATM   14  C   UNL     1     -12.085  12.631  66.040  1.00  0.00    -0.364 C  
ENDBRANCH   9  10
ENDBRANCH   8   9
ENDBRANCH   7   8
ENDBRANCH   6   7
ENDBRANCH   3   6
TORSDOF 5
ENDMDL
MODEL      237
REMARK 921   NORMALIZED FREE ENERGY PREDICTED BY IDOCK:   -2.43 KCAL/MOL
REMARK 922        TOTAL FREE ENERGY PREDICTED BY IDOCK:   -3.33 KCAL/MOL
REMARK 923 INTER-LIGAND FREE ENERGY PREDICTED BY IDOCK:   -2.93 KCAL/MOL
REMARK 924 INTRA-LIGAND FREE ENERGY PREDICTED BY IDOCK:   -0.40 KCAL/MOL
REMARK 927      BINDING AFFINITY PREDICTED BY RF-SCORE:    0.00 PKD
ROOT
HETATM    1  C   UNL     1     -12.739  10.078  70.843  1.00  0.00    -0.325 C  
HETATM    2  S   UNL     1     -13.039   8.769  72.008  1.00  0.00    -0.420 S  
HETATM    3  O   UNL     1     -11.483   8.413  72.337  1.00  0.00    -0.367 OA 
HETATM    4  O   UNL     1     -13.639   9.337  73.195  1.00  0.00    -0.129 OA 
HETATM    5  O   UNL     1     -13.629   7.650  71.306  1.00  0.00    -0.306 OA 
ENDROOT
BRANCH   3   6
HETATM    6  C   UNL     1     -11.252   7.337  73.237  1.00  0.00    -0.136 C  
BRANCH   6   7
HETATM    7  C   UNL     1      -9.885   6.718  72.964  1.00  0.00    -0.191 C  
BRANCH   7   8
HETATM    8  C   UNL     1      -9.939   5.299  72.384  1.00  0.00    -0.219 C  
BRANCH   8   9
HETATM    9  C   UNL     1     -10.457   5.229  70.952  1.00  0.00    -0.215 C  
BRANCH   9  10
HETATM   10  O   UNL     1      -9.597   5.977  70.105  1.00  0.00    -0.158 OA 
HETATM   11  S   UNL     1     -10.247   6.587  68.741  1.00  0.00    -0.187 S  
HETATM   12  O   UNL     1     -11.175   7.635  69.107  1.00  0.00     0.051 OA 
HETATM   13  O   UNL     1     -10.625   5.489  67.878  1.00  0.00    -0.205 OA 
HETATM   14  C   UNL     1      -8.768   7.334  68.104  1.00  0.00    -0.128 C  
ENDBRANCH   9  10
ENDBRANCH   8   9
ENDBRANCH   7   8
ENDBRANCH   6   7
ENDBRANCH   3   6
TORSDOF 5
ENDMDL
MODEL      238
REMARK 921   NORMALIZED FREE ENERGY PREDICTED BY IDOCK:   -2.43 KCAL/MOL
REMARK 922        TOTAL FREE ENERGY PREDICTED BY IDOCK:   -3.33 KCAL/MOL
REMARK 923 INTER-LIGAND FREE ENERGY PREDICTED BY IDOCK:   -3.15 KCAL/MOL
REMARK 924 INTRA-LIGAND FREE ENERGY PREDICTED BY IDOCK:   -0.18 KCAL/MOL
REMARK 927      BINDING AFFINITY PREDICTED BY RF-SCORE:    0.00 PKD
ROOT
HETATM    1  C   UNL     1      -9.266   8.940  71.183  1.00  0.00    -0.256 C  
HETATM    2  S   UNL     1      -9.541   9.287  69.462  1.00  0.00    -0.182 S  
HETATM    3  O   UNL     1     -10.427  10.641  69.654  1.00  0.00    -0.228 OA 
HETATM    4  O   UNL     1      -8.278   9.650  68.857  1.00  0.00    -0.104 OA 
HETATM    5  O   UNL     1     -10.391   8.254  68.911  1.00  0.00    -0.214 OA 
ENDROOT
BRANCH   3   6
HETATM    6  C   UNL     1     -10.919  11.255  68.471  1.00  0.00    -0.220 C  
BRANCH   6   7
HETATM    7  C   UNL     1     -10.744  12.768  68.560  1.00  0.00    -0.275 C  
BRANCH   7   8
HETATM    8  C   UNL     1      -9.447  13.292  67.932  1.00  0.00    -0.214 C  
BRANCH   8   9
HETATM    9  C   UNL     1      -8.875  12.395  66.839  1.00  0.00    -0.205 C  
BRANCH   9  10
HETATM   10  O   UNL     1      -9.753  12.398  65.723  1.00  0.00    -0.248 OA 
HETATM   11  S   UNL     1      -9.776  11.059  64.795  1.00  0.00    -0.282 S  
HETATM   12  O   UNL     1     -10.380   9.988  65.555  1.00  0.00    -0.241 OA 
HETATM   13  O   UNL     1      -8.486  10.919  64.154  1.00  0.00    -0.048 OA 
HETATM   14  C   UNL     1     -10.951  11.639  63.597  1.00  0.00    -0.431 C  
ENDBRANCH   9  10
ENDBRANCH   8   9
ENDBRANCH   7   8
ENDBRANCH   6   7
ENDBRANCH   3   6
TORSDOF 5
ENDMDL
MODEL      239
REMARK 921   NORMALIZED FREE ENERGY PREDICTED BY IDOCK:   -2.43 KCAL/MOL
REMARK 922        TOTAL FREE ENERGY PREDICTED BY IDOCK:   -3.33 KCAL/MOL
REMARK 923 INTER-LIGAND FREE ENERGY PREDICTED BY IDOCK:   -3.12 KCAL/MOL
REMARK 924 INTRA-LIGAND FREE ENERGY PREDICTED BY IDOCK:   -0.21 KCAL/MOL
REMARK 927      BINDING AFFINITY PREDICTED BY RF-SCORE:    0.00 PKD
ROOT
HETATM    1  C   UNL     1      -6.004   7.098  63.254  1.00  0.00    -0.041 C  
HETATM    2  S   UNL     1      -7.698   7.381  63.711  1.00  0.00    -0.115 S  
HETATM    3  O   UNL     1      -7.428   8.522  64.842  1.00  0.00    -0.087 OA 
HETATM    4  O   UNL     1      -8.380   7.997  62.594  1.00  0.00    -0.157 OA 
HETATM    5  O   UNL     1      -8.206   6.194  64.366  1.00  0.00    -0.126 OA 
ENDROOT
BRANCH   3   6
HETATM    6  C   UNL     1      -8.567   9.022  65.529  1.00  0.00    -0.168 C  
BRANCH   6   7
HETATM    7  C   UNL     1      -8.135   9.703  66.823  1.00  0.00    -0.113 C  
BRANCH   7   8
HETATM    8  C   UNL     1      -7.902  11.214  66.694  1.00  0.00    -0.155 C  
BRANCH   8   9
HETATM    9  C   UNL     1      -9.031  12.071  67.258  1.00  0.00    -0.180 C  
BRANCH   9  10
HETATM   10  O   UNL     1      -9.987  12.316  66.237  1.00  0.00    -0.222 OA 
HETATM   11  S   UNL     1     -11.489  12.732  66.712  1.00  0.00    -0.363 S  
HETATM   12  O   UNL     1     -11.433  14.055  67.293  1.00  0.00    -0.314 OA 
HETATM   13  O   UNL     1     -12.082  11.609  67.406  1.00  0.00    -0.605 OA 
HETATM   14  C   UNL     1     -12.210  12.852  65.094  1.00  0.00    -0.470 C  
ENDBRANCH   9  10
ENDBRANCH   8   9
ENDBRANCH   7   8
ENDBRANCH   6   7
ENDBRANCH   3   6
TORSDOF 5
ENDMDL
MODEL      240
REMARK 921   NORMALIZED FREE ENERGY PREDICTED BY IDOCK:   -2.40 KCAL/MOL
REMARK 922        TOTAL FREE ENERGY PREDICTED BY IDOCK:   -3.30 KCAL/MOL
REMARK 923 INTER-LIGAND FREE ENERGY PREDICTED BY IDOCK:   -3.10 KCAL/MOL
REMARK 924 INTRA-LIGAND FREE ENERGY PREDICTED BY IDOCK:   -0.20 KCAL/MOL
REMARK 927      BINDING AFFINITY PREDICTED BY RF-SCORE:    0.00 PKD
ROOT
HETATM    1  C   UNL     1     -11.747  13.497  67.879  1.00  0.00    -0.357 C  
HETATM    2  S   UNL     1     -11.423  13.200  66.157  1.00  0.00    -0.346 S  
HETATM    3  O   UNL     1     -10.378  11.964  66.346  1.00  0.00    -0.211 OA 
HETATM    4  O   UNL     1     -12.628  12.689  65.542  1.00  0.00    -0.634 OA 
HETATM    5  O   UNL     1     -10.703  14.334  65.619  1.00  0.00    -0.294 OA 
ENDROOT
BRANCH   3   6
HETATM    6  C   UNL     1      -9.808  11.424  65.160  1.00  0.00    -0.260 C  
BRANCH   6   7
HETATM    7  C   UNL     1      -9.608   9.921  65.320  1.00  0.00    -0.361 C  
BRANCH   7   8
HETATM    8  C   UNL     1      -9.155   9.488  66.720  1.00  0.00    -0.173 C  
BRANCH   8   9
HETATM    9  C   UNL     1      -7.885   8.646  66.734  1.00  0.00    -0.094 C  
BRANCH   9  10
HETATM   10  O   UNL     1      -8.111   7.469  67.496  1.00  0.00    -0.111 OA 
HETATM   11  S   UNL     1      -7.036   7.131  68.673  1.00  0.00    -0.087 S  
HETATM   12  O   UNL     1      -7.185   8.113  69.724  1.00  0.00    -0.062 OA 
HETATM   13  O   UNL     1      -5.756   6.843  68.062  1.00  0.00    -0.018 OA 
HETATM   14  C   UNL     1      -7.769   5.606  69.213  1.00  0.00    -0.088 C  
ENDBRANCH   9  10
ENDBRANCH   8   9
ENDBRANCH   7   8
ENDBRANCH   6   7
ENDBRANCH   3   6
TORSDOF 5
ENDMDL
MODEL      241
REMARK 921   NORMALIZED FREE ENERGY PREDICTED BY IDOCK:   -2.40 KCAL/MOL
REMARK 922        TOTAL FREE ENERGY PREDICTED BY IDOCK:   -3.29 KCAL/MOL
REMARK 923 INTER-LIGAND FREE ENERGY PREDICTED BY IDOCK:   -3.38 KCAL/MOL
REMARK 924 INTRA-LIGAND FREE ENERGY PREDICTED BY IDOCK:    0.09 KCAL/MOL
REMARK 927      BINDING AFFINITY PREDICTED BY RF-SCORE:    0.00 PKD
ROOT
HETATM    1  C   UNL     1     -12.866   9.850  71.176  1.00  0.00    -0.368 C  
HETATM    2  S   UNL     1     -12.314   8.229  71.651  1.00  0.00    -0.327 S  
HETATM    3  O   UNL     1     -11.781   7.747  70.188  1.00  0.00    -0.056 OA 
HETATM    4  O   UNL     1     -11.173   8.369  72.528  1.00  0.00    -0.368 OA 
HETATM    5  O   UNL     1     -13.467   7.432  72.007  1.00  0.00    -0.239 OA 
ENDROOT
BRANCH   3   6
HETATM    6  C   UNL     1     -11.272   6.422  70.100  1.00  0.00    -0.390 C  
BRANCH   6   7
HETATM    7  C   UNL     1     -10.821   6.135  68.671  1.00  0.00    -0.403 C  
BRANCH   7   8
HETATM    8  C   UNL     1     -10.849   7.355  67.742  1.00  0.00    -0.186 C  
BRANCH   8   9
HETATM    9  C   UNL     1      -9.822   8.428  68.089  1.00  0.00    -0.169 C  
BRANCH   9  10
HETATM   10  O   UNL     1     -10.109   9.607  67.352  1.00  0.00    -0.178 OA 
HETATM   11  S   UNL     1      -9.004  10.080  66.252  1.00  0.00    -0.152 S  
HETATM   12  O   UNL     1      -9.005   9.126  65.165  1.00  0.00    -0.198 OA 
HETATM   13  O   UNL     1      -7.792  10.456  66.947  1.00  0.00    -0.110 OA 
HETATM   14  C   UNL     1      -9.838  11.553  65.717  1.00  0.00    -0.234 C  
ENDBRANCH   9  10
ENDBRANCH   8   9
ENDBRANCH   7   8
ENDBRANCH   6   7
ENDBRANCH   3   6
TORSDOF 5
ENDMDL
MODEL      242
REMARK 921   NORMALIZED FREE ENERGY PREDICTED BY IDOCK:   -2.39 KCAL/MOL
REMARK 922        TOTAL FREE ENERGY PREDICTED BY IDOCK:   -3.28 KCAL/MOL
REMARK 923 INTER-LIGAND FREE ENERGY PREDICTED BY IDOCK:   -3.02 KCAL/MOL
REMARK 924 INTRA-LIGAND FREE ENERGY PREDICTED BY IDOCK:   -0.26 KCAL/MOL
REMARK 927      BINDING AFFINITY PREDICTED BY RF-SCORE:    0.00 PKD
ROOT
HETATM    1  C   UNL     1      -6.113  12.541  70.078  1.00  0.00    -0.117 C  
HETATM    2  S   UNL     1      -6.414  12.876  68.358  1.00  0.00    -0.093 S  
HETATM    3  O   UNL     1      -7.895  12.202  68.264  1.00  0.00    -0.137 OA 
HETATM    4  O   UNL     1      -6.551  14.305  68.184  1.00  0.00    -0.102 OA 
HETATM    5  O   UNL     1      -5.497  12.087  67.565  1.00  0.00    -0.077 OA 
ENDROOT
BRANCH   3   6
HETATM    6  C   UNL     1      -8.518  12.209  66.987  1.00  0.00    -0.183 C  
BRANCH   6   7
HETATM    7  C   UNL     1      -9.701  13.171  66.992  1.00  0.00    -0.241 C  
BRANCH   7   8
HETATM    8  C   UNL     1     -10.075  13.721  65.610  1.00  0.00    -0.315 C  
BRANCH   8   9
HETATM    9  C   UNL     1     -10.494  15.187  65.613  1.00  0.00    -0.359 C  
BRANCH   9  10
HETATM   10  O   UNL     1     -10.659  15.624  66.954  1.00  0.00    -0.303 OA 
HETATM   11  S   UNL     1      -9.823  16.945  67.412  1.00  0.00    -0.267 S  
HETATM   12  O   UNL     1     -10.376  18.094  66.729  1.00  0.00    -0.344 OA 
HETATM   13  O   UNL     1      -8.410  16.633  67.376  1.00  0.00    -0.168 OA 
HETATM   14  C   UNL     1     -10.360  16.975  69.103  1.00  0.00    -0.313 C  
ENDBRANCH   9  10
ENDBRANCH   8   9
ENDBRANCH   7   8
ENDBRANCH   6   7
ENDBRANCH   3   6
TORSDOF 5
ENDMDL
MODEL      243
REMARK 921   NORMALIZED FREE ENERGY PREDICTED BY IDOCK:   -2.39 KCAL/MOL
REMARK 922        TOTAL FREE ENERGY PREDICTED BY IDOCK:   -3.28 KCAL/MOL
REMARK 923 INTER-LIGAND FREE ENERGY PREDICTED BY IDOCK:   -3.27 KCAL/MOL
REMARK 924 INTRA-LIGAND FREE ENERGY PREDICTED BY IDOCK:   -0.01 KCAL/MOL
REMARK 927      BINDING AFFINITY PREDICTED BY RF-SCORE:    0.00 PKD
ROOT
HETATM    1  C   UNL     1      -6.519  14.736  70.143  1.00  0.00    -0.163 C  
HETATM    2  S   UNL     1      -7.382  14.487  68.610  1.00  0.00    -0.136 S  
HETATM    3  O   UNL     1      -8.480  15.678  68.785  1.00  0.00    -0.164 OA 
HETATM    4  O   UNL     1      -6.498  14.839  67.520  1.00  0.00    -0.248 OA 
HETATM    5  O   UNL     1      -8.069  13.215  68.665  1.00  0.00    -0.112 OA 
ENDROOT
BRANCH   3   6
HETATM    6  C   UNL     1      -9.447  15.812  67.751  1.00  0.00    -0.212 C  
BRANCH   6   7
HETATM    7  C   UNL     1      -8.788  16.375  66.496  1.00  0.00    -0.316 C  
BRANCH   7   8
HETATM    8  C   UNL     1      -8.935  17.893  66.332  1.00  0.00    -0.247 C  
BRANCH   8   9
HETATM    9  C   UNL     1      -7.610  18.641  66.228  1.00  0.00    -0.263 C  
BRANCH   9  10
HETATM   10  O   UNL     1      -6.870  18.452  67.426  1.00  0.00    -0.196 OA 
HETATM   11  S   UNL     1      -7.067  19.563  68.601  1.00  0.00    -0.349 S  
HETATM   12  O   UNL     1      -8.404  19.429  69.136  1.00  0.00    -0.302 OA 
HETATM   13  O   UNL     1      -6.548  20.830  68.132  1.00  0.00    -0.302 OA 
HETATM   14  C   UNL     1      -5.918  18.867  69.761  1.00  0.00    -0.257 C  
ENDBRANCH   9  10
ENDBRANCH   8   9
ENDBRANCH   7   8
ENDBRANCH   6   7
ENDBRANCH   3   6
TORSDOF 5
ENDMDL
MODEL      244
REMARK 921   NORMALIZED FREE ENERGY PREDICTED BY IDOCK:   -2.39 KCAL/MOL
REMARK 922        TOTAL FREE ENERGY PREDICTED BY IDOCK:   -3.27 KCAL/MOL
REMARK 923 INTER-LIGAND FREE ENERGY PREDICTED BY IDOCK:   -3.12 KCAL/MOL
REMARK 924 INTRA-LIGAND FREE ENERGY PREDICTED BY IDOCK:   -0.15 KCAL/MOL
REMARK 927      BINDING AFFINITY PREDICTED BY RF-SCORE:    0.00 PKD
ROOT
HETATM    1  C   UNL     1      -9.512   3.953  68.509  1.00  0.00    -0.148 C  
HETATM    2  S   UNL     1      -9.626   5.146  69.821  1.00  0.00    -0.194 S  
HETATM    3  O   UNL     1     -10.100   6.416  68.916  1.00  0.00    -0.148 OA 
HETATM    4  O   UNL     1     -10.718   4.772  70.692  1.00  0.00    -0.012 OA 
HETATM    5  O   UNL     1      -8.295   5.411  70.324  1.00  0.00    -0.107 OA 
ENDROOT
BRANCH   3   6
HETATM    6  C   UNL     1     -10.275   7.653  69.594  1.00  0.00    -0.204 C  
BRANCH   6   7
HETATM    7  C   UNL     1      -9.478   8.746  68.890  1.00  0.00    -0.145 C  
BRANCH   7   8
HETATM    8  C   UNL     1     -10.098  10.146  68.994  1.00  0.00    -0.216 C  
BRANCH   8   9
HETATM    9  C   UNL     1     -10.905  10.564  67.770  1.00  0.00    -0.294 C  
BRANCH   9  10
HETATM   10  O   UNL     1     -10.435  11.821  67.306  1.00  0.00    -0.205 OA 
HETATM   11  S   UNL     1     -11.038  12.361  65.892  1.00  0.00    -0.328 S  
HETATM   12  O   UNL     1     -12.430  12.699  66.090  1.00  0.00    -0.520 OA 
HETATM   13  O   UNL     1     -10.602  11.475  64.834  1.00  0.00    -0.279 OA 
HETATM   14  C   UNL     1     -10.095  13.863  65.807  1.00  0.00    -0.320 C  
ENDBRANCH   9  10
ENDBRANCH   8   9
ENDBRANCH   7   8
ENDBRANCH   6   7
ENDBRANCH   3   6
TORSDOF 5
ENDMDL
MODEL      245
REMARK 921   NORMALIZED FREE ENERGY PREDICTED BY IDOCK:   -2.36 KCAL/MOL
REMARK 922        TOTAL FREE ENERGY PREDICTED BY IDOCK:   -3.24 KCAL/MOL
REMARK 923 INTER-LIGAND FREE ENERGY PREDICTED BY IDOCK:   -2.99 KCAL/MOL
REMARK 924 INTRA-LIGAND FREE ENERGY PREDICTED BY IDOCK:   -0.24 KCAL/MOL
REMARK 927      BINDING AFFINITY PREDICTED BY RF-SCORE:    0.00 PKD
ROOT
HETATM    1  C   UNL     1      -7.458   4.114  65.516  1.00  0.00    -0.077 C  
HETATM    2  S   UNL     1      -9.227   4.028  65.663  1.00  0.00    -0.161 S  
HETATM    3  O   UNL     1      -9.456   5.487  66.352  1.00  0.00    -0.146 OA 
HETATM    4  O   UNL     1      -9.801   4.054  64.336  1.00  0.00    -0.169 OA 
HETATM    5  O   UNL     1      -9.563   3.004  66.629  1.00  0.00    -0.075 OA 
ENDROOT
BRANCH   3   6
HETATM    6  C   UNL     1     -10.793   5.826  66.697  1.00  0.00    -0.214 C  
BRANCH   6   7
HETATM    7  C   UNL     1     -10.850   7.265  67.199  1.00  0.00    -0.378 C  
BRANCH   7   8
HETATM    8  C   UNL     1      -9.512   7.805  67.721  1.00  0.00    -0.163 C  
BRANCH   8   9
HETATM    9  C   UNL     1      -9.366   9.319  67.616  1.00  0.00    -0.128 C  
BRANCH   9  10
HETATM   10  O   UNL     1      -9.725   9.735  66.307  1.00  0.00    -0.199 OA 
HETATM   11  S   UNL     1     -10.334  11.237  66.146  1.00  0.00    -0.258 S  
HETATM   12  O   UNL     1      -9.275  12.189  66.404  1.00  0.00    -0.219 OA 
HETATM   13  O   UNL     1     -11.607  11.296  66.831  1.00  0.00    -0.464 OA 
HETATM   14  C   UNL     1     -10.627  11.174  64.396  1.00  0.00    -0.343 C  
ENDBRANCH   9  10
ENDBRANCH   8   9
ENDBRANCH   7   8
ENDBRANCH   6   7
ENDBRANCH   3   6
TORSDOF 5
ENDMDL
MODEL      246
REMARK 921   NORMALIZED FREE ENERGY PREDICTED BY IDOCK:   -2.36 KCAL/MOL
REMARK 922        TOTAL FREE ENERGY PREDICTED BY IDOCK:   -3.23 KCAL/MOL
REMARK 923 INTER-LIGAND FREE ENERGY PREDICTED BY IDOCK:   -2.85 KCAL/MOL
REMARK 924 INTRA-LIGAND FREE ENERGY PREDICTED BY IDOCK:   -0.39 KCAL/MOL
REMARK 927      BINDING AFFINITY PREDICTED BY RF-SCORE:    0.00 PKD
ROOT
HETATM    1  C   UNL     1      -8.630  10.134  69.508  1.00  0.00    -0.164 C  
HETATM    2  S   UNL     1      -8.643   8.618  70.436  1.00  0.00    -0.167 S  
HETATM    3  O   UNL     1     -10.235   8.298  70.302  1.00  0.00    -0.191 OA 
HETATM    4  O   UNL     1      -7.912   7.616  69.693  1.00  0.00    -0.118 OA 
HETATM    5  O   UNL     1      -8.348   8.919  71.820  1.00  0.00    -0.321 OA 
ENDROOT
BRANCH   3   6
HETATM    6  C   UNL     1     -10.711   7.137  70.971  1.00  0.00    -0.232 C  
BRANCH   6   7
HETATM    7  C   UNL     1     -11.640   6.353  70.051  1.00  0.00    -0.446 C  
BRANCH   7   8
HETATM    8  C   UNL     1     -11.134   6.217  68.609  1.00  0.00    -0.378 C  
BRANCH   8   9
HETATM    9  C   UNL     1     -10.094   5.119  68.413  1.00  0.00    -0.138 C  
BRANCH   9  10
HETATM   10  O   UNL     1     -10.082   4.724  67.049  1.00  0.00    -0.202 OA 
HETATM   11  S   UNL     1      -8.707   4.985  66.214  1.00  0.00    -0.119 S  
HETATM   12  O   UNL     1      -7.689   4.091  66.719  1.00  0.00    -0.087 OA 
HETATM   13  O   UNL     1      -8.496   6.413  66.108  1.00  0.00    -0.127 OA 
HETATM   14  C   UNL     1      -9.277   4.373  64.649  1.00  0.00    -0.156 C  
ENDBRANCH   9  10
ENDBRANCH   8   9
ENDBRANCH   7   8
ENDBRANCH   6   7
ENDBRANCH   3   6
TORSDOF 5
ENDMDL
MODEL      247
REMARK 921   NORMALIZED FREE ENERGY PREDICTED BY IDOCK:   -2.35 KCAL/MOL
REMARK 922        TOTAL FREE ENERGY PREDICTED BY IDOCK:   -3.23 KCAL/MOL
REMARK 923 INTER-LIGAND FREE ENERGY PREDICTED BY IDOCK:   -2.92 KCAL/MOL
REMARK 924 INTRA-LIGAND FREE ENERGY PREDICTED BY IDOCK:   -0.31 KCAL/MOL
REMARK 927      BINDING AFFINITY PREDICTED BY RF-SCORE:    0.00 PKD
ROOT
HETATM    1  C   UNL     1     -10.325   5.190  67.064  1.00  0.00    -0.217 C  
HETATM    2  S   UNL     1      -9.679   6.135  68.424  1.00  0.00    -0.126 S  
HETATM    3  O   UNL     1     -11.068   6.871  68.853  1.00  0.00    -0.192 OA 
HETATM    4  O   UNL     1      -9.301   5.223  69.481  1.00  0.00    -0.119 OA 
HETATM    5  O   UNL     1      -8.770   7.133  67.904  1.00  0.00    -0.126 OA 
ENDROOT
BRANCH   3   6
HETATM    6  C   UNL     1     -10.993   7.799  69.927  1.00  0.00    -0.190 C  
BRANCH   6   7
HETATM    7  C   UNL     1     -11.804   7.287  71.112  1.00  0.00    -0.345 C  
BRANCH   7   8
HETATM    8  C   UNL     1     -11.519   8.012  72.434  1.00  0.00    -0.449 C  
BRANCH   8   9
HETATM    9  C   UNL     1     -10.592   7.251  73.376  1.00  0.00    -0.389 C  
BRANCH   9  10
HETATM   10  O   UNL     1     -10.231   6.014  72.780  1.00  0.00    -0.180 OA 
HETATM   11  S   UNL     1      -9.859   4.787  73.785  1.00  0.00    -0.155 S  
HETATM   12  O   UNL     1     -11.068   4.368  74.461  1.00  0.00    -0.195 OA 
HETATM   13  O   UNL     1      -8.652   5.129  74.506  1.00  0.00    -0.109 OA 
HETATM   14  C   UNL     1      -9.461   3.588  72.537  1.00  0.00    -0.124 C  
ENDBRANCH   9  10
ENDBRANCH   8   9
ENDBRANCH   7   8
ENDBRANCH   6   7
ENDBRANCH   3   6
TORSDOF 5
ENDMDL
MODEL      248
REMARK 921   NORMALIZED FREE ENERGY PREDICTED BY IDOCK:   -2.35 KCAL/MOL
REMARK 922        TOTAL FREE ENERGY PREDICTED BY IDOCK:   -3.22 KCAL/MOL
REMARK 923 INTER-LIGAND FREE ENERGY PREDICTED BY IDOCK:   -2.81 KCAL/MOL
REMARK 924 INTRA-LIGAND FREE ENERGY PREDICTED BY IDOCK:   -0.41 KCAL/MOL
REMARK 927      BINDING AFFINITY PREDICTED BY RF-SCORE:    0.00 PKD
ROOT
HETATM    1  C   UNL     1      -7.701  12.081  68.639  1.00  0.00    -0.099 C  
HETATM    2  S   UNL     1      -7.381  10.481  69.342  1.00  0.00    -0.143 S  
HETATM    3  O   UNL     1      -8.928   9.974  69.434  1.00  0.00    -0.169 OA 
HETATM    4  O   UNL     1      -6.694   9.673  68.359  1.00  0.00    -0.056 OA 
HETATM    5  O   UNL     1      -6.873  10.657  70.686  1.00  0.00    -0.303 OA 
ENDROOT
BRANCH   3   6
HETATM    6  C   UNL     1      -9.146   8.693  70.010  1.00  0.00    -0.156 C  
BRANCH   6   7
HETATM    7  C   UNL     1      -9.427   7.672  68.912  1.00  0.00    -0.149 C  
BRANCH   7   8
HETATM    8  C   UNL     1     -10.361   8.176  67.805  1.00  0.00    -0.295 C  
BRANCH   8   9
HETATM    9  C   UNL     1      -9.676   8.394  66.461  1.00  0.00    -0.260 C  
BRANCH   9  10
HETATM   10  O   UNL     1     -10.119   9.622  65.902  1.00  0.00    -0.288 OA 
HETATM   11  S   UNL     1      -9.181  10.296  64.753  1.00  0.00    -0.267 S  
HETATM   12  O   UNL     1      -9.248   9.470  63.568  1.00  0.00    -0.197 OA 
HETATM   13  O   UNL     1      -7.922  10.683  65.353  1.00  0.00    -0.148 OA 
HETATM   14  C   UNL     1     -10.162  11.751  64.489  1.00  0.00    -0.284 C  
ENDBRANCH   9  10
ENDBRANCH   8   9
ENDBRANCH   7   8
ENDBRANCH   6   7
ENDBRANCH   3   6
TORSDOF 5
ENDMDL
MODEL      249
REMARK 921   NORMALIZED FREE ENERGY PREDICTED BY IDOCK:   -2.33 KCAL/MOL
REMARK 922        TOTAL FREE ENERGY PREDICTED BY IDOCK:   -3.19 KCAL/MOL
REMARK 923 INTER-LIGAND FREE ENERGY PREDICTED BY IDOCK:   -3.09 KCAL/MOL
REMARK 924 INTRA-LIGAND FREE ENERGY PREDICTED BY IDOCK:   -0.11 KCAL/MOL
REMARK 927      BINDING AFFINITY PREDICTED BY RF-SCORE:    0.00 PKD
ROOT
HETATM    1  C   UNL     1     -13.432   9.179  72.701  1.00  0.00    -0.331 C  
HETATM    2  S   UNL     1     -12.011   8.196  72.286  1.00  0.00    -0.378 S  
HETATM    3  O   UNL     1     -11.150   9.365  71.545  1.00  0.00    -0.355 OA 
HETATM    4  O   UNL     1     -11.329   7.832  73.509  1.00  0.00    -0.193 OA 
HETATM    5  O   UNL     1     -12.399   7.212  71.298  1.00  0.00    -0.344 OA 
ENDROOT
BRANCH   3   6
HETATM    6  C   UNL     1      -9.897   8.981  70.993  1.00  0.00    -0.282 C  
BRANCH   6   7
HETATM    7  C   UNL     1     -10.024   8.823  69.481  1.00  0.00    -0.195 C  
BRANCH   7   8
HETATM    8  C   UNL     1      -9.517   7.479  68.942  1.00  0.00    -0.145 C  
BRANCH   8   9
HETATM    9  C   UNL     1     -10.393   6.287  69.314  1.00  0.00    -0.218 C  
BRANCH   9  10
HETATM   10  O   UNL     1      -9.565   5.179  69.633  1.00  0.00    -0.140 OA 
HETATM   11  S   UNL     1      -9.254   4.915  71.211  1.00  0.00    -0.150 S  
HETATM   12  O   UNL     1     -10.475   4.477  71.849  1.00  0.00    -0.166 OA 
HETATM   13  O   UNL     1      -8.472   6.022  71.719  1.00  0.00    -0.125 OA 
HETATM   14  C   UNL     1      -8.189   3.511  70.997  1.00  0.00    -0.066 C  
ENDBRANCH   9  10
ENDBRANCH   8   9
ENDBRANCH   7   8
ENDBRANCH   6   7
ENDBRANCH   3   6
TORSDOF 5
ENDMDL
MODEL      250
REMARK 921   NORMALIZED FREE ENERGY PREDICTED BY IDOCK:   -2.33 KCAL/MOL
REMARK 922        TOTAL FREE ENERGY PREDICTED BY IDOCK:   -3.19 KCAL/MOL
REMARK 923 INTER-LIGAND FREE ENERGY PREDICTED BY IDOCK:   -2.89 KCAL/MOL
REMARK 924 INTRA-LIGAND FREE ENERGY PREDICTED BY IDOCK:   -0.31 KCAL/MOL
REMARK 927      BINDING AFFINITY PREDICTED BY RF-SCORE:    0.00 PKD
ROOT
HETATM    1  C   UNL     1     -10.927   7.732  73.027  1.00  0.00    -0.381 C  
HETATM    2  S   UNL     1     -11.699   8.224  71.504  1.00  0.00    -0.307 S  
HETATM    3  O   UNL     1     -10.567   9.294  71.025  1.00  0.00    -0.263 OA 
HETATM    4  O   UNL     1     -11.680   7.101  70.593  1.00  0.00    -0.313 OA 
HETATM    5  O   UNL     1     -12.915   8.946  71.812  1.00  0.00    -0.326 OA 
ENDROOT
BRANCH   3   6
HETATM    6  C   UNL     1     -10.820   9.990  69.812  1.00  0.00    -0.273 C  
BRANCH   6   7
HETATM    7  C   UNL     1      -9.760   9.629  68.776  1.00  0.00    -0.167 C  
BRANCH   7   8
HETATM    8  C   UNL     1     -10.254   9.676  67.324  1.00  0.00    -0.292 C  
BRANCH   8   9
HETATM    9  C   UNL     1      -9.463   8.791  66.367  1.00  0.00    -0.228 C  
BRANCH   9  10
HETATM   10  O   UNL     1      -8.432   8.128  67.085  1.00  0.00    -0.121 OA 
HETATM   11  S   UNL     1      -6.914   8.284  66.515  1.00  0.00    -0.069 S  
HETATM   12  O   UNL     1      -6.488   9.651  66.718  1.00  0.00    -0.065 OA 
HETATM   13  O   UNL     1      -6.836   7.635  65.224  1.00  0.00    -0.047 OA 
HETATM   14  C   UNL     1      -6.116   7.255  67.722  1.00  0.00    -0.035 C  
ENDBRANCH   9  10
ENDBRANCH   8   9
ENDBRANCH   7   8
ENDBRANCH   6   7
ENDBRANCH   3   6
TORSDOF 5
ENDMDL
MODEL      251
REMARK 921   NORMALIZED FREE ENERGY PREDICTED BY IDOCK:   -2.32 KCAL/MOL
REMARK 922        TOTAL FREE ENERGY PREDICTED BY IDOCK:   -3.19 KCAL/MOL
REMARK 923 INTER-LIGAND FREE ENERGY PREDICTED BY IDOCK:   -3.21 KCAL/MOL
REMARK 924 INTRA-LIGAND FREE ENERGY PREDICTED BY IDOCK:    0.02 KCAL/MOL
REMARK 927      BINDING AFFINITY PREDICTED BY RF-SCORE:    0.00 PKD
ROOT
HETATM    1  C   UNL     1      -6.506  10.166  65.206  1.00  0.00    -0.119 C  
HETATM    2  S   UNL     1      -7.582   8.771  65.436  1.00  0.00    -0.089 S  
HETATM    3  O   UNL     1      -8.884   9.590  65.973  1.00  0.00    -0.143 OA 
HETATM    4  O   UNL     1      -7.896   8.213  64.139  1.00  0.00    -0.129 OA 
HETATM    5  O   UNL     1      -7.067   7.961  66.520  1.00  0.00    -0.072 OA 
ENDROOT
BRANCH   3   6
HETATM    6  C   UNL     1     -10.020   8.815  66.337  1.00  0.00    -0.275 C  
BRANCH   6   7
HETATM    7  C   UNL     1     -10.381   9.077  67.795  1.00  0.00    -0.304 C  
BRANCH   7   8
HETATM    8  C   UNL     1     -11.060  10.430  68.044  1.00  0.00    -0.359 C  
BRANCH   8   9
HETATM    9  C   UNL     1     -10.156  11.635  67.809  1.00  0.00    -0.187 C  
BRANCH   9  10
HETATM   10  O   UNL     1     -10.770  12.794  68.353  1.00  0.00    -0.235 OA 
HETATM   11  S   UNL     1     -11.124  14.001  67.318  1.00  0.00    -0.311 S  
HETATM   12  O   UNL     1     -12.198  13.561  66.455  1.00  0.00    -0.415 OA 
HETATM   13  O   UNL     1      -9.887  14.542  66.797  1.00  0.00    -0.249 OA 
HETATM   14  C   UNL     1     -11.785  15.135  68.514  1.00  0.00    -0.325 C  
ENDBRANCH   9  10
ENDBRANCH   8   9
ENDBRANCH   7   8
ENDBRANCH   6   7
ENDBRANCH   3   6
TORSDOF 5
ENDMDL
MODEL      252
REMARK 921   NORMALIZED FREE ENERGY PREDICTED BY IDOCK:   -2.30 KCAL/MOL
REMARK 922        TOTAL FREE ENERGY PREDICTED BY IDOCK:   -3.16 KCAL/MOL
REMARK 923 INTER-LIGAND FREE ENERGY PREDICTED BY IDOCK:   -3.00 KCAL/MOL
REMARK 924 INTRA-LIGAND FREE ENERGY PREDICTED BY IDOCK:   -0.16 KCAL/MOL
REMARK 927      BINDING AFFINITY PREDICTED BY RF-SCORE:    0.00 PKD
ROOT
HETATM    1  C   UNL     1      -7.919  10.059  64.032  1.00  0.00    -0.151 C  
HETATM    2  S   UNL     1      -9.280  10.480  65.095  1.00  0.00    -0.223 S  
HETATM    3  O   UNL     1      -9.364   9.068  65.906  1.00  0.00    -0.212 OA 
HETATM    4  O   UNL     1      -8.847  11.509  66.014  1.00  0.00    -0.200 OA 
HETATM    5  O   UNL     1     -10.473  10.619  64.288  1.00  0.00    -0.349 OA 
ENDROOT
BRANCH   3   6
HETATM    6  C   UNL     1     -10.398   8.949  66.874  1.00  0.00    -0.262 C  
BRANCH   6   7
HETATM    7  C   UNL     1     -10.537   7.493  67.308  1.00  0.00    -0.394 C  
BRANCH   7   8
HETATM    8  C   UNL     1     -10.047   7.210  68.734  1.00  0.00    -0.175 C  
BRANCH   8   9
HETATM    9  C   UNL     1     -10.981   6.323  69.550  1.00  0.00    -0.379 C  
BRANCH   9  10
HETATM   10  O   UNL     1     -11.017   6.788  70.891  1.00  0.00    -0.239 OA 
HETATM   11  S   UNL     1     -10.468   5.775  72.042  1.00  0.00    -0.225 S  
HETATM   12  O   UNL     1      -9.036   5.640  71.887  1.00  0.00    -0.138 OA 
HETATM   13  O   UNL     1     -11.348   4.628  72.106  1.00  0.00     0.196 OA 
HETATM   14  C   UNL     1     -10.793   6.825  73.437  1.00  0.00    -0.253 C  
ENDBRANCH   9  10
ENDBRANCH   8   9
ENDBRANCH   7   8
ENDBRANCH   6   7
ENDBRANCH   3   6
TORSDOF 5
ENDMDL
MODEL      253
REMARK 921   NORMALIZED FREE ENERGY PREDICTED BY IDOCK:   -2.30 KCAL/MOL
REMARK 922        TOTAL FREE ENERGY PREDICTED BY IDOCK:   -3.16 KCAL/MOL
REMARK 923 INTER-LIGAND FREE ENERGY PREDICTED BY IDOCK:   -4.02 KCAL/MOL
REMARK 924 INTRA-LIGAND FREE ENERGY PREDICTED BY IDOCK:    0.86 KCAL/MOL
REMARK 927      BINDING AFFINITY PREDICTED BY RF-SCORE:    0.00 PKD
ROOT
HETATM    1  C   UNL     1      -6.895  15.745  67.375  1.00  0.00    -0.201 C  
HETATM    2  S   UNL     1      -8.241  16.895  67.221  1.00  0.00    -0.191 S  
HETATM    3  O   UNL     1      -9.307  15.886  66.513  1.00  0.00    -0.234 OA 
HETATM    4  O   UNL     1      -8.726  17.217  68.545  1.00  0.00    -0.260 OA 
HETATM    5  O   UNL     1      -7.870  17.918  66.266  1.00  0.00    -0.287 OA 
ENDROOT
BRANCH   3   6
HETATM    6  C   UNL     1     -10.568  16.437  66.157  1.00  0.00    -0.255 C  
BRANCH   6   7
HETATM    7  C   UNL     1     -10.926  16.033  64.731  1.00  0.00    -0.373 C  
BRANCH   7   8
HETATM    8  C   UNL     1     -11.399  14.581  64.586  1.00  0.00    -0.372 C  
BRANCH   8   9
HETATM    9  C   UNL     1     -12.616  14.232  65.437  1.00  0.00    -0.410 C  
BRANCH   9  10
HETATM   10  O   UNL     1     -12.415  12.965  66.045  1.00  0.00    -0.509 OA 
HETATM   11  S   UNL     1     -10.875  12.468  66.231  1.00  0.00    -0.278 S  
HETATM   12  O   UNL     1     -10.243  13.301  67.230  1.00  0.00    -0.237 OA 
HETATM   13  O   UNL     1     -10.295  12.260  64.921  1.00  0.00    -0.276 OA 
HETATM   14  C   UNL     1     -11.236  10.887  66.955  1.00  0.00    -0.137 C  
ENDBRANCH   9  10
ENDBRANCH   8   9
ENDBRANCH   7   8
ENDBRANCH   6   7
ENDBRANCH   3   6
TORSDOF 5
ENDMDL
MODEL      254
REMARK 921   NORMALIZED FREE ENERGY PREDICTED BY IDOCK:   -2.29 KCAL/MOL
REMARK 922        TOTAL FREE ENERGY PREDICTED BY IDOCK:   -3.15 KCAL/MOL
REMARK 923 INTER-LIGAND FREE ENERGY PREDICTED BY IDOCK:   -2.76 KCAL/MOL
REMARK 924 INTRA-LIGAND FREE ENERGY PREDICTED BY IDOCK:   -0.40 KCAL/MOL
REMARK 927      BINDING AFFINITY PREDICTED BY RF-SCORE:    0.00 PKD
ROOT
HETATM    1  C   UNL     1      -6.302  10.236  69.079  1.00  0.00    -0.044 C  
HETATM    2  S   UNL     1      -7.204   9.237  70.239  1.00  0.00    -0.102 S  
HETATM    3  O   UNL     1      -8.693   9.810  69.904  1.00  0.00    -0.192 OA 
HETATM    4  O   UNL     1      -7.139   7.858  69.810  1.00  0.00    -0.059 OA 
HETATM    5  O   UNL     1      -6.845   9.645  71.581  1.00  0.00    -0.309 OA 
ENDROOT
BRANCH   3   6
HETATM    6  C   UNL     1      -9.766   9.288  70.676  1.00  0.00    -0.272 C  
BRANCH   6   7
HETATM    7  C   UNL     1     -10.687   8.457  69.789  1.00  0.00    -0.211 C  
BRANCH   7   8
HETATM    8  C   UNL     1     -11.271   7.214  70.473  1.00  0.00    -0.321 C  
BRANCH   8   9
HETATM    9  C   UNL     1     -10.864   5.895  69.825  1.00  0.00    -0.377 C  
BRANCH   9  10
HETATM   10  O   UNL     1      -9.816   6.132  68.897  1.00  0.00    -0.133 OA 
HETATM   11  S   UNL     1      -9.899   5.353  67.469  1.00  0.00    -0.162 S  
HETATM   12  O   UNL     1     -11.001   5.903  66.711  1.00  0.00    -0.299 OA 
HETATM   13  O   UNL     1      -9.762   3.932  67.710  1.00  0.00    -0.168 OA 
HETATM   14  C   UNL     1      -8.378   5.968  66.790  1.00  0.00    -0.106 C  
ENDBRANCH   9  10
ENDBRANCH   8   9
ENDBRANCH   7   8
ENDBRANCH   6   7
ENDBRANCH   3   6
TORSDOF 5
ENDMDL
MODEL      255
REMARK 921   NORMALIZED FREE ENERGY PREDICTED BY IDOCK:   -2.28 KCAL/MOL
REMARK 922        TOTAL FREE ENERGY PREDICTED BY IDOCK:   -3.14 KCAL/MOL
REMARK 923 INTER-LIGAND FREE ENERGY PREDICTED BY IDOCK:   -2.91 KCAL/MOL
REMARK 924 INTRA-LIGAND FREE ENERGY PREDICTED BY IDOCK:   -0.22 KCAL/MOL
REMARK 927      BINDING AFFINITY PREDICTED BY RF-SCORE:    0.00 PKD
ROOT
HETATM    1  C   UNL     1      -7.894   4.563  70.670  1.00  0.00    -0.057 C  
HETATM    2  S   UNL     1      -8.344   4.574  72.389  1.00  0.00    -0.111 S  
HETATM    3  O   UNL     1      -9.672   5.510  72.257  1.00  0.00    -0.154 OA 
HETATM    4  O   UNL     1      -8.761   3.241  72.765  1.00  0.00    -0.083 OA 
HETATM    5  O   UNL     1      -7.337   5.304  73.128  1.00  0.00    -0.088 OA 
ENDROOT
BRANCH   3   6
HETATM    6  C   UNL     1     -10.353   5.825  73.465  1.00  0.00    -0.236 C  
BRANCH   6   7
HETATM    7  C   UNL     1     -10.625   7.324  73.531  1.00  0.00    -0.408 C  
BRANCH   7   8
HETATM    8  C   UNL     1     -11.431   7.872  72.346  1.00  0.00    -0.433 C  
BRANCH   8   9
HETATM    9  C   UNL     1     -10.775   9.053  71.638  1.00  0.00    -0.371 C  
BRANCH   9  10
HETATM   10  O   UNL     1      -9.766   8.572  70.762  1.00  0.00    -0.170 OA 
HETATM   11  S   UNL     1     -10.236   8.118  69.270  1.00  0.00    -0.216 S  
HETATM   12  O   UNL     1     -10.629   9.300  68.535  1.00  0.00    -0.213 OA 
HETATM   13  O   UNL     1     -11.097   6.961  69.388  1.00  0.00    -0.244 OA 
HETATM   14  C   UNL     1      -8.644   7.590  68.686  1.00  0.00    -0.129 C  
ENDBRANCH   9  10
ENDBRANCH   8   9
ENDBRANCH   7   8
ENDBRANCH   6   7
ENDBRANCH   3   6
TORSDOF 5
ENDMDL
MODEL      256
REMARK 921   NORMALIZED FREE ENERGY PREDICTED BY IDOCK:   -2.28 KCAL/MOL
REMARK 922        TOTAL FREE ENERGY PREDICTED BY IDOCK:   -3.13 KCAL/MOL
REMARK 923 INTER-LIGAND FREE ENERGY PREDICTED BY IDOCK:   -2.94 KCAL/MOL
REMARK 924 INTRA-LIGAND FREE ENERGY PREDICTED BY IDOCK:   -0.19 KCAL/MOL
REMARK 927      BINDING AFFINITY PREDICTED BY RF-SCORE:    0.00 PKD
ROOT
HETATM    1  C   UNL     1      -6.757   3.586  68.123  1.00  0.00    -0.046 C  
HETATM    2  S   UNL     1      -7.677   3.937  66.645  1.00  0.00    -0.089 S  
HETATM    3  O   UNL     1      -8.569   5.167  67.234  1.00  0.00    -0.106 OA 
HETATM    4  O   UNL     1      -6.770   4.466  65.651  1.00  0.00    -0.050 OA 
HETATM    5  O   UNL     1      -8.556   2.821  66.369  1.00  0.00    -0.099 OA 
ENDROOT
BRANCH   3   6
HETATM    6  C   UNL     1      -9.522   5.744  66.350  1.00  0.00    -0.156 C  
BRANCH   6   7
HETATM    7  C   UNL     1     -10.550   6.541  67.146  1.00  0.00    -0.398 C  
BRANCH   7   8
HETATM    8  C   UNL     1     -10.172   6.773  68.614  1.00  0.00    -0.184 C  
BRANCH   8   9
HETATM    9  C   UNL     1     -10.306   8.220  69.074  1.00  0.00    -0.221 C  
BRANCH   9  10
HETATM   10  O   UNL     1     -11.394   8.325  69.981  1.00  0.00    -0.154 OA 
HETATM   11  S   UNL     1     -11.277   9.453  71.151  1.00  0.00    -0.387 S  
HETATM   12  O   UNL     1     -11.368  10.759  70.537  1.00  0.00    -0.307 OA 
HETATM   13  O   UNL     1     -10.191   9.090  72.036  1.00  0.00    -0.339 OA 
HETATM   14  C   UNL     1     -12.817   9.096  71.959  1.00  0.00    -0.408 C  
ENDBRANCH   9  10
ENDBRANCH   8   9
ENDBRANCH   7   8
ENDBRANCH   6   7
ENDBRANCH   3   6
TORSDOF 5
ENDMDL
MODEL      257
REMARK 921   NORMALIZED FREE ENERGY PREDICTED BY IDOCK:   -2.27 KCAL/MOL
REMARK 922        TOTAL FREE ENERGY PREDICTED BY IDOCK:   -3.12 KCAL/MOL
REMARK 923 INTER-LIGAND FREE ENERGY PREDICTED BY IDOCK:   -2.81 KCAL/MOL
REMARK 924 INTRA-LIGAND FREE ENERGY PREDICTED BY IDOCK:   -0.32 KCAL/MOL
REMARK 927      BINDING AFFINITY PREDICTED BY RF-SCORE:    0.00 PKD
ROOT
HETATM    1  C   UNL     1     -11.990  12.552  69.872  1.00  0.00    -0.301 C  
HETATM    2  S   UNL     1     -11.403  11.058  69.107  1.00  0.00    -0.309 S  
HETATM    3  O   UNL     1      -9.838  11.491  68.964  1.00  0.00    -0.127 OA 
HETATM    4  O   UNL     1     -11.493   9.982  70.069  1.00  0.00    -0.251 OA 
HETATM    5  O   UNL     1     -11.977  10.959  67.783  1.00  0.00    -0.553 OA 
ENDROOT
BRANCH   3   6
HETATM    6  C   UNL     1      -8.974  10.557  68.330  1.00  0.00    -0.141 C  
BRANCH   6   7
HETATM    7  C   UNL     1      -8.083  11.276  67.323  1.00  0.00    -0.140 C  
BRANCH   7   8
HETATM    8  C   UNL     1      -6.714  10.616  67.107  1.00  0.00    -0.081 C  
BRANCH   8   9
HETATM    9  C   UNL     1      -6.523  10.015  65.719  1.00  0.00    -0.099 C  
BRANCH   9  10
HETATM   10  O   UNL     1      -7.393  10.665  64.803  1.00  0.00    -0.014 OA 
HETATM   11  S   UNL     1      -8.413   9.721  63.953  1.00  0.00    -0.201 S  
HETATM   12  O   UNL     1      -9.401   9.183  64.861  1.00  0.00    -0.161 OA 
HETATM   13  O   UNL     1      -7.636   8.877  63.071  1.00  0.00    -0.102 OA 
HETATM   14  C   UNL     1      -9.165  11.013  62.994  1.00  0.00    -0.326 C  
ENDBRANCH   9  10
ENDBRANCH   8   9
ENDBRANCH   7   8
ENDBRANCH   6   7
ENDBRANCH   3   6
TORSDOF 5
ENDMDL
MODEL      258
REMARK 921   NORMALIZED FREE ENERGY PREDICTED BY IDOCK:   -2.26 KCAL/MOL
REMARK 922        TOTAL FREE ENERGY PREDICTED BY IDOCK:   -3.11 KCAL/MOL
REMARK 923 INTER-LIGAND FREE ENERGY PREDICTED BY IDOCK:   -3.11 KCAL/MOL
REMARK 924 INTRA-LIGAND FREE ENERGY PREDICTED BY IDOCK:   -0.01 KCAL/MOL
REMARK 927      BINDING AFFINITY PREDICTED BY RF-SCORE:    0.00 PKD
ROOT
HETATM    1  C   UNL     1      -9.704   4.126  67.447  1.00  0.00    -0.154 C  
HETATM    2  S   UNL     1      -9.520   5.453  68.616  1.00  0.00    -0.130 S  
HETATM    3  O   UNL     1     -10.302   6.600  67.762  1.00  0.00    -0.159 OA 
HETATM    4  O   UNL     1     -10.305   5.144  69.791  1.00  0.00    -0.271 OA 
HETATM    5  O   UNL     1      -8.121   5.810  68.695  1.00  0.00    -0.100 OA 
ENDROOT
BRANCH   3   6
HETATM    6  C   UNL     1     -10.355   7.899  68.338  1.00  0.00    -0.199 C  
BRANCH   6   7
HETATM    7  C   UNL     1     -10.594   8.940  67.250  1.00  0.00    -0.304 C  
BRANCH   7   8
HETATM    8  C   UNL     1     -10.276  10.380  67.671  1.00  0.00    -0.240 C  
BRANCH   8   9
HETATM    9  C   UNL     1     -11.411  11.368  67.426  1.00  0.00    -0.288 C  
BRANCH   9  10
HETATM   10  O   UNL     1     -10.947  12.416  66.588  1.00  0.00    -0.249 OA 
HETATM   11  S   UNL     1     -10.259  13.700  67.317  1.00  0.00    -0.247 S  
HETATM   12  O   UNL     1      -8.993  13.281  67.878  1.00  0.00    -0.180 OA 
HETATM   13  O   UNL     1     -11.265  14.378  68.105  1.00  0.00    -0.260 OA 
HETATM   14  C   UNL     1      -9.944  14.648  65.850  1.00  0.00    -0.328 C  
ENDBRANCH   9  10
ENDBRANCH   8   9
ENDBRANCH   7   8
ENDBRANCH   6   7
ENDBRANCH   3   6
TORSDOF 5
ENDMDL
MODEL      259
REMARK 921   NORMALIZED FREE ENERGY PREDICTED BY IDOCK:   -2.26 KCAL/MOL
REMARK 922        TOTAL FREE ENERGY PREDICTED BY IDOCK:   -3.11 KCAL/MOL
REMARK 923 INTER-LIGAND FREE ENERGY PREDICTED BY IDOCK:   -2.89 KCAL/MOL
REMARK 924 INTRA-LIGAND FREE ENERGY PREDICTED BY IDOCK:   -0.22 KCAL/MOL
REMARK 927      BINDING AFFINITY PREDICTED BY RF-SCORE:    0.00 PKD
ROOT
HETATM    1  C   UNL     1     -12.736  10.108  70.809  1.00  0.00    -0.311 C  
HETATM    2  S   UNL     1     -12.832   8.594  71.735  1.00  0.00    -0.377 S  
HETATM    3  O   UNL     1     -11.323   8.625  72.352  1.00  0.00    -0.359 OA 
HETATM    4  O   UNL     1     -13.772   8.775  72.819  1.00  0.00    -0.361 OA 
HETATM    5  O   UNL     1     -12.927   7.488  70.807  1.00  0.00    -0.070 OA 
ENDROOT
BRANCH   3   6
HETATM    6  C   UNL     1     -10.942   7.519  73.161  1.00  0.00    -0.367 C  
BRANCH   6   7
HETATM    7  C   UNL     1      -9.473   7.644  73.551  1.00  0.00    -0.347 C  
BRANCH   7   8
HETATM    8  C   UNL     1      -8.514   6.841  72.663  1.00  0.00    -0.127 C  
BRANCH   8   9
HETATM    9  C   UNL     1      -9.151   5.630  71.990  1.00  0.00    -0.137 C  
BRANCH   9  10
HETATM   10  O   UNL     1      -8.135   4.839  71.391  1.00  0.00    -0.097 OA 
HETATM   11  S   UNL     1      -8.559   3.945  70.097  1.00  0.00    -0.067 S  
HETATM   12  O   UNL     1      -8.829   4.840  68.993  1.00  0.00    -0.090 OA 
HETATM   13  O   UNL     1      -9.505   2.936  70.522  1.00  0.00    -0.145 OA 
HETATM   14  C   UNL     1      -6.981   3.175  69.831  1.00  0.00    -0.034 C  
ENDBRANCH   9  10
ENDBRANCH   8   9
ENDBRANCH   7   8
ENDBRANCH   6   7
ENDBRANCH   3   6
TORSDOF 5
ENDMDL
MODEL      260
REMARK 921   NORMALIZED FREE ENERGY PREDICTED BY IDOCK:   -2.26 KCAL/MOL
REMARK 922        TOTAL FREE ENERGY PREDICTED BY IDOCK:   -3.11 KCAL/MOL
REMARK 923 INTER-LIGAND FREE ENERGY PREDICTED BY IDOCK:   -3.31 KCAL/MOL
REMARK 924 INTRA-LIGAND FREE ENERGY PREDICTED BY IDOCK:    0.20 KCAL/MOL
REMARK 927      BINDING AFFINITY PREDICTED BY RF-SCORE:    0.00 PKD
ROOT
HETATM    1  C   UNL     1      -6.375   8.354  65.458  1.00  0.00    -0.048 C  
HETATM    2  S   UNL     1      -7.094   8.067  63.858  1.00  0.00    -0.088 S  
HETATM    3  O   UNL     1      -7.963   9.443  63.763  1.00  0.00    -0.127 OA 
HETATM    4  O   UNL     1      -6.044   8.121  62.864  1.00  0.00    -0.075 OA 
HETATM    5  O   UNL     1      -8.008   6.950  63.954  1.00  0.00    -0.117 OA 
ENDROOT
BRANCH   3   6
HETATM    6  C   UNL     1      -8.767   9.610  62.603  1.00  0.00    -0.222 C  
BRANCH   6   7
HETATM    7  C   UNL     1      -8.987  11.096  62.335  1.00  0.00    -0.321 C  
BRANCH   7   8
HETATM    8  C   UNL     1      -9.704  11.843  63.467  1.00  0.00    -0.287 C  
BRANCH   8   9
HETATM    9  C   UNL     1     -11.112  11.335  63.757  1.00  0.00    -0.231 C  
BRANCH   9  10
HETATM   10  O   UNL     1     -11.427  11.581  65.120  1.00  0.00    -0.165 OA 
HETATM   11  S   UNL     1     -11.633  13.135  65.564  1.00  0.00    -0.352 S  
HETATM   12  O   UNL     1     -12.851  13.625  64.957  1.00  0.00    -0.690 OA 
HETATM   13  O   UNL     1     -10.370  13.827  65.425  1.00  0.00    -0.305 OA 
HETATM   14  C   UNL     1     -11.937  12.835  67.287  1.00  0.00    -0.280 C  
ENDBRANCH   9  10
ENDBRANCH   8   9
ENDBRANCH   7   8
ENDBRANCH   6   7
ENDBRANCH   3   6
TORSDOF 5
ENDMDL
MODEL      261
REMARK 921   NORMALIZED FREE ENERGY PREDICTED BY IDOCK:   -2.25 KCAL/MOL
REMARK 922        TOTAL FREE ENERGY PREDICTED BY IDOCK:   -3.09 KCAL/MOL
REMARK 923 INTER-LIGAND FREE ENERGY PREDICTED BY IDOCK:   -2.88 KCAL/MOL
REMARK 924 INTRA-LIGAND FREE ENERGY PREDICTED BY IDOCK:   -0.22 KCAL/MOL
REMARK 927      BINDING AFFINITY PREDICTED BY RF-SCORE:    0.00 PKD
ROOT
HETATM    1  C   UNL     1      -9.403   3.224  68.190  1.00  0.00    -0.187 C  
HETATM    2  S   UNL     1      -9.534   4.840  67.463  1.00  0.00    -0.155 S  
HETATM    3  O   UNL     1     -10.359   5.553  68.674  1.00  0.00    -0.186 OA 
HETATM    4  O   UNL     1      -8.214   5.427  67.402  1.00  0.00    -0.101 OA 
HETATM    5  O   UNL     1     -10.397   4.758  66.304  1.00  0.00    -0.265 OA 
ENDROOT
BRANCH   3   6
HETATM    6  C   UNL     1     -10.731   6.911  68.479  1.00  0.00    -0.207 C  
BRANCH   6   7
HETATM    7  C   UNL     1     -10.071   7.787  69.539  1.00  0.00    -0.194 C  
BRANCH   7   8
HETATM    8  C   UNL     1     -10.434   9.275  69.445  1.00  0.00    -0.229 C  
BRANCH   8   9
HETATM    9  C   UNL     1     -10.743   9.754  68.031  1.00  0.00    -0.247 C  
BRANCH   9  10
HETATM   10  O   UNL     1     -10.345  11.111  67.899  1.00  0.00    -0.176 OA 
HETATM   11  S   UNL     1      -9.897  11.611  66.414  1.00  0.00    -0.214 S  
HETATM   12  O   UNL     1     -11.070  11.636  65.568  1.00  0.00    -0.292 OA 
HETATM   13  O   UNL     1      -8.688  10.911  66.036  1.00  0.00    -0.176 OA 
HETATM   14  C   UNL     1      -9.479  13.278  66.857  1.00  0.00    -0.249 C  
ENDBRANCH   9  10
ENDBRANCH   8   9
ENDBRANCH   7   8
ENDBRANCH   6   7
ENDBRANCH   3   6
TORSDOF 5
ENDMDL
MODEL      262
REMARK 921   NORMALIZED FREE ENERGY PREDICTED BY IDOCK:   -2.25 KCAL/MOL
REMARK 922        TOTAL FREE ENERGY PREDICTED BY IDOCK:   -3.09 KCAL/MOL
REMARK 923 INTER-LIGAND FREE ENERGY PREDICTED BY IDOCK:   -2.84 KCAL/MOL
REMARK 924 INTRA-LIGAND FREE ENERGY PREDICTED BY IDOCK:   -0.25 KCAL/MOL
REMARK 927      BINDING AFFINITY PREDICTED BY RF-SCORE:    0.00 PKD
ROOT
HETATM    1  C   UNL     1      -6.864  14.745  69.782  1.00  0.00    -0.173 C  
HETATM    2  S   UNL     1      -7.489  15.650  68.386  1.00  0.00    -0.125 S  
HETATM    3  O   UNL     1      -8.874  14.815  68.191  1.00  0.00    -0.160 OA 
HETATM    4  O   UNL     1      -7.821  16.991  68.817  1.00  0.00    -0.243 OA 
HETATM    5  O   UNL     1      -6.633  15.396  67.247  1.00  0.00    -0.265 OA 
ENDROOT
BRANCH   3   6
HETATM    6  C   UNL     1      -9.702  15.198  67.100  1.00  0.00    -0.228 C  
BRANCH   6   7
HETATM    7  C   UNL     1     -10.450  13.982  66.564  1.00  0.00    -0.281 C  
BRANCH   7   8
HETATM    8  C   UNL     1      -9.545  12.812  66.158  1.00  0.00    -0.214 C  
BRANCH   8   9
HETATM    9  C   UNL     1     -10.189  11.439  66.318  1.00  0.00    -0.233 C  
BRANCH   9  10
HETATM   10  O   UNL     1      -9.264  10.557  66.938  1.00  0.00    -0.153 OA 
HETATM   11  S   UNL     1      -9.194   9.034  66.364  1.00  0.00    -0.206 S  
HETATM   12  O   UNL     1      -8.617   9.072  65.039  1.00  0.00    -0.165 OA 
HETATM   13  O   UNL     1     -10.454   8.378  66.639  1.00  0.00    -0.294 OA 
HETATM   14  C   UNL     1      -7.972   8.425  67.499  1.00  0.00    -0.106 C  
ENDBRANCH   9  10
ENDBRANCH   8   9
ENDBRANCH   7   8
ENDBRANCH   6   7
ENDBRANCH   3   6
TORSDOF 5
ENDMDL
MODEL      263
REMARK 921   NORMALIZED FREE ENERGY PREDICTED BY IDOCK:   -2.23 KCAL/MOL
REMARK 922        TOTAL FREE ENERGY PREDICTED BY IDOCK:   -3.08 KCAL/MOL
REMARK 923 INTER-LIGAND FREE ENERGY PREDICTED BY IDOCK:   -2.91 KCAL/MOL
REMARK 924 INTRA-LIGAND FREE ENERGY PREDICTED BY IDOCK:   -0.17 KCAL/MOL
REMARK 927      BINDING AFFINITY PREDICTED BY RF-SCORE:    0.00 PKD
ROOT
HETATM    1  C   UNL     1      -8.181  10.210  63.741  1.00  0.00    -0.163 C  
HETATM    2  S   UNL     1      -7.323   9.065  64.795  1.00  0.00    -0.103 S  
HETATM    3  O   UNL     1      -8.301   9.193  66.092  1.00  0.00    -0.115 OA 
HETATM    4  O   UNL     1      -7.466   7.735  64.244  1.00  0.00    -0.086 OA 
HETATM    5  O   UNL     1      -6.032   9.624  65.134  1.00  0.00    -0.066 OA 
ENDROOT
BRANCH   3   6
HETATM    6  C   UNL     1      -7.938   8.439  67.241  1.00  0.00    -0.105 C  
BRANCH   6   7
HETATM    7  C   UNL     1      -8.258   9.232  68.504  1.00  0.00    -0.114 C  
BRANCH   7   8
HETATM    8  C   UNL     1      -9.685   9.035  69.030  1.00  0.00    -0.167 C  
BRANCH   8   9
HETATM    9  C   UNL     1      -9.765   8.745  70.525  1.00  0.00    -0.190 C  
BRANCH   9  10
HETATM   10  O   UNL     1     -11.030   9.162  71.016  1.00  0.00    -0.254 OA 
HETATM   11  S   UNL     1     -11.909   8.060  71.834  1.00  0.00    -0.328 S  
HETATM   12  O   UNL     1     -11.251   7.798  73.095  1.00  0.00    -0.402 OA 
HETATM   13  O   UNL     1     -12.283   7.000  70.923  1.00  0.00    -0.364 OA 
HETATM   14  C   UNL     1     -13.327   9.084  72.135  1.00  0.00    -0.455 C  
ENDBRANCH   9  10
ENDBRANCH   8   9
ENDBRANCH   7   8
ENDBRANCH   6   7
ENDBRANCH   3   6
TORSDOF 5
ENDMDL
MODEL      264
REMARK 921   NORMALIZED FREE ENERGY PREDICTED BY IDOCK:   -2.22 KCAL/MOL
REMARK 922        TOTAL FREE ENERGY PREDICTED BY IDOCK:   -3.06 KCAL/MOL
REMARK 923 INTER-LIGAND FREE ENERGY PREDICTED BY IDOCK:   -2.79 KCAL/MOL
REMARK 924 INTRA-LIGAND FREE ENERGY PREDICTED BY IDOCK:   -0.27 KCAL/MOL
REMARK 927      BINDING AFFINITY PREDICTED BY RF-SCORE:    0.00 PKD
ROOT
HETATM    1  C   UNL     1      -7.971  10.251  67.901  1.00  0.00    -0.102 C  
HETATM    2  S   UNL     1      -8.035   9.557  69.536  1.00  0.00    -0.125 S  
HETATM    3  O   UNL     1      -9.637   9.725  69.779  1.00  0.00    -0.203 OA 
HETATM    4  O   UNL     1      -7.732   8.146  69.450  1.00  0.00    -0.098 OA 
HETATM    5  O   UNL     1      -7.336  10.442  70.443  1.00  0.00    -0.245 OA 
ENDROOT
BRANCH   3   6
HETATM    6  C   UNL     1     -10.137   9.315  71.045  1.00  0.00    -0.303 C  
BRANCH   6   7
HETATM    7  C   UNL     1     -11.435   8.535  70.862  1.00  0.00    -0.302 C  
BRANCH   7   8
HETATM    8  C   UNL     1     -12.077   8.061  72.172  1.00  0.00    -0.391 C  
BRANCH   8   9
HETATM    9  C   UNL     1     -11.619   6.680  72.628  1.00  0.00    -0.134 C  
BRANCH   9  10
HETATM   10  O   UNL     1     -10.985   6.015  71.546  1.00  0.00    -0.260 OA 
HETATM   11  S   UNL     1      -9.811   4.948  71.917  1.00  0.00    -0.191 S  
HETATM   12  O   UNL     1     -10.421   3.804  72.559  1.00  0.00    -0.160 OA 
HETATM   13  O   UNL     1      -8.704   5.666  72.510  1.00  0.00    -0.124 OA 
HETATM   14  C   UNL     1      -9.380   4.503  70.253  1.00  0.00    -0.148 C  
ENDBRANCH   9  10
ENDBRANCH   8   9
ENDBRANCH   7   8
ENDBRANCH   6   7
ENDBRANCH   3   6
TORSDOF 5
ENDMDL
MODEL      265
REMARK 921   NORMALIZED FREE ENERGY PREDICTED BY IDOCK:   -2.19 KCAL/MOL
REMARK 922        TOTAL FREE ENERGY PREDICTED BY IDOCK:   -3.02 KCAL/MOL
REMARK 923 INTER-LIGAND FREE ENERGY PREDICTED BY IDOCK:   -2.83 KCAL/MOL
REMARK 924 INTRA-LIGAND FREE ENERGY PREDICTED BY IDOCK:   -0.20 KCAL/MOL
REMARK 927      BINDING AFFINITY PREDICTED BY RF-SCORE:    0.00 PKD
ROOT
HETATM    1  C   UNL     1      -7.462   4.054  65.485  1.00  0.00    -0.081 C  
HETATM    2  S   UNL     1      -9.209   4.017  65.806  1.00  0.00    -0.161 S  
HETATM    3  O   UNL     1      -9.346   5.521  66.419  1.00  0.00    -0.143 OA 
HETATM    4  O   UNL     1      -9.910   3.974  64.541  1.00  0.00    -0.171 OA 
HETATM    5  O   UNL     1      -9.467   3.063  66.863  1.00  0.00    -0.150 OA 
ENDROOT
BRANCH   3   6
HETATM    6  C   UNL     1     -10.637   5.911  66.869  1.00  0.00    -0.315 C  
BRANCH   6   7
HETATM    7  C   UNL     1     -10.650   7.405  67.175  1.00  0.00    -0.413 C  
BRANCH   7   8
HETATM    8  C   UNL     1      -9.299   7.967  67.638  1.00  0.00    -0.161 C  
BRANCH   8   9
HETATM    9  C   UNL     1      -8.836   7.442  68.993  1.00  0.00    -0.132 C  
BRANCH   9  10
HETATM   10  O   UNL     1      -9.923   7.478  69.906  1.00  0.00    -0.185 OA 
HETATM   11  S   UNL     1     -10.147   6.166  70.844  1.00  0.00    -0.198 S  
HETATM   12  O   UNL     1      -9.058   6.091  71.792  1.00  0.00    -0.145 OA 
HETATM   13  O   UNL     1     -10.512   5.050  69.998  1.00  0.00    -0.276 OA 
HETATM   14  C   UNL     1     -11.598   6.741  71.691  1.00  0.00    -0.295 C  
ENDBRANCH   9  10
ENDBRANCH   8   9
ENDBRANCH   7   8
ENDBRANCH   6   7
ENDBRANCH   3   6
TORSDOF 5
ENDMDL
MODEL      266
REMARK 921   NORMALIZED FREE ENERGY PREDICTED BY IDOCK:   -2.16 KCAL/MOL
REMARK 922        TOTAL FREE ENERGY PREDICTED BY IDOCK:   -2.98 KCAL/MOL
REMARK 923 INTER-LIGAND FREE ENERGY PREDICTED BY IDOCK:   -2.69 KCAL/MOL
REMARK 924 INTRA-LIGAND FREE ENERGY PREDICTED BY IDOCK:   -0.29 KCAL/MOL
REMARK 927      BINDING AFFINITY PREDICTED BY RF-SCORE:    0.00 PKD
ROOT
HETATM    1  C   UNL     1      -6.945   9.179  70.799  1.00  0.00    -0.097 C  
HETATM    2  S   UNL     1      -8.635   8.671  71.007  1.00  0.00    -0.190 S  
HETATM    3  O   UNL     1      -9.334   9.942  70.263  1.00  0.00    -0.225 OA 
HETATM    4  O   UNL     1      -8.864   7.490  70.205  1.00  0.00    -0.145 OA 
HETATM    5  O   UNL     1      -8.965   8.723  72.415  1.00  0.00    -0.379 OA 
ENDROOT
BRANCH   3   6
HETATM    6  C   UNL     1     -10.755   9.963  70.239  1.00  0.00    -0.310 C  
BRANCH   6   7
HETATM    7  C   UNL     1     -11.244  10.384  68.857  1.00  0.00    -0.290 C  
BRANCH   7   8
HETATM    8  C   UNL     1     -10.318   9.970  67.706  1.00  0.00    -0.261 C  
BRANCH   8   9
HETATM    9  C   UNL     1      -9.462  11.104  67.154  1.00  0.00    -0.172 C  
BRANCH   9  10
HETATM   10  O   UNL     1      -8.676  10.617  66.077  1.00  0.00    -0.164 OA 
HETATM   11  S   UNL     1      -7.087  10.393  66.360  1.00  0.00    -0.125 S  
HETATM   12  O   UNL     1      -6.939   9.280  67.271  1.00  0.00    -0.079 OA 
HETATM   13  O   UNL     1      -6.476  11.681  66.610  1.00  0.00    -0.132 OA 
HETATM   14  C   UNL     1      -6.643   9.854  64.728  1.00  0.00    -0.121 C  
ENDBRANCH   9  10
ENDBRANCH   8   9
ENDBRANCH   7   8
ENDBRANCH   6   7
ENDBRANCH   3   6
TORSDOF 5
ENDMDL
MODEL      267
REMARK 921   NORMALIZED FREE ENERGY PREDICTED BY IDOCK:   -2.16 KCAL/MOL
REMARK 922        TOTAL FREE ENERGY PREDICTED BY IDOCK:   -2.98 KCAL/MOL
REMARK 923 INTER-LIGAND FREE ENERGY PREDICTED BY IDOCK:   -2.69 KCAL/MOL
REMARK 924 INTRA-LIGAND FREE ENERGY PREDICTED BY IDOCK:   -0.28 KCAL/MOL
REMARK 927      BINDING AFFINITY PREDICTED BY RF-SCORE:    0.00 PKD
ROOT
HETATM    1  C   UNL     1      -8.937   6.017  70.260  1.00  0.00    -0.148 C  
HETATM    2  S   UNL     1     -10.218   7.049  69.589  1.00  0.00    -0.208 S  
HETATM    3  O   UNL     1      -9.346   7.721  68.387  1.00  0.00    -0.144 OA 
HETATM    4  O   UNL     1     -11.232   6.203  68.999  1.00  0.00    -0.383 OA 
HETATM    5  O   UNL     1     -10.539   8.078  70.555  1.00  0.00    -0.212 OA 
ENDROOT
BRANCH   3   6
HETATM    6  C   UNL     1     -10.006   8.692  67.586  1.00  0.00    -0.194 C  
BRANCH   6   7
HETATM    7  C   UNL     1      -9.182   9.975  67.542  1.00  0.00    -0.151 C  
BRANCH   7   8
HETATM    8  C   UNL     1      -9.973  11.220  67.123  1.00  0.00    -0.219 C  
BRANCH   8   9
HETATM    9  C   UNL     1      -9.123  12.476  66.963  1.00  0.00    -0.213 C  
BRANCH   9  10
HETATM   10  O   UNL     1      -8.169  12.533  68.012  1.00  0.00    -0.146 OA 
HETATM   11  S   UNL     1      -6.645  12.945  67.608  1.00  0.00    -0.159 S  
HETATM   12  O   UNL     1      -6.637  14.337  67.218  1.00  0.00    -0.278 OA 
HETATM   13  O   UNL     1      -6.093  11.905  66.766  1.00  0.00    -0.143 OA 
HETATM   14  C   UNL     1      -5.938  12.804  69.230  1.00  0.00    -0.093 C  
ENDBRANCH   9  10
ENDBRANCH   8   9
ENDBRANCH   7   8
ENDBRANCH   6   7
ENDBRANCH   3   6
TORSDOF 5
ENDMDL
MODEL      268
REMARK 921   NORMALIZED FREE ENERGY PREDICTED BY IDOCK:   -2.15 KCAL/MOL
REMARK 922        TOTAL FREE ENERGY PREDICTED BY IDOCK:   -2.96 KCAL/MOL
REMARK 923 INTER-LIGAND FREE ENERGY PREDICTED BY IDOCK:   -2.77 KCAL/MOL
REMARK 924 INTRA-LIGAND FREE ENERGY PREDICTED BY IDOCK:   -0.20 KCAL/MOL
REMARK 927      BINDING AFFINITY PREDICTED BY RF-SCORE:    0.00 PKD
ROOT
HETATM    1  C   UNL     1     -11.939  12.909  70.265  1.00  0.00    -0.283 C  
HETATM    2  S   UNL     1     -12.073  11.195  69.812  1.00  0.00    -0.335 S  
HETATM    3  O   UNL     1     -10.505  10.797  70.011  1.00  0.00    -0.125 OA 
HETATM    4  O   UNL     1     -12.850  10.510  70.822  1.00  0.00    -0.360 OA 
HETATM    5  O   UNL     1     -12.394  11.112  68.404  1.00  0.00    -0.556 OA 
ENDROOT
BRANCH   3   6
HETATM    6  C   UNL     1     -10.142   9.459  69.698  1.00  0.00    -0.206 C  
BRANCH   6   7
HETATM    7  C   UNL     1      -9.041   9.454  68.643  1.00  0.00    -0.132 C  
BRANCH   7   8
HETATM    8  C   UNL     1      -8.523   8.057  68.277  1.00  0.00    -0.123 C  
BRANCH   8   9
HETATM    9  C   UNL     1      -8.833   7.631  66.846  1.00  0.00    -0.131 C  
BRANCH   9  10
HETATM   10  O   UNL     1      -7.878   6.668  66.427  1.00  0.00    -0.100 OA 
HETATM   11  S   UNL     1      -8.399   5.134  66.252  1.00  0.00    -0.114 S  
HETATM   12  O   UNL     1      -9.288   5.081  65.113  1.00  0.00    -0.140 OA 
HETATM   13  O   UNL     1      -8.778   4.624  67.552  1.00  0.00    -0.104 OA 
HETATM   14  C   UNL     1      -6.840   4.420  65.790  1.00  0.00    -0.058 C  
ENDBRANCH   9  10
ENDBRANCH   8   9
ENDBRANCH   7   8
ENDBRANCH   6   7
ENDBRANCH   3   6
TORSDOF 5
ENDMDL
MODEL      269
REMARK 921   NORMALIZED FREE ENERGY PREDICTED BY IDOCK:   -2.14 KCAL/MOL
REMARK 922        TOTAL FREE ENERGY PREDICTED BY IDOCK:   -2.96 KCAL/MOL
REMARK 923 INTER-LIGAND FREE ENERGY PREDICTED BY IDOCK:   -2.75 KCAL/MOL
REMARK 924 INTRA-LIGAND FREE ENERGY PREDICTED BY IDOCK:   -0.21 KCAL/MOL
REMARK 927      BINDING AFFINITY PREDICTED BY RF-SCORE:    0.00 PKD
ROOT
HETATM    1  C   UNL     1     -11.945  12.807  70.233  1.00  0.00    -0.280 C  
HETATM    2  S   UNL     1     -12.207  11.120  69.741  1.00  0.00    -0.265 S  
HETATM    3  O   UNL     1     -10.765  10.530  70.218  1.00  0.00    -0.253 OA 
HETATM    4  O   UNL     1     -13.235  10.548  70.582  1.00  0.00    -0.316 OA 
HETATM    5  O   UNL     1     -12.273  11.063  68.296  1.00  0.00    -0.582 OA 
ENDROOT
BRANCH   3   6
HETATM    6  C   UNL     1     -10.521   9.153  69.959  1.00  0.00    -0.221 C  
BRANCH   6   7
HETATM    7  C   UNL     1      -9.207   8.993  69.203  1.00  0.00    -0.144 C  
BRANCH   7   8
HETATM    8  C   UNL     1      -8.856   7.542  68.845  1.00  0.00    -0.135 C  
BRANCH   8   9
HETATM    9  C   UNL     1      -8.198   6.762  69.977  1.00  0.00    -0.134 C  
BRANCH   9  10
HETATM   10  O   UNL     1      -8.906   5.548  70.184  1.00  0.00    -0.131 OA 
HETATM   11  S   UNL     1      -8.093   4.161  69.918  1.00  0.00    -0.054 S  
HETATM   12  O   UNL     1      -7.089   4.016  70.949  1.00  0.00    -0.032 OA 
HETATM   13  O   UNL     1      -7.771   4.077  68.510  1.00  0.00    -0.065 OA 
HETATM   14  C   UNL     1      -9.432   3.048  70.267  1.00  0.00    -0.140 C  
ENDBRANCH   9  10
ENDBRANCH   8   9
ENDBRANCH   7   8
ENDBRANCH   6   7
ENDBRANCH   3   6
TORSDOF 5
ENDMDL
MODEL      270
REMARK 921   NORMALIZED FREE ENERGY PREDICTED BY IDOCK:   -2.13 KCAL/MOL
REMARK 922        TOTAL FREE ENERGY PREDICTED BY IDOCK:   -2.94 KCAL/MOL
REMARK 923 INTER-LIGAND FREE ENERGY PREDICTED BY IDOCK:   -2.63 KCAL/MOL
REMARK 924 INTRA-LIGAND FREE ENERGY PREDICTED BY IDOCK:   -0.31 KCAL/MOL
REMARK 927      BINDING AFFINITY PREDICTED BY RF-SCORE:    0.00 PKD
ROOT
HETATM    1  C   UNL     1     -11.408  16.117  64.616  1.00  0.00    -0.282 C  
HETATM    2  S   UNL     1     -10.753  15.771  66.231  1.00  0.00    -0.242 S  
HETATM    3  O   UNL     1      -9.632  14.678  65.778  1.00  0.00    -0.303 OA 
HETATM    4  O   UNL     1     -10.071  16.951  66.715  1.00  0.00    -0.275 OA 
HETATM    5  O   UNL     1     -11.769  15.094  67.008  1.00  0.00    -0.261 OA 
ENDROOT
BRANCH   3   6
HETATM    6  C   UNL     1      -8.869  14.079  66.817  1.00  0.00    -0.157 C  
BRANCH   6   7
HETATM    7  C   UNL     1      -9.174  12.587  66.892  1.00  0.00    -0.211 C  
BRANCH   7   8
HETATM    8  C   UNL     1      -9.438  12.066  68.310  1.00  0.00    -0.199 C  
BRANCH   8   9
HETATM    9  C   UNL     1      -9.732  10.572  68.382  1.00  0.00    -0.159 C  
BRANCH   9  10
HETATM   10  O   UNL     1      -9.289   9.949  67.185  1.00  0.00    -0.143 OA 
HETATM   11  S   UNL     1      -8.033   8.918  67.307  1.00  0.00    -0.096 S  
HETATM   12  O   UNL     1      -8.475   7.743  68.023  1.00  0.00    -0.123 OA 
HETATM   13  O   UNL     1      -6.858   9.666  67.700  1.00  0.00    -0.079 OA 
HETATM   14  C   UNL     1      -7.905   8.518  65.582  1.00  0.00    -0.102 C  
ENDBRANCH   9  10
ENDBRANCH   8   9
ENDBRANCH   7   8
ENDBRANCH   6   7
ENDBRANCH   3   6
TORSDOF 5
ENDMDL
MODEL      271
REMARK 921   NORMALIZED FREE ENERGY PREDICTED BY IDOCK:   -2.13 KCAL/MOL
REMARK 922        TOTAL FREE ENERGY PREDICTED BY IDOCK:   -2.94 KCAL/MOL
REMARK 923 INTER-LIGAND FREE ENERGY PREDICTED BY IDOCK:   -2.54 KCAL/MOL
REMARK 924 INTRA-LIGAND FREE ENERGY PREDICTED BY IDOCK:   -0.40 KCAL/MOL
REMARK 927      BINDING AFFINITY PREDICTED BY RF-SCORE:    0.00 PKD
ROOT
HETATM    1  C   UNL     1      -7.860   4.544  70.653  1.00  0.00    -0.057 C  
HETATM    2  S   UNL     1      -8.353   4.602  72.359  1.00  0.00    -0.116 S  
HETATM    3  O   UNL     1      -9.632   5.596  72.179  1.00  0.00    -0.149 OA 
HETATM    4  O   UNL     1      -8.839   3.296  72.744  1.00  0.00    -0.084 OA 
HETATM    5  O   UNL     1      -7.332   5.298  73.113  1.00  0.00    -0.088 OA 
ENDROOT
BRANCH   3   6
HETATM    6  C   UNL     1     -10.328   5.960  73.364  1.00  0.00    -0.231 C  
BRANCH   6   7
HETATM    7  C   UNL     1     -10.485   7.476  73.428  1.00  0.00    -0.404 C  
BRANCH   7   8
HETATM    8  C   UNL     1     -11.099   8.101  72.168  1.00  0.00    -0.386 C  
BRANCH   8   9
HETATM    9  C   UNL     1     -10.235   9.178  71.522  1.00  0.00    -0.333 C  
BRANCH   9  10
HETATM   10  O   UNL     1      -9.203   8.562  70.766  1.00  0.00    -0.153 OA 
HETATM   11  S   UNL     1      -7.734   9.263  70.806  1.00  0.00    -0.108 S  
HETATM   12  O   UNL     1      -7.180   9.088  72.131  1.00  0.00    -0.329 OA 
HETATM   13  O   UNL     1      -7.824  10.562  70.174  1.00  0.00    -0.053 OA 
HETATM   14  C   UNL     1      -6.920   8.142  69.697  1.00  0.00    -0.049 C  
ENDBRANCH   9  10
ENDBRANCH   8   9
ENDBRANCH   7   8
ENDBRANCH   6   7
ENDBRANCH   3   6
TORSDOF 5
ENDMDL
MODEL      272
REMARK 921   NORMALIZED FREE ENERGY PREDICTED BY IDOCK:   -2.12 KCAL/MOL
REMARK 922        TOTAL FREE ENERGY PREDICTED BY IDOCK:   -2.93 KCAL/MOL
REMARK 923 INTER-LIGAND FREE ENERGY PREDICTED BY IDOCK:   -2.95 KCAL/MOL
REMARK 924 INTRA-LIGAND FREE ENERGY PREDICTED BY IDOCK:    0.02 KCAL/MOL
REMARK 927      BINDING AFFINITY PREDICTED BY RF-SCORE:    0.00 PKD
ROOT
HETATM    1  C   UNL     1     -12.704  10.083  70.970  1.00  0.00    -0.362 C  
HETATM    2  S   UNL     1     -12.815   8.612  71.960  1.00  0.00    -0.402 S  
HETATM    3  O   UNL     1     -11.283   8.612  72.518  1.00  0.00    -0.329 OA 
HETATM    4  O   UNL     1     -13.705   8.869  73.070  1.00  0.00    -0.264 OA 
HETATM    5  O   UNL     1     -12.985   7.474  71.082  1.00  0.00    -0.292 OA 
ENDROOT
BRANCH   3   6
HETATM    6  C   UNL     1     -10.909   7.527  73.356  1.00  0.00    -0.285 C  
BRANCH   6   7
HETATM    7  C   UNL     1      -9.391   7.476  73.493  1.00  0.00    -0.316 C  
BRANCH   7   8
HETATM    8  C   UNL     1      -8.735   6.271  72.808  1.00  0.00    -0.126 C  
BRANCH   8   9
HETATM    9  C   UNL     1      -9.721   5.313  72.149  1.00  0.00    -0.164 C  
BRANCH   9  10
HETATM   10  O   UNL     1      -9.061   4.092  71.851  1.00  0.00    -0.114 OA 
HETATM   11  S   UNL     1      -8.857   3.041  73.079  1.00  0.00    -0.080 S  
HETATM   12  O   UNL     1     -10.152   2.514  73.449  1.00  0.00    -0.097 OA 
HETATM   13  O   UNL     1      -7.958   3.631  74.048  1.00  0.00    -0.076 OA 
HETATM   14  C   UNL     1      -7.977   1.798  72.165  1.00  0.00    -0.045 C  
ENDBRANCH   9  10
ENDBRANCH   8   9
ENDBRANCH   7   8
ENDBRANCH   6   7
ENDBRANCH   3   6
TORSDOF 5
ENDMDL
MODEL      273
REMARK 921   NORMALIZED FREE ENERGY PREDICTED BY IDOCK:   -2.09 KCAL/MOL
REMARK 922        TOTAL FREE ENERGY PREDICTED BY IDOCK:   -2.89 KCAL/MOL
REMARK 923 INTER-LIGAND FREE ENERGY PREDICTED BY IDOCK:   -2.66 KCAL/MOL
REMARK 924 INTRA-LIGAND FREE ENERGY PREDICTED BY IDOCK:   -0.23 KCAL/MOL
REMARK 927      BINDING AFFINITY PREDICTED BY RF-SCORE:    0.00 PKD
ROOT
HETATM    1  C   UNL     1      -8.140   6.173  72.259  1.00  0.00    -0.109 C  
HETATM    2  S   UNL     1      -9.830   6.691  72.077  1.00  0.00    -0.156 S  
HETATM    3  O   UNL     1      -9.891   6.655  70.449  1.00  0.00    -0.175 OA 
HETATM    4  O   UNL     1     -10.690   5.647  72.589  1.00  0.00    -0.214 OA 
HETATM    5  O   UNL     1      -9.943   8.066  72.512  1.00  0.00    -0.219 OA 
ENDROOT
BRANCH   3   6
HETATM    6  C   UNL     1     -11.113   7.062  69.847  1.00  0.00    -0.264 C  
BRANCH   6   7
HETATM    7  C   UNL     1     -11.247   6.431  68.465  1.00  0.00    -0.321 C  
BRANCH   7   8
HETATM    8  C   UNL     1      -9.930   6.337  67.684  1.00  0.00    -0.151 C  
BRANCH   8   9
HETATM    9  C   UNL     1      -9.507   4.912  67.344  1.00  0.00    -0.140 C  
BRANCH   9  10
HETATM   10  O   UNL     1     -10.216   4.474  66.195  1.00  0.00    -0.247 OA 
HETATM   11  S   UNL     1      -9.330   3.932  64.939  1.00  0.00    -0.169 S  
HETATM   12  O   UNL     1      -8.718   2.679  65.319  1.00  0.00    -0.104 OA 
HETATM   13  O   UNL     1      -8.560   5.036  64.406  1.00  0.00    -0.139 OA 
HETATM   14  C   UNL     1     -10.683   3.595  63.841  1.00  0.00    -0.255 C  
ENDBRANCH   9  10
ENDBRANCH   8   9
ENDBRANCH   7   8
ENDBRANCH   6   7
ENDBRANCH   3   6
TORSDOF 5
ENDMDL
MODEL      274
REMARK 921   NORMALIZED FREE ENERGY PREDICTED BY IDOCK:   -2.09 KCAL/MOL
REMARK 922        TOTAL FREE ENERGY PREDICTED BY IDOCK:   -2.89 KCAL/MOL
REMARK 923 INTER-LIGAND FREE ENERGY PREDICTED BY IDOCK:   -3.20 KCAL/MOL
REMARK 924 INTRA-LIGAND FREE ENERGY PREDICTED BY IDOCK:    0.32 KCAL/MOL
REMARK 927      BINDING AFFINITY PREDICTED BY RF-SCORE:    0.00 PKD
ROOT
HETATM    1  C   UNL     1      -9.987   7.537  68.828  1.00  0.00    -0.172 C  
HETATM    2  S   UNL     1     -10.570   8.513  70.194  1.00  0.00    -0.234 S  
HETATM    3  O   UNL     1     -11.408   9.613  69.330  1.00  0.00    -0.137 OA 
HETATM    4  O   UNL     1     -11.509   7.722  70.959  1.00  0.00    -0.275 OA 
HETATM    5  O   UNL     1      -9.439   9.174  70.808  1.00  0.00    -0.229 OA 
ENDROOT
BRANCH   3   6
HETATM    6  C   UNL     1     -12.032  10.659  70.063  1.00  0.00    -0.329 C  
BRANCH   6   7
HETATM    7  C   UNL     1     -11.596  12.011  69.510  1.00  0.00    -0.389 C  
BRANCH   7   8
HETATM    8  C   UNL     1     -11.322  12.018  68.000  1.00  0.00    -0.358 C  
BRANCH   8   9
HETATM    9  C   UNL     1     -10.000  12.669  67.608  1.00  0.00    -0.216 C  
BRANCH   9  10
HETATM   10  O   UNL     1      -9.062  11.658  67.272  1.00  0.00    -0.162 OA 
HETATM   11  S   UNL     1      -9.465  10.644  66.062  1.00  0.00    -0.204 S  
HETATM   12  O   UNL     1      -9.453  11.387  64.821  1.00  0.00    -0.216 OA 
HETATM   13  O   UNL     1     -10.606   9.858  66.479  1.00  0.00    -0.176 OA 
HETATM   14  C   UNL     1      -8.012   9.627  66.130  1.00  0.00    -0.108 C  
ENDBRANCH   9  10
ENDBRANCH   8   9
ENDBRANCH   7   8
ENDBRANCH   6   7
ENDBRANCH   3   6
TORSDOF 5
ENDMDL
MODEL      275
REMARK 921   NORMALIZED FREE ENERGY PREDICTED BY IDOCK:   -2.08 KCAL/MOL
REMARK 922        TOTAL FREE ENERGY PREDICTED BY IDOCK:   -2.88 KCAL/MOL
REMARK 923 INTER-LIGAND FREE ENERGY PREDICTED BY IDOCK:   -2.57 KCAL/MOL
REMARK 924 INTRA-LIGAND FREE ENERGY PREDICTED BY IDOCK:   -0.31 KCAL/MOL
REMARK 927      BINDING AFFINITY PREDICTED BY RF-SCORE:    0.00 PKD
ROOT
HETATM    1  C   UNL     1      -8.438  10.043  63.811  1.00  0.00    -0.181 C  
HETATM    2  S   UNL     1      -7.114   9.210  64.655  1.00  0.00    -0.092 S  
HETATM    3  O   UNL     1      -7.875   8.985  66.078  1.00  0.00    -0.100 OA 
HETATM    4  O   UNL     1      -6.913   7.919  64.035  1.00  0.00    -0.060 OA 
HETATM    5  O   UNL     1      -6.030  10.147  64.855  1.00  0.00    -0.104 OA 
ENDROOT
BRANCH   3   6
HETATM    6  C   UNL     1      -7.124   8.360  67.111  1.00  0.00    -0.079 C  
BRANCH   6   7
HETATM    7  C   UNL     1      -7.174   9.211  68.376  1.00  0.00    -0.077 C  
BRANCH   7   8
HETATM    8  C   UNL     1      -7.991  10.502  68.237  1.00  0.00    -0.113 C  
BRANCH   8   9
HETATM    9  C   UNL     1      -9.300  10.500  69.018  1.00  0.00    -0.196 C  
BRANCH   9  10
HETATM   10  O   UNL     1      -9.820  11.820  69.065  1.00  0.00    -0.065 OA 
HETATM   11  S   UNL     1     -11.420  11.996  68.815  1.00  0.00    -0.327 S  
HETATM   12  O   UNL     1     -12.123  11.436  69.948  1.00  0.00    -0.310 OA 
HETATM   13  O   UNL     1     -11.721  11.611  67.453  1.00  0.00    -0.556 OA 
HETATM   14  C   UNL     1     -11.471  13.767  68.934  1.00  0.00    -0.304 C  
ENDBRANCH   9  10
ENDBRANCH   8   9
ENDBRANCH   7   8
ENDBRANCH   6   7
ENDBRANCH   3   6
TORSDOF 5
ENDMDL
MODEL      276
REMARK 921   NORMALIZED FREE ENERGY PREDICTED BY IDOCK:   -2.08 KCAL/MOL
REMARK 922        TOTAL FREE ENERGY PREDICTED BY IDOCK:   -2.87 KCAL/MOL
REMARK 923 INTER-LIGAND FREE ENERGY PREDICTED BY IDOCK:   -2.78 KCAL/MOL
REMARK 924 INTRA-LIGAND FREE ENERGY PREDICTED BY IDOCK:   -0.09 KCAL/MOL
REMARK 927      BINDING AFFINITY PREDICTED BY RF-SCORE:    0.00 PKD
ROOT
HETATM    1  C   UNL     1      -7.603   9.656  66.444  1.00  0.00    -0.101 C  
HETATM    2  S   UNL     1      -7.394   7.915  66.154  1.00  0.00    -0.075 S  
HETATM    3  O   UNL     1      -8.595   7.390  67.124  1.00  0.00    -0.116 OA 
HETATM    4  O   UNL     1      -7.756   7.629  64.784  1.00  0.00    -0.101 OA 
HETATM    5  O   UNL     1      -6.129   7.499  66.721  1.00  0.00    -0.041 OA 
ENDROOT
BRANCH   3   6
HETATM    6  C   UNL     1      -8.760   5.982  67.229  1.00  0.00    -0.105 C  
BRANCH   6   7
HETATM    7  C   UNL     1     -10.212   5.654  67.562  1.00  0.00    -0.246 C  
BRANCH   7   8
HETATM    8  C   UNL     1     -10.511   5.567  69.064  1.00  0.00    -0.296 C  
BRANCH   8   9
HETATM    9  C   UNL     1     -10.305   6.875  69.819  1.00  0.00    -0.206 C  
BRANCH   9  10
HETATM   10  O   UNL     1     -10.202   6.603  71.209  1.00  0.00    -0.199 OA 
HETATM   11  S   UNL     1     -10.960   7.629  72.223  1.00  0.00    -0.304 S  
HETATM   12  O   UNL     1     -12.387   7.457  72.064  1.00  0.00    -0.300 OA 
HETATM   13  O   UNL     1     -10.324   8.925  72.130  1.00  0.00    -0.333 OA 
HETATM   14  C   UNL     1     -10.460   6.853  73.740  1.00  0.00    -0.357 C  
ENDBRANCH   9  10
ENDBRANCH   8   9
ENDBRANCH   7   8
ENDBRANCH   6   7
ENDBRANCH   3   6
TORSDOF 5
ENDMDL
MODEL      277
REMARK 921   NORMALIZED FREE ENERGY PREDICTED BY IDOCK:   -2.07 KCAL/MOL
REMARK 922        TOTAL FREE ENERGY PREDICTED BY IDOCK:   -2.87 KCAL/MOL
REMARK 923 INTER-LIGAND FREE ENERGY PREDICTED BY IDOCK:   -2.78 KCAL/MOL
REMARK 924 INTRA-LIGAND FREE ENERGY PREDICTED BY IDOCK:   -0.08 KCAL/MOL
REMARK 927      BINDING AFFINITY PREDICTED BY RF-SCORE:    0.00 PKD
ROOT
HETATM    1  C   UNL     1     -10.329   5.197  67.060  1.00  0.00    -0.217 C  
HETATM    2  S   UNL     1      -9.618   6.222  68.325  1.00  0.00    -0.120 S  
HETATM    3  O   UNL     1     -10.987   6.977  68.785  1.00  0.00    -0.183 OA 
HETATM    4  O   UNL     1      -9.176   5.376  69.411  1.00  0.00    -0.112 OA 
HETATM    5  O   UNL     1      -8.745   7.193  67.700  1.00  0.00    -0.122 OA 
ENDROOT
BRANCH   3   6
HETATM    6  C   UNL     1     -10.861   7.966  69.798  1.00  0.00    -0.202 C  
BRANCH   6   7
HETATM    7  C   UNL     1     -11.211   7.366  71.156  1.00  0.00    -0.279 C  
BRANCH   7   8
HETATM    8  C   UNL     1     -10.738   8.197  72.355  1.00  0.00    -0.404 C  
BRANCH   8   9
HETATM    9  C   UNL     1      -9.237   8.125  72.611  1.00  0.00    -0.263 C  
BRANCH   9  10
HETATM   10  O   UNL     1      -8.564   8.977  71.696  1.00  0.00    -0.333 OA 
HETATM   11  S   UNL     1      -6.955   8.774  71.539  1.00  0.00    -0.060 S  
HETATM   12  O   UNL     1      -6.718   7.506  70.884  1.00  0.00    -0.043 OA 
HETATM   13  O   UNL     1      -6.320   9.127  72.790  1.00  0.00    -0.304 OA 
HETATM   14  C   UNL     1      -6.679  10.079  70.367  1.00  0.00    -0.138 C  
ENDBRANCH   9  10
ENDBRANCH   8   9
ENDBRANCH   7   8
ENDBRANCH   6   7
ENDBRANCH   3   6
TORSDOF 5
ENDMDL
MODEL      278
REMARK 921   NORMALIZED FREE ENERGY PREDICTED BY IDOCK:   -2.07 KCAL/MOL
REMARK 922        TOTAL FREE ENERGY PREDICTED BY IDOCK:   -2.86 KCAL/MOL
REMARK 923 INTER-LIGAND FREE ENERGY PREDICTED BY IDOCK:   -2.66 KCAL/MOL
REMARK 924 INTRA-LIGAND FREE ENERGY PREDICTED BY IDOCK:   -0.20 KCAL/MOL
REMARK 927      BINDING AFFINITY PREDICTED BY RF-SCORE:    0.00 PKD
ROOT
HETATM    1  C   UNL     1     -12.736  10.108  70.809  1.00  0.00    -0.311 C  
HETATM    2  S   UNL     1     -12.832   8.594  71.735  1.00  0.00    -0.377 S  
HETATM    3  O   UNL     1     -11.323   8.625  72.352  1.00  0.00    -0.359 OA 
HETATM    4  O   UNL     1     -13.772   8.775  72.819  1.00  0.00    -0.361 OA 
HETATM    5  O   UNL     1     -12.927   7.488  70.807  1.00  0.00    -0.070 OA 
ENDROOT
BRANCH   3   6
HETATM    6  C   UNL     1     -10.942   7.519  73.161  1.00  0.00    -0.367 C  
BRANCH   6   7
HETATM    7  C   UNL     1      -9.473   7.644  73.551  1.00  0.00    -0.347 C  
BRANCH   7   8
HETATM    8  C   UNL     1      -8.514   6.841  72.663  1.00  0.00    -0.127 C  
BRANCH   8   9
HETATM    9  C   UNL     1      -8.157   7.527  71.349  1.00  0.00    -0.096 C  
BRANCH   9  10
HETATM   10  O   UNL     1      -7.464   6.610  70.515  1.00  0.00    -0.083 OA 
HETATM   11  S   UNL     1      -6.418   7.237  69.434  1.00  0.00    -0.037 S  
HETATM   12  O   UNL     1      -5.291   7.786  70.154  1.00  0.00    -0.023 OA 
HETATM   13  O   UNL     1      -7.164   8.009  68.463  1.00  0.00    -0.081 OA 
HETATM   14  C   UNL     1      -5.924   5.703  68.687  1.00  0.00    -0.024 C  
ENDBRANCH   9  10
ENDBRANCH   8   9
ENDBRANCH   7   8
ENDBRANCH   6   7
ENDBRANCH   3   6
TORSDOF 5
ENDMDL
MODEL      279
REMARK 921   NORMALIZED FREE ENERGY PREDICTED BY IDOCK:   -2.06 KCAL/MOL
REMARK 922        TOTAL FREE ENERGY PREDICTED BY IDOCK:   -2.85 KCAL/MOL
REMARK 923 INTER-LIGAND FREE ENERGY PREDICTED BY IDOCK:   -2.66 KCAL/MOL
REMARK 924 INTRA-LIGAND FREE ENERGY PREDICTED BY IDOCK:   -0.19 KCAL/MOL
REMARK 927      BINDING AFFINITY PREDICTED BY RF-SCORE:    0.00 PKD
ROOT
HETATM    1  C   UNL     1     -10.076   5.844  72.011  1.00  0.00    -0.189 C  
HETATM    2  S   UNL     1     -10.692   6.643  70.547  1.00  0.00    -0.263 S  
HETATM    3  O   UNL     1     -10.159   5.548  69.465  1.00  0.00    -0.191 OA 
HETATM    4  O   UNL     1     -12.137   6.597  70.569  1.00  0.00    -0.390 OA 
HETATM    5  O   UNL     1      -9.962   7.877  70.351  1.00  0.00    -0.190 OA 
ENDROOT
BRANCH   3   6
HETATM    6  C   UNL     1     -10.409   5.831  68.094  1.00  0.00    -0.212 C  
BRANCH   6   7
HETATM    7  C   UNL     1      -9.090   6.047  67.360  1.00  0.00    -0.106 C  
BRANCH   7   8
HETATM    8  C   UNL     1      -9.230   6.741  65.999  1.00  0.00    -0.069 C  
BRANCH   8   9
HETATM    9  C   UNL     1      -8.320   7.952  65.819  1.00  0.00    -0.136 C  
BRANCH   9  10
HETATM   10  O   UNL     1      -8.839   8.778  64.788  1.00  0.00    -0.154 OA 
HETATM   11  S   UNL     1      -8.305  10.316  64.731  1.00  0.00    -0.166 S  
HETATM   12  O   UNL     1      -6.915  10.302  64.332  1.00  0.00    -0.126 OA 
HETATM   13  O   UNL     1      -8.760  11.008  65.918  1.00  0.00    -0.178 OA 
HETATM   14  C   UNL     1      -9.288  10.843  63.349  1.00  0.00    -0.290 C  
ENDBRANCH   9  10
ENDBRANCH   8   9
ENDBRANCH   7   8
ENDBRANCH   6   7
ENDBRANCH   3   6
TORSDOF 5
ENDMDL
MODEL      280
REMARK 921   NORMALIZED FREE ENERGY PREDICTED BY IDOCK:   -2.06 KCAL/MOL
REMARK 922        TOTAL FREE ENERGY PREDICTED BY IDOCK:   -2.85 KCAL/MOL
REMARK 923 INTER-LIGAND FREE ENERGY PREDICTED BY IDOCK:   -2.64 KCAL/MOL
REMARK 924 INTRA-LIGAND FREE ENERGY PREDICTED BY IDOCK:   -0.20 KCAL/MOL
REMARK 927      BINDING AFFINITY PREDICTED BY RF-SCORE:    0.00 PKD
ROOT
HETATM    1  C   UNL     1     -12.663   8.994  72.368  1.00  0.00    -0.363 C  
HETATM    2  S   UNL     1     -12.945  10.375  71.286  1.00  0.00    -0.427 S  
HETATM    3  O   UNL     1     -11.558  10.270  70.436  1.00  0.00    -0.280 OA 
HETATM    4  O   UNL     1     -14.046  10.054  70.405  1.00  0.00     0.510 OA 
HETATM    5  O   UNL     1     -12.914  11.592  72.070  1.00  0.00    -0.433 OA 
ENDROOT
BRANCH   3   6
HETATM    6  C   UNL     1     -11.342  11.263  69.443  1.00  0.00    -0.292 C  
BRANCH   6   7
HETATM    7  C   UNL     1     -11.512  10.653  68.055  1.00  0.00    -0.289 C  
BRANCH   7   8
HETATM    8  C   UNL     1     -10.314  10.867  67.120  1.00  0.00    -0.262 C  
BRANCH   8   9
HETATM    9  C   UNL     1     -10.060   9.713  66.157  1.00  0.00    -0.258 C  
BRANCH   9  10
HETATM   10  O   UNL     1      -8.874   9.970  65.420  1.00  0.00    -0.155 OA 
HETATM   11  S   UNL     1      -7.597   9.001  65.709  1.00  0.00    -0.091 S  
HETATM   12  O   UNL     1      -7.899   7.683  65.198  1.00  0.00    -0.108 OA 
HETATM   13  O   UNL     1      -7.150   9.218  67.069  1.00  0.00    -0.084 OA 
HETATM   14  C   UNL     1      -6.460   9.793  64.600  1.00  0.00    -0.111 C  
ENDBRANCH   9  10
ENDBRANCH   8   9
ENDBRANCH   7   8
ENDBRANCH   6   7
ENDBRANCH   3   6
TORSDOF 5
ENDMDL
MODEL      281
REMARK 921   NORMALIZED FREE ENERGY PREDICTED BY IDOCK:   -2.04 KCAL/MOL
REMARK 922        TOTAL FREE ENERGY PREDICTED BY IDOCK:   -2.83 KCAL/MOL
REMARK 923 INTER-LIGAND FREE ENERGY PREDICTED BY IDOCK:   -2.62 KCAL/MOL
REMARK 924 INTRA-LIGAND FREE ENERGY PREDICTED BY IDOCK:   -0.20 KCAL/MOL
REMARK 927      BINDING AFFINITY PREDICTED BY RF-SCORE:    0.00 PKD
ROOT
HETATM    1  C   UNL     1     -13.406   9.085  71.374  1.00  0.00    -0.277 C  
HETATM    2  S   UNL     1     -11.662   8.970  71.052  1.00  0.00    -0.294 S  
HETATM    3  O   UNL     1     -11.188   8.598  72.567  1.00  0.00    -0.329 OA 
HETATM    4  O   UNL     1     -11.424   7.823  70.204  1.00  0.00    -0.185 OA 
HETATM    5  O   UNL     1     -11.164  10.289  70.724  1.00  0.00    -0.329 OA 
ENDROOT
BRANCH   3   6
HETATM    6  C   UNL     1      -9.790   8.453  72.780  1.00  0.00    -0.218 C  
BRANCH   6   7
HETATM    7  C   UNL     1      -9.508   7.133  73.489  1.00  0.00    -0.249 C  
BRANCH   7   8
HETATM    8  C   UNL     1      -8.389   6.299  72.850  1.00  0.00    -0.118 C  
BRANCH   8   9
HETATM    9  C   UNL     1      -7.957   5.095  73.679  1.00  0.00    -0.110 C  
BRANCH   9  10
HETATM   10  O   UNL     1      -9.064   4.221  73.848  1.00  0.00    -0.098 OA 
HETATM   11  S   UNL     1      -9.152   2.934  72.853  1.00  0.00    -0.087 S  
HETATM   12  O   UNL     1      -8.086   2.019  73.196  1.00  0.00    -0.045 OA 
HETATM   13  O   UNL     1      -9.357   3.409  71.501  1.00  0.00    -0.117 OA 
HETATM   14  C   UNL     1     -10.683   2.280  73.469  1.00  0.00    -0.165 C  
ENDBRANCH   9  10
ENDBRANCH   8   9
ENDBRANCH   7   8
ENDBRANCH   6   7
ENDBRANCH   3   6
TORSDOF 5
ENDMDL
MODEL      282
REMARK 921   NORMALIZED FREE ENERGY PREDICTED BY IDOCK:   -2.04 KCAL/MOL
REMARK 922        TOTAL FREE ENERGY PREDICTED BY IDOCK:   -2.82 KCAL/MOL
REMARK 923 INTER-LIGAND FREE ENERGY PREDICTED BY IDOCK:   -2.44 KCAL/MOL
REMARK 924 INTRA-LIGAND FREE ENERGY PREDICTED BY IDOCK:   -0.38 KCAL/MOL
REMARK 927      BINDING AFFINITY PREDICTED BY RF-SCORE:    0.00 PKD
ROOT
HETATM    1  C   UNL     1      -5.648  10.364  66.537  1.00  0.00    -0.057 C  
HETATM    2  S   UNL     1      -7.267   9.997  65.905  1.00  0.00    -0.121 S  
HETATM    3  O   UNL     1      -8.046  11.275  66.550  1.00  0.00    -0.163 OA 
HETATM    4  O   UNL     1      -7.248  10.152  64.467  1.00  0.00    -0.138 OA 
HETATM    5  O   UNL     1      -7.752   8.792  66.544  1.00  0.00    -0.097 OA 
ENDROOT
BRANCH   3   6
HETATM    6  C   UNL     1      -9.446  11.353  66.318  1.00  0.00    -0.209 C  
BRANCH   6   7
HETATM    7  C   UNL     1     -10.194  11.324  67.646  1.00  0.00    -0.206 C  
BRANCH   7   8
HETATM    8  C   UNL     1      -9.340  10.888  68.843  1.00  0.00    -0.169 C  
BRANCH   8   9
HETATM    9  C   UNL     1      -9.916   9.713  69.627  1.00  0.00    -0.221 C  
BRANCH   9  10
HETATM   10  O   UNL     1     -10.201   8.648  68.732  1.00  0.00    -0.198 OA 
HETATM   11  S   UNL     1     -10.353   7.160  69.376  1.00  0.00    -0.203 S  
HETATM   12  O   UNL     1     -11.565   7.124  70.164  1.00  0.00    -0.249 OA 
HETATM   13  O   UNL     1      -9.071   6.756  69.914  1.00  0.00    -0.144 OA 
HETATM   14  C   UNL     1     -10.636   6.287  67.856  1.00  0.00    -0.262 C  
ENDBRANCH   9  10
ENDBRANCH   8   9
ENDBRANCH   7   8
ENDBRANCH   6   7
ENDBRANCH   3   6
TORSDOF 5
ENDMDL
MODEL      283
REMARK 921   NORMALIZED FREE ENERGY PREDICTED BY IDOCK:   -2.03 KCAL/MOL
REMARK 922        TOTAL FREE ENERGY PREDICTED BY IDOCK:   -2.81 KCAL/MOL
REMARK 923 INTER-LIGAND FREE ENERGY PREDICTED BY IDOCK:   -2.34 KCAL/MOL
REMARK 924 INTRA-LIGAND FREE ENERGY PREDICTED BY IDOCK:   -0.47 KCAL/MOL
REMARK 927      BINDING AFFINITY PREDICTED BY RF-SCORE:    0.00 PKD
ROOT
HETATM    1  C   UNL     1      -7.653  10.596  66.513  1.00  0.00    -0.134 C  
HETATM    2  S   UNL     1      -9.389  10.245  66.648  1.00  0.00    -0.165 S  
HETATM    3  O   UNL     1      -9.393   9.774  68.208  1.00  0.00    -0.129 OA 
HETATM    4  O   UNL     1     -10.121  11.488  66.544  1.00  0.00    -0.204 OA 
HETATM    5  O   UNL     1      -9.696   9.098  65.820  1.00  0.00    -0.274 OA 
ENDROOT
BRANCH   3   6
HETATM    6  C   UNL     1     -10.638   9.342  68.741  1.00  0.00    -0.208 C  
BRANCH   6   7
HETATM    7  C   UNL     1     -10.598   7.839  68.998  1.00  0.00    -0.179 C  
BRANCH   7   8
HETATM    8  C   UNL     1      -9.245   7.319  69.499  1.00  0.00    -0.149 C  
BRANCH   8   9
HETATM    9  C   UNL     1      -8.830   5.980  68.900  1.00  0.00    -0.120 C  
BRANCH   9  10
HETATM   10  O   UNL     1      -8.531   6.155  67.523  1.00  0.00    -0.109 OA 
HETATM   11  S   UNL     1      -9.288   5.170  66.469  1.00  0.00    -0.151 S  
HETATM   12  O   UNL     1     -10.690   5.522  66.443  1.00  0.00    -0.281 OA 
HETATM   13  O   UNL     1      -8.836   3.814  66.698  1.00  0.00    -0.113 OA 
HETATM   14  C   UNL     1      -8.519   5.789  64.993  1.00  0.00    -0.124 C  
ENDBRANCH   9  10
ENDBRANCH   8   9
ENDBRANCH   7   8
ENDBRANCH   6   7
ENDBRANCH   3   6
TORSDOF 5
ENDMDL
MODEL      284
REMARK 921   NORMALIZED FREE ENERGY PREDICTED BY IDOCK:   -2.02 KCAL/MOL
REMARK 922        TOTAL FREE ENERGY PREDICTED BY IDOCK:   -2.79 KCAL/MOL
REMARK 923 INTER-LIGAND FREE ENERGY PREDICTED BY IDOCK:   -2.62 KCAL/MOL
REMARK 924 INTRA-LIGAND FREE ENERGY PREDICTED BY IDOCK:   -0.17 KCAL/MOL
REMARK 927      BINDING AFFINITY PREDICTED BY RF-SCORE:    0.00 PKD
ROOT
HETATM    1  C   UNL     1      -9.142   6.596  70.189  1.00  0.00    -0.155 C  
HETATM    2  S   UNL     1      -9.299   7.355  68.590  1.00  0.00    -0.138 S  
HETATM    3  O   UNL     1      -8.795   8.847  69.010  1.00  0.00    -0.134 OA 
HETATM    4  O   UNL     1      -8.315   6.773  67.704  1.00  0.00    -0.121 OA 
HETATM    5  O   UNL     1     -10.703   7.423  68.244  1.00  0.00    -0.180 OA 
ENDROOT
BRANCH   3   6
HETATM    6  C   UNL     1      -8.807   9.835  67.988  1.00  0.00    -0.119 C  
BRANCH   6   7
HETATM    7  C   UNL     1      -9.751  10.969  68.374  1.00  0.00    -0.181 C  
BRANCH   7   8
HETATM    8  C   UNL     1      -9.289  12.358  67.917  1.00  0.00    -0.195 C  
BRANCH   8   9
HETATM    9  C   UNL     1     -10.068  13.512  68.541  1.00  0.00    -0.215 C  
BRANCH   9  10
HETATM   10  O   UNL     1      -9.463  14.741  68.168  1.00  0.00    -0.198 OA 
HETATM   11  S   UNL     1     -10.259  15.661  67.086  1.00  0.00    -0.275 S  
HETATM   12  O   UNL     1     -11.453  16.178  67.717  1.00  0.00    -0.197 OA 
HETATM   13  O   UNL     1     -10.298  14.958  65.821  1.00  0.00    -0.292 OA 
HETATM   14  C   UNL     1      -9.061  16.968  66.979  1.00  0.00    -0.221 C  
ENDBRANCH   9  10
ENDBRANCH   8   9
ENDBRANCH   7   8
ENDBRANCH   6   7
ENDBRANCH   3   6
TORSDOF 5
ENDMDL
MODEL      285
REMARK 921   NORMALIZED FREE ENERGY PREDICTED BY IDOCK:   -2.01 KCAL/MOL
REMARK 922        TOTAL FREE ENERGY PREDICTED BY IDOCK:   -2.78 KCAL/MOL
REMARK 923 INTER-LIGAND FREE ENERGY PREDICTED BY IDOCK:   -2.50 KCAL/MOL
REMARK 924 INTRA-LIGAND FREE ENERGY PREDICTED BY IDOCK:   -0.28 KCAL/MOL
REMARK 927      BINDING AFFINITY PREDICTED BY RF-SCORE:    0.00 PKD
ROOT
HETATM    1  C   UNL     1      -9.431   3.097  68.262  1.00  0.00    -0.153 C  
HETATM    2  S   UNL     1      -8.566   4.625  68.539  1.00  0.00    -0.098 S  
HETATM    3  O   UNL     1      -9.762   5.410  69.320  1.00  0.00    -0.140 OA 
HETATM    4  O   UNL     1      -7.490   4.384  69.474  1.00  0.00    -0.054 OA 
HETATM    5  O   UNL     1      -8.348   5.272  67.263  1.00  0.00    -0.107 OA 
ENDROOT
BRANCH   3   6
HETATM    6  C   UNL     1      -9.498   6.753  69.704  1.00  0.00    -0.146 C  
BRANCH   6   7
HETATM    7  C   UNL     1     -10.535   7.683  69.082  1.00  0.00    -0.220 C  
BRANCH   7   8
HETATM    8  C   UNL     1     -11.373   8.467  70.101  1.00  0.00    -0.065 C  
BRANCH   8   9
HETATM    9  C   UNL     1     -10.857   9.874  70.383  1.00  0.00    -0.319 C  
BRANCH   9  10
HETATM   10  O   UNL     1      -9.903  10.230  69.394  1.00  0.00    -0.212 OA 
HETATM   11  S   UNL     1     -10.373  11.304  68.262  1.00  0.00    -0.192 S  
HETATM   12  O   UNL     1     -10.535  12.593  68.896  1.00  0.00    -0.188 OA 
HETATM   13  O   UNL     1     -11.417  10.702  67.460  1.00  0.00    -0.460 OA 
HETATM   14  C   UNL     1      -8.866  11.316  67.325  1.00  0.00    -0.150 C  
ENDBRANCH   9  10
ENDBRANCH   8   9
ENDBRANCH   7   8
ENDBRANCH   6   7
ENDBRANCH   3   6
TORSDOF 5
ENDMDL
MODEL      286
REMARK 921   NORMALIZED FREE ENERGY PREDICTED BY IDOCK:   -2.00 KCAL/MOL
REMARK 922        TOTAL FREE ENERGY PREDICTED BY IDOCK:   -2.77 KCAL/MOL
REMARK 923 INTER-LIGAND FREE ENERGY PREDICTED BY IDOCK:   -2.65 KCAL/MOL
REMARK 924 INTRA-LIGAND FREE ENERGY PREDICTED BY IDOCK:   -0.12 KCAL/MOL
REMARK 927      BINDING AFFINITY PREDICTED BY RF-SCORE:    0.00 PKD
ROOT
HETATM    1  C   UNL     1      -5.870   6.765  66.331  1.00  0.00    -0.025 C  
HETATM    2  S   UNL     1      -7.359   7.705  66.091  1.00  0.00    -0.079 S  
HETATM    3  O   UNL     1      -8.406   6.605  66.682  1.00  0.00    -0.112 OA 
HETATM    4  O   UNL     1      -7.336   8.841  66.986  1.00  0.00    -0.079 OA 
HETATM    5  O   UNL     1      -7.594   7.848  64.670  1.00  0.00    -0.094 OA 
ENDROOT
BRANCH   3   6
HETATM    6  C   UNL     1      -9.785   6.948  66.638  1.00  0.00    -0.163 C  
BRANCH   6   7
HETATM    7  C   UNL     1     -10.559   6.115  67.653  1.00  0.00    -0.340 C  
BRANCH   7   8
HETATM    8  C   UNL     1     -10.208   6.414  69.116  1.00  0.00    -0.217 C  
BRANCH   8   9
HETATM    9  C   UNL     1     -11.401   6.377  70.065  1.00  0.00    -0.430 C  
BRANCH   9  10
HETATM   10  O   UNL     1     -11.718   7.700  70.472  1.00  0.00    -0.237 OA 
HETATM   11  S   UNL     1     -11.029   8.239  71.846  1.00  0.00    -0.312 S  
HETATM   12  O   UNL     1      -9.612   8.407  71.610  1.00  0.00    -0.178 OA 
HETATM   13  O   UNL     1     -11.539   7.461  72.955  1.00  0.00    -0.262 OA 
HETATM   14  C   UNL     1     -11.796   9.839  71.868  1.00  0.00    -0.123 C  
ENDBRANCH   9  10
ENDBRANCH   8   9
ENDBRANCH   7   8
ENDBRANCH   6   7
ENDBRANCH   3   6
TORSDOF 5
ENDMDL
MODEL      287
REMARK 921   NORMALIZED FREE ENERGY PREDICTED BY IDOCK:   -1.99 KCAL/MOL
REMARK 922        TOTAL FREE ENERGY PREDICTED BY IDOCK:   -2.76 KCAL/MOL
REMARK 923 INTER-LIGAND FREE ENERGY PREDICTED BY IDOCK:   -2.51 KCAL/MOL
REMARK 924 INTRA-LIGAND FREE ENERGY PREDICTED BY IDOCK:   -0.25 KCAL/MOL
REMARK 927      BINDING AFFINITY PREDICTED BY RF-SCORE:    0.00 PKD
ROOT
HETATM    1  C   UNL     1      -6.080   6.258  72.473  1.00  0.00    -0.042 C  
HETATM    2  S   UNL     1      -7.742   6.425  71.867  1.00  0.00    -0.096 S  
HETATM    3  O   UNL     1      -7.732   8.041  71.658  1.00  0.00    -0.078 OA 
HETATM    4  O   UNL     1      -7.825   5.797  70.567  1.00  0.00    -0.096 OA 
HETATM    5  O   UNL     1      -8.660   6.104  72.938  1.00  0.00    -0.123 OA 
ENDROOT
BRANCH   3   6
HETATM    6  C   UNL     1      -8.943   8.633  71.204  1.00  0.00    -0.201 C  
BRANCH   6   7
HETATM    7  C   UNL     1      -8.689   9.411  69.917  1.00  0.00    -0.209 C  
BRANCH   7   8
HETATM    8  C   UNL     1      -9.261   8.750  68.656  1.00  0.00    -0.141 C  
BRANCH   8   9
HETATM    9  C   UNL     1     -10.453   9.485  68.052  1.00  0.00    -0.230 C  
BRANCH   9  10
HETATM   10  O   UNL     1     -10.152  10.869  67.960  1.00  0.00    -0.170 OA 
HETATM   11  S   UNL     1     -10.489  11.608  66.547  1.00  0.00    -0.248 S  
HETATM   12  O   UNL     1     -11.925  11.678  66.399  1.00  0.00    -0.433 OA 
HETATM   13  O   UNL     1      -9.634  11.052  65.520  1.00  0.00    -0.202 OA 
HETATM   14  C   UNL     1      -9.883  13.218  66.987  1.00  0.00    -0.242 C  
ENDBRANCH   9  10
ENDBRANCH   8   9
ENDBRANCH   7   8
ENDBRANCH   6   7
ENDBRANCH   3   6
TORSDOF 5
ENDMDL
MODEL      288
REMARK 921   NORMALIZED FREE ENERGY PREDICTED BY IDOCK:   -1.97 KCAL/MOL
REMARK 922        TOTAL FREE ENERGY PREDICTED BY IDOCK:   -2.74 KCAL/MOL
REMARK 923 INTER-LIGAND FREE ENERGY PREDICTED BY IDOCK:   -2.48 KCAL/MOL
REMARK 924 INTRA-LIGAND FREE ENERGY PREDICTED BY IDOCK:   -0.26 KCAL/MOL
REMARK 927      BINDING AFFINITY PREDICTED BY RF-SCORE:    0.00 PKD
ROOT
HETATM    1  C   UNL     1      -8.748   9.434  63.880  1.00  0.00    -0.202 C  
HETATM    2  S   UNL     1      -7.789   8.829  65.249  1.00  0.00    -0.115 S  
HETATM    3  O   UNL     1      -8.592   9.608  66.434  1.00  0.00    -0.125 OA 
HETATM    4  O   UNL     1      -8.030   7.410  65.390  1.00  0.00    -0.110 OA 
HETATM    5  O   UNL     1      -6.454   9.379  65.158  1.00  0.00    -0.071 OA 
ENDROOT
BRANCH   3   6
HETATM    6  C   UNL     1      -8.103   9.432  67.757  1.00  0.00    -0.107 C  
BRANCH   6   7
HETATM    7  C   UNL     1      -7.792  10.789  68.380  1.00  0.00    -0.120 C  
BRANCH   7   8
HETATM    8  C   UNL     1      -8.434  11.979  67.654  1.00  0.00    -0.160 C  
BRANCH   8   9
HETATM    9  C   UNL     1      -9.832  12.333  68.149  1.00  0.00    -0.212 C  
BRANCH   9  10
HETATM   10  O   UNL     1     -10.176  13.633  67.693  1.00  0.00    -0.234 OA 
HETATM   11  S   UNL     1     -10.182  14.829  68.799  1.00  0.00    -0.242 S  
HETATM   12  O   UNL     1      -8.817  15.084  69.203  1.00  0.00    -0.201 OA 
HETATM   13  O   UNL     1     -11.235  14.566  69.757  1.00  0.00    -0.255 OA 
HETATM   14  C   UNL     1     -10.707  16.133  67.715  1.00  0.00    -0.325 C  
ENDBRANCH   9  10
ENDBRANCH   8   9
ENDBRANCH   7   8
ENDBRANCH   6   7
ENDBRANCH   3   6
TORSDOF 5
ENDMDL
MODEL      289
REMARK 921   NORMALIZED FREE ENERGY PREDICTED BY IDOCK:   -1.97 KCAL/MOL
REMARK 922        TOTAL FREE ENERGY PREDICTED BY IDOCK:   -2.73 KCAL/MOL
REMARK 923 INTER-LIGAND FREE ENERGY PREDICTED BY IDOCK:   -2.38 KCAL/MOL
REMARK 924 INTRA-LIGAND FREE ENERGY PREDICTED BY IDOCK:   -0.35 KCAL/MOL
REMARK 927      BINDING AFFINITY PREDICTED BY RF-SCORE:    0.00 PKD
ROOT
HETATM    1  C   UNL     1     -10.794   5.853  66.674  1.00  0.00    -0.217 C  
HETATM    2  S   UNL     1      -9.362   6.354  67.600  1.00  0.00    -0.116 S  
HETATM    3  O   UNL     1     -10.139   7.197  68.758  1.00  0.00    -0.163 OA 
HETATM    4  O   UNL     1      -8.772   5.182  68.206  1.00  0.00    -0.102 OA 
HETATM    5  O   UNL     1      -8.591   7.278  66.797  1.00  0.00    -0.119 OA 
ENDROOT
BRANCH   3   6
HETATM    6  C   UNL     1      -9.328   7.839  69.733  1.00  0.00    -0.153 C  
BRANCH   6   7
HETATM    7  C   UNL     1      -9.334   9.346  69.502  1.00  0.00    -0.187 C  
BRANCH   7   8
HETATM    8  C   UNL     1      -7.954   9.945  69.201  1.00  0.00    -0.112 C  
BRANCH   8   9
HETATM    9  C   UNL     1      -8.001  11.311  68.525  1.00  0.00    -0.145 C  
BRANCH   9  10
HETATM   10  O   UNL     1      -8.673  11.195  67.280  1.00  0.00    -0.136 OA 
HETATM   11  S   UNL     1      -9.831  12.294  66.957  1.00  0.00    -0.208 S  
HETATM   12  O   UNL     1      -9.197  13.578  66.753  1.00  0.00    -0.246 OA 
HETATM   13  O   UNL     1     -10.918  12.111  67.896  1.00  0.00    -0.209 OA 
HETATM   14  C   UNL     1     -10.322  11.645  65.379  1.00  0.00    -0.267 C  
ENDBRANCH   9  10
ENDBRANCH   8   9
ENDBRANCH   7   8
ENDBRANCH   6   7
ENDBRANCH   3   6
TORSDOF 5
ENDMDL
MODEL      290
REMARK 921   NORMALIZED FREE ENERGY PREDICTED BY IDOCK:   -1.95 KCAL/MOL
REMARK 922        TOTAL FREE ENERGY PREDICTED BY IDOCK:   -2.71 KCAL/MOL
REMARK 923 INTER-LIGAND FREE ENERGY PREDICTED BY IDOCK:   -2.62 KCAL/MOL
REMARK 924 INTRA-LIGAND FREE ENERGY PREDICTED BY IDOCK:   -0.09 KCAL/MOL
REMARK 927      BINDING AFFINITY PREDICTED BY RF-SCORE:    0.00 PKD
ROOT
HETATM    1  C   UNL     1      -8.269   9.821  63.710  1.00  0.00    -0.162 C  
HETATM    2  S   UNL     1      -8.161  10.542  65.331  1.00  0.00    -0.127 S  
HETATM    3  O   UNL     1      -8.766   9.280  66.168  1.00  0.00    -0.138 OA 
HETATM    4  O   UNL     1      -6.765  10.692  65.677  1.00  0.00    -0.124 OA 
HETATM    5  O   UNL     1      -9.099  11.641  65.414  1.00  0.00    -0.136 OA 
ENDROOT
BRANCH   3   6
HETATM    6  C   UNL     1      -8.905   9.454  67.572  1.00  0.00    -0.118 C  
BRANCH   6   7
HETATM    7  C   UNL     1     -10.382   9.543  67.940  1.00  0.00    -0.276 C  
BRANCH   7   8
HETATM    8  C   UNL     1     -10.680  10.446  69.144  1.00  0.00    -0.266 C  
BRANCH   8   9
HETATM    9  C   UNL     1     -10.560   9.746  70.493  1.00  0.00    -0.312 C  
BRANCH   9  10
HETATM   10  O   UNL     1     -10.205   8.387  70.287  1.00  0.00    -0.190 OA 
HETATM   11  S   UNL     1     -10.212   7.412  71.592  1.00  0.00    -0.187 S  
HETATM   12  O   UNL     1     -11.582   7.227  72.015  1.00  0.00    -0.260 OA 
HETATM   13  O   UNL     1      -9.176   7.851  72.502  1.00  0.00    -0.154 OA 
HETATM   14  C   UNL     1      -9.666   5.936  70.771  1.00  0.00    -0.172 C  
ENDBRANCH   9  10
ENDBRANCH   8   9
ENDBRANCH   7   8
ENDBRANCH   6   7
ENDBRANCH   3   6
TORSDOF 5
ENDMDL
MODEL      291
REMARK 921   NORMALIZED FREE ENERGY PREDICTED BY IDOCK:   -1.94 KCAL/MOL
REMARK 922        TOTAL FREE ENERGY PREDICTED BY IDOCK:   -2.69 KCAL/MOL
REMARK 923 INTER-LIGAND FREE ENERGY PREDICTED BY IDOCK:   -2.42 KCAL/MOL
REMARK 924 INTRA-LIGAND FREE ENERGY PREDICTED BY IDOCK:   -0.27 KCAL/MOL
REMARK 927      BINDING AFFINITY PREDICTED BY RF-SCORE:    0.00 PKD
ROOT
HETATM    1  C   UNL     1     -10.809   7.704  72.898  1.00  0.00    -0.389 C  
HETATM    2  S   UNL     1     -11.277   7.863  71.191  1.00  0.00    -0.265 S  
HETATM    3  O   UNL     1     -10.012   8.768  70.705  1.00  0.00    -0.180 OA 
HETATM    4  O   UNL     1     -11.178   6.564  70.563  1.00  0.00    -0.292 OA 
HETATM    5  O   UNL     1     -12.477   8.668  71.113  1.00  0.00    -0.276 OA 
ENDROOT
BRANCH   3   6
HETATM    6  C   UNL     1     -10.009   9.181  69.345  1.00  0.00    -0.191 C  
BRANCH   6   7
HETATM    7  C   UNL     1      -8.833   8.544  68.612  1.00  0.00    -0.136 C  
BRANCH   7   8
HETATM    8  C   UNL     1      -9.070   8.321  67.112  1.00  0.00    -0.162 C  
BRANCH   8   9
HETATM    9  C   UNL     1      -8.212   7.218  66.502  1.00  0.00    -0.117 C  
BRANCH   9  10
HETATM   10  O   UNL     1      -8.990   6.478  65.573  1.00  0.00    -0.064 OA 
HETATM   11  S   UNL     1      -9.452   4.981  66.018  1.00  0.00    -0.168 S  
HETATM   12  O   UNL     1     -10.424   5.102  67.083  1.00  0.00    -0.212 OA 
HETATM   13  O   UNL     1      -8.273   4.150  66.140  1.00  0.00    -0.104 OA 
HETATM   14  C   UNL     1     -10.301   4.554  64.519  1.00  0.00     0.136 C  
ENDBRANCH   9  10
ENDBRANCH   8   9
ENDBRANCH   7   8
ENDBRANCH   6   7
ENDBRANCH   3   6
TORSDOF 5
ENDMDL
MODEL      292
REMARK 921   NORMALIZED FREE ENERGY PREDICTED BY IDOCK:   -1.93 KCAL/MOL
REMARK 922        TOTAL FREE ENERGY PREDICTED BY IDOCK:   -2.69 KCAL/MOL
REMARK 923 INTER-LIGAND FREE ENERGY PREDICTED BY IDOCK:   -2.90 KCAL/MOL
REMARK 924 INTRA-LIGAND FREE ENERGY PREDICTED BY IDOCK:    0.22 KCAL/MOL
REMARK 927      BINDING AFFINITY PREDICTED BY RF-SCORE:    0.00 PKD
ROOT
HETATM    1  C   UNL     1     -10.309   4.635  73.254  1.00  0.00    -0.181 C  
HETATM    2  S   UNL     1     -11.251   6.027  72.678  1.00  0.00    -0.274 S  
HETATM    3  O   UNL     1     -10.645   6.086  71.166  1.00  0.00    -0.226 OA 
HETATM    4  O   UNL     1     -12.643   5.641  72.597  1.00  0.00     0.017 OA 
HETATM    5  O   UNL     1     -10.819   7.208  73.393  1.00  0.00    -0.351 OA 
ENDROOT
BRANCH   3   6
HETATM    6  C   UNL     1     -11.117   7.135  70.330  1.00  0.00    -0.274 C  
BRANCH   6   7
HETATM    7  C   UNL     1     -10.494   8.459  70.759  1.00  0.00    -0.230 C  
BRANCH   7   8
HETATM    8  C   UNL     1     -10.894   9.657  69.888  1.00  0.00    -0.287 C  
BRANCH   8   9
HETATM    9  C   UNL     1      -9.756  10.227  69.049  1.00  0.00    -0.205 C  
BRANCH   9  10
HETATM   10  O   UNL     1      -9.926  11.631  68.922  1.00  0.00    -0.168 OA 
HETATM   11  S   UNL     1      -8.838  12.430  68.010  1.00  0.00    -0.191 S  
HETATM   12  O   UNL     1      -9.035  12.052  66.628  1.00  0.00    -0.199 OA 
HETATM   13  O   UNL     1      -7.544  12.347  68.655  1.00  0.00    -0.116 OA 
HETATM   14  C   UNL     1      -9.496  14.061  68.253  1.00  0.00    -0.216 C  
ENDBRANCH   9  10
ENDBRANCH   8   9
ENDBRANCH   7   8
ENDBRANCH   6   7
ENDBRANCH   3   6
TORSDOF 5
ENDMDL
MODEL      293
REMARK 921   NORMALIZED FREE ENERGY PREDICTED BY IDOCK:   -1.92 KCAL/MOL
REMARK 922        TOTAL FREE ENERGY PREDICTED BY IDOCK:   -2.67 KCAL/MOL
REMARK 923 INTER-LIGAND FREE ENERGY PREDICTED BY IDOCK:   -2.25 KCAL/MOL
REMARK 924 INTRA-LIGAND FREE ENERGY PREDICTED BY IDOCK:   -0.42 KCAL/MOL
REMARK 927      BINDING AFFINITY PREDICTED BY RF-SCORE:    0.00 PKD
ROOT
HETATM    1  C   UNL     1     -11.882  10.400  70.712  1.00  0.00    -0.368 C  
HETATM    2  S   UNL     1     -10.732   9.400  69.797  1.00  0.00    -0.238 S  
HETATM    3  O   UNL     1      -9.418   9.688  70.718  1.00  0.00    -0.219 OA 
HETATM    4  O   UNL     1     -11.103   8.011  69.952  1.00  0.00    -0.215 OA 
HETATM    5  O   UNL     1     -10.525  10.003  68.498  1.00  0.00    -0.184 OA 
ENDROOT
BRANCH   3   6
HETATM    6  C   UNL     1      -8.201   9.086  70.297  1.00  0.00    -0.143 C  
BRANCH   6   7
HETATM    7  C   UNL     1      -7.482   8.476  71.496  1.00  0.00    -0.123 C  
BRANCH   7   8
HETATM    8  C   UNL     1      -8.395   8.169  72.690  1.00  0.00    -0.236 C  
BRANCH   8   9
HETATM    9  C   UNL     1      -9.073   6.805  72.623  1.00  0.00    -0.132 C  
BRANCH   9  10
HETATM   10  O   UNL     1      -8.291   5.858  73.336  1.00  0.00    -0.115 OA 
HETATM   11  S   UNL     1      -7.801   4.536  72.520  1.00  0.00    -0.088 S  
HETATM   12  O   UNL     1      -6.821   4.944  71.537  1.00  0.00    -0.040 OA 
HETATM   13  O   UNL     1      -8.965   3.751  72.169  1.00  0.00    -0.104 OA 
HETATM   14  C   UNL     1      -6.959   3.742  73.866  1.00  0.00    -0.051 C  
ENDBRANCH   9  10
ENDBRANCH   8   9
ENDBRANCH   7   8
ENDBRANCH   6   7
ENDBRANCH   3   6
TORSDOF 5
ENDMDL
MODEL      294
REMARK 921   NORMALIZED FREE ENERGY PREDICTED BY IDOCK:   -1.92 KCAL/MOL
REMARK 922        TOTAL FREE ENERGY PREDICTED BY IDOCK:   -2.67 KCAL/MOL
REMARK 923 INTER-LIGAND FREE ENERGY PREDICTED BY IDOCK:   -2.37 KCAL/MOL
REMARK 924 INTRA-LIGAND FREE ENERGY PREDICTED BY IDOCK:   -0.30 KCAL/MOL
REMARK 927      BINDING AFFINITY PREDICTED BY RF-SCORE:    0.00 PKD
ROOT
HETATM    1  C   UNL     1      -9.011   8.586  71.662  1.00  0.00    -0.219 C  
HETATM    2  S   UNL     1      -7.505   8.769  70.736  1.00  0.00    -0.099 S  
HETATM    3  O   UNL     1      -8.178   8.921  69.260  1.00  0.00    -0.110 OA 
HETATM    4  O   UNL     1      -6.896  10.031  71.092  1.00  0.00    -0.336 OA 
HETATM    5  O   UNL     1      -6.776   7.520  70.784  1.00  0.00    -0.043 OA 
ENDROOT
BRANCH   3   6
HETATM    6  C   UNL     1      -7.284   9.051  68.162  1.00  0.00    -0.079 C  
BRANCH   6   7
HETATM    7  C   UNL     1      -7.389  10.453  67.572  1.00  0.00    -0.092 C  
BRANCH   7   8
HETATM    8  C   UNL     1      -6.454  10.710  66.382  1.00  0.00    -0.117 C  
BRANCH   8   9
HETATM    9  C   UNL     1      -6.887  10.027  65.090  1.00  0.00    -0.130 C  
BRANCH   9  10
HETATM   10  O   UNL     1      -7.859  10.831  64.437  1.00  0.00     0.046 OA 
HETATM   11  S   UNL     1      -9.239  10.099  63.977  1.00  0.00    -0.286 S  
HETATM   12  O   UNL     1      -9.990   9.753  65.163  1.00  0.00    -0.309 OA 
HETATM   13  O   UNL     1      -8.926   9.126  62.951  1.00  0.00    -0.185 OA 
HETATM   14  C   UNL     1      -9.997  11.511  63.214  1.00  0.00    -0.409 C  
ENDBRANCH   9  10
ENDBRANCH   8   9
ENDBRANCH   7   8
ENDBRANCH   6   7
ENDBRANCH   3   6
TORSDOF 5
ENDMDL
MODEL      295
REMARK 921   NORMALIZED FREE ENERGY PREDICTED BY IDOCK:   -1.90 KCAL/MOL
REMARK 922        TOTAL FREE ENERGY PREDICTED BY IDOCK:   -2.65 KCAL/MOL
REMARK 923 INTER-LIGAND FREE ENERGY PREDICTED BY IDOCK:   -2.39 KCAL/MOL
REMARK 924 INTRA-LIGAND FREE ENERGY PREDICTED BY IDOCK:   -0.26 KCAL/MOL
REMARK 927      BINDING AFFINITY PREDICTED BY RF-SCORE:    0.00 PKD
ROOT
HETATM    1  C   UNL     1     -10.174   4.640  65.871  1.00  0.00    -0.276 C  
HETATM    2  S   UNL     1      -9.150   5.185  67.218  1.00  0.00    -0.115 S  
HETATM    3  O   UNL     1      -9.796   6.672  67.390  1.00  0.00    -0.122 OA 
HETATM    4  O   UNL     1      -9.478   4.406  68.391  1.00  0.00    -0.139 OA 
HETATM    5  O   UNL     1      -7.792   5.326  66.740  1.00  0.00    -0.099 OA 
ENDROOT
BRANCH   3   6
HETATM    6  C   UNL     1      -9.213   7.509  68.380  1.00  0.00    -0.139 C  
BRANCH   6   7
HETATM    7  C   UNL     1     -10.206   7.739  69.515  1.00  0.00    -0.207 C  
BRANCH   7   8
HETATM    8  C   UNL     1     -10.109   9.123  70.170  1.00  0.00    -0.233 C  
BRANCH   8   9
HETATM    9  C   UNL     1      -8.805   9.859  69.882  1.00  0.00    -0.195 C  
BRANCH   9  10
HETATM   10  O   UNL     1      -7.832   9.483  70.844  1.00  0.00    -0.299 OA 
HETATM   11  S   UNL     1      -6.298   9.962  70.574  1.00  0.00    -0.113 S  
HETATM   12  O   UNL     1      -6.233  11.397  70.735  1.00  0.00    -0.343 OA 
HETATM   13  O   UNL     1      -5.809   9.295  69.386  1.00  0.00    -0.034 OA 
HETATM   14  C   UNL     1      -5.570   9.196  72.001  1.00  0.00    -0.073 C  
ENDBRANCH   9  10
ENDBRANCH   8   9
ENDBRANCH   7   8
ENDBRANCH   6   7
ENDBRANCH   3   6
TORSDOF 5
ENDMDL
MODEL      296
REMARK 921   NORMALIZED FREE ENERGY PREDICTED BY IDOCK:   -1.90 KCAL/MOL
REMARK 922        TOTAL FREE ENERGY PREDICTED BY IDOCK:   -2.64 KCAL/MOL
REMARK 923 INTER-LIGAND FREE ENERGY PREDICTED BY IDOCK:   -2.31 KCAL/MOL
REMARK 924 INTRA-LIGAND FREE ENERGY PREDICTED BY IDOCK:   -0.33 KCAL/MOL
REMARK 927      BINDING AFFINITY PREDICTED BY RF-SCORE:    0.00 PKD
ROOT
HETATM    1  C   UNL     1      -9.406   2.976  68.044  1.00  0.00    -0.201 C  
HETATM    2  S   UNL     1      -8.580   4.452  67.499  1.00  0.00    -0.105 S  
HETATM    3  O   UNL     1      -9.606   5.530  68.163  1.00  0.00    -0.111 OA 
HETATM    4  O   UNL     1      -7.309   4.549  68.182  1.00  0.00    -0.064 OA 
HETATM    5  O   UNL     1      -8.690   4.540  66.058  1.00  0.00    -0.113 OA 
ENDROOT
BRANCH   3   6
HETATM    6  C   UNL     1      -9.330   6.904  67.923  1.00  0.00    -0.118 C  
BRANCH   6   7
HETATM    7  C   UNL     1     -10.592   7.608  67.433  1.00  0.00    -0.356 C  
BRANCH   7   8
HETATM    8  C   UNL     1     -10.524   9.139  67.489  1.00  0.00    -0.335 C  
BRANCH   8   9
HETATM    9  C   UNL     1     -10.079   9.695  68.837  1.00  0.00    -0.187 C  
BRANCH   9  10
HETATM   10  O   UNL     1      -9.178  10.773  68.626  1.00  0.00    -0.168 OA 
HETATM   11  S   UNL     1      -7.610  10.509  68.979  1.00  0.00    -0.128 S  
HETATM   12  O   UNL     1      -7.076   9.574  68.013  1.00  0.00    -0.078 OA 
HETATM   13  O   UNL     1      -7.486  10.299  70.406  1.00  0.00    -0.250 OA 
HETATM   14  C   UNL     1      -7.016  12.135  68.585  1.00  0.00    -0.097 C  
ENDBRANCH   9  10
ENDBRANCH   8   9
ENDBRANCH   7   8
ENDBRANCH   6   7
ENDBRANCH   3   6
TORSDOF 5
ENDMDL
MODEL      297
REMARK 921   NORMALIZED FREE ENERGY PREDICTED BY IDOCK:   -1.89 KCAL/MOL
REMARK 922        TOTAL FREE ENERGY PREDICTED BY IDOCK:   -2.63 KCAL/MOL
REMARK 923 INTER-LIGAND FREE ENERGY PREDICTED BY IDOCK:   -2.40 KCAL/MOL
REMARK 924 INTRA-LIGAND FREE ENERGY PREDICTED BY IDOCK:   -0.23 KCAL/MOL
REMARK 927      BINDING AFFINITY PREDICTED BY RF-SCORE:    0.00 PKD
ROOT
HETATM    1  C   UNL     1      -7.525   8.921  63.558  1.00  0.00    -0.105 C  
HETATM    2  S   UNL     1      -8.492  10.178  64.359  1.00  0.00    -0.184 S  
HETATM    3  O   UNL     1      -9.265   9.212  65.419  1.00  0.00    -0.219 OA 
HETATM    4  O   UNL     1      -7.601  11.046  65.097  1.00  0.00     0.146 OA 
HETATM    5  O   UNL     1      -9.460  10.692  63.413  1.00  0.00    -0.258 OA 
ENDROOT
BRANCH   3   6
HETATM    6  C   UNL     1     -10.219   9.834  66.271  1.00  0.00    -0.212 C  
BRANCH   6   7
HETATM    7  C   UNL     1     -10.585   8.892  67.414  1.00  0.00    -0.305 C  
BRANCH   7   8
HETATM    8  C   UNL     1      -9.472   7.912  67.806  1.00  0.00    -0.165 C  
BRANCH   8   9
HETATM    9  C   UNL     1      -8.544   8.426  68.901  1.00  0.00    -0.135 C  
BRANCH   9  10
HETATM   10  O   UNL     1      -9.266   8.523  70.119  1.00  0.00    -0.151 OA 
HETATM   11  S   UNL     1      -8.515   8.004  71.469  1.00  0.00    -0.131 S  
HETATM   12  O   UNL     1      -7.436   8.918  71.772  1.00  0.00    -0.271 OA 
HETATM   13  O   UNL     1      -8.309   6.575  71.363  1.00  0.00    -0.123 OA 
HETATM   14  C   UNL     1      -9.851   8.307  72.598  1.00  0.00    -0.287 C  
ENDBRANCH   9  10
ENDBRANCH   8   9
ENDBRANCH   7   8
ENDBRANCH   6   7
ENDBRANCH   3   6
TORSDOF 5
ENDMDL
MODEL      298
REMARK 921   NORMALIZED FREE ENERGY PREDICTED BY IDOCK:   -1.86 KCAL/MOL
REMARK 922        TOTAL FREE ENERGY PREDICTED BY IDOCK:   -2.59 KCAL/MOL
REMARK 923 INTER-LIGAND FREE ENERGY PREDICTED BY IDOCK:   -2.41 KCAL/MOL
REMARK 924 INTRA-LIGAND FREE ENERGY PREDICTED BY IDOCK:   -0.18 KCAL/MOL
REMARK 927      BINDING AFFINITY PREDICTED BY RF-SCORE:    0.00 PKD
ROOT
HETATM    1  C   UNL     1      -7.202   2.589  69.784  1.00  0.00    -0.043 C  
HETATM    2  S   UNL     1      -8.445   3.521  70.647  1.00  0.00    -0.070 S  
HETATM    3  O   UNL     1      -8.084   4.985  70.030  1.00  0.00    -0.073 OA 
HETATM    4  O   UNL     1      -9.745   3.125  70.153  1.00  0.00    -0.139 OA 
HETATM    5  O   UNL     1      -8.125   3.524  72.059  1.00  0.00    -0.062 OA 
ENDROOT
BRANCH   3   6
HETATM    6  C   UNL     1      -8.846   6.085  70.509  1.00  0.00    -0.145 C  
BRANCH   6   7
HETATM    7  C   UNL     1      -9.666   6.682  69.370  1.00  0.00    -0.153 C  
BRANCH   7   8
HETATM    8  C   UNL     1     -10.032   8.160  69.562  1.00  0.00    -0.187 C  
BRANCH   8   9
HETATM    9  C   UNL     1     -10.294   8.913  68.262  1.00  0.00    -0.206 C  
BRANCH   9  10
HETATM   10  O   UNL     1      -9.909  10.270  68.421  1.00  0.00    -0.149 OA 
HETATM   11  S   UNL     1     -11.039  11.402  68.114  1.00  0.00    -0.273 S  
HETATM   12  O   UNL     1     -12.048  11.331  69.148  1.00  0.00    -0.336 OA 
HETATM   13  O   UNL     1     -11.372  11.354  66.707  1.00  0.00    -0.363 OA 
HETATM   14  C   UNL     1     -10.018  12.824  68.414  1.00  0.00    -0.210 C  
ENDBRANCH   9  10
ENDBRANCH   8   9
ENDBRANCH   7   8
ENDBRANCH   6   7
ENDBRANCH   3   6
TORSDOF 5
ENDMDL
MODEL      299
REMARK 921   NORMALIZED FREE ENERGY PREDICTED BY IDOCK:   -1.86 KCAL/MOL
REMARK 922        TOTAL FREE ENERGY PREDICTED BY IDOCK:   -2.59 KCAL/MOL
REMARK 923 INTER-LIGAND FREE ENERGY PREDICTED BY IDOCK:   -2.24 KCAL/MOL
REMARK 924 INTRA-LIGAND FREE ENERGY PREDICTED BY IDOCK:   -0.36 KCAL/MOL
REMARK 927      BINDING AFFINITY PREDICTED BY RF-SCORE:    0.00 PKD
ROOT
HETATM    1  C   UNL     1      -5.720   4.874  65.989  1.00  0.00    -0.018 C  
HETATM    2  S   UNL     1      -7.470   5.178  65.985  1.00  0.00    -0.083 S  
HETATM    3  O   UNL     1      -7.835   4.353  67.342  1.00  0.00    -0.094 OA 
HETATM    4  O   UNL     1      -7.695   6.585  66.232  1.00  0.00    -0.091 OA 
HETATM    5  O   UNL     1      -8.058   4.490  64.855  1.00  0.00    -0.096 OA 
ENDROOT
BRANCH   3   6
HETATM    6  C   UNL     1      -9.208   4.296  67.705  1.00  0.00    -0.149 C  
BRANCH   6   7
HETATM    7  C   UNL     1      -9.410   4.934  69.075  1.00  0.00    -0.183 C  
BRANCH   7   8
HETATM    8  C   UNL     1     -10.633   5.855  69.170  1.00  0.00    -0.369 C  
BRANCH   8   9
HETATM    9  C   UNL     1     -10.357   7.304  68.782  1.00  0.00    -0.200 C  
BRANCH   9  10
HETATM   10  O   UNL     1      -9.161   7.737  69.413  1.00  0.00    -0.146 OA 
HETATM   11  S   UNL     1      -9.243   9.102  70.300  1.00  0.00    -0.237 S  
HETATM   12  O   UNL     1     -10.037   8.833  71.478  1.00  0.00    -0.243 OA 
HETATM   13  O   UNL     1      -9.527  10.211  69.414  1.00  0.00    -0.204 OA 
HETATM   14  C   UNL     1      -7.532   9.166  70.769  1.00  0.00    -0.122 C  
ENDBRANCH   9  10
ENDBRANCH   8   9
ENDBRANCH   7   8
ENDBRANCH   6   7
ENDBRANCH   3   6
TORSDOF 5
ENDMDL
MODEL      300
REMARK 921   NORMALIZED FREE ENERGY PREDICTED BY IDOCK:   -1.81 KCAL/MOL
REMARK 922        TOTAL FREE ENERGY PREDICTED BY IDOCK:   -2.53 KCAL/MOL
REMARK 923 INTER-LIGAND FREE ENERGY PREDICTED BY IDOCK:   -2.19 KCAL/MOL
REMARK 924 INTRA-LIGAND FREE ENERGY PREDICTED BY IDOCK:   -0.34 KCAL/MOL
REMARK 927      BINDING AFFINITY PREDICTED BY RF-SCORE:    0.00 PKD
ROOT
HETATM    1  C   UNL     1      -6.553   4.671  65.302  1.00  0.00    -0.047 C  
HETATM    2  S   UNL     1      -8.162   4.978  65.989  1.00  0.00    -0.114 S  
HETATM    3  O   UNL     1      -7.967   6.567  66.294  1.00  0.00    -0.105 OA 
HETATM    4  O   UNL     1      -9.147   4.832  64.940  1.00  0.00    -0.155 OA 
HETATM    5  O   UNL     1      -8.270   4.277  67.251  1.00  0.00    -0.099 OA 
ENDROOT
BRANCH   3   6
HETATM    6  C   UNL     1      -9.055   7.235  66.918  1.00  0.00    -0.141 C  
BRANCH   6   7
HETATM    7  C   UNL     1      -9.526   8.391  66.042  1.00  0.00    -0.224 C  
BRANCH   7   8
HETATM    8  C   UNL     1      -8.394   9.269  65.492  1.00  0.00    -0.139 C  
BRANCH   8   9
HETATM    9  C   UNL     1      -8.459  10.724  65.941  1.00  0.00    -0.166 C  
BRANCH   9  10
HETATM   10  O   UNL     1      -9.688  10.953  66.614  1.00  0.00    -0.181 OA 
HETATM   11  S   UNL     1      -9.605  11.378  68.185  1.00  0.00    -0.196 S  
HETATM   12  O   UNL     1      -9.049  12.710  68.268  1.00  0.00    -0.199 OA 
HETATM   13  O   UNL     1      -9.061  10.266  68.936  1.00  0.00    -0.149 OA 
HETATM   14  C   UNL     1     -11.352  11.470  68.484  1.00  0.00    -0.277 C  
ENDBRANCH   9  10
ENDBRANCH   8   9
ENDBRANCH   7   8
ENDBRANCH   6   7
ENDBRANCH   3   6
TORSDOF 5
ENDMDL
MODEL      301
REMARK 921   NORMALIZED FREE ENERGY PREDICTED BY IDOCK:   -1.80 KCAL/MOL
REMARK 922        TOTAL FREE ENERGY PREDICTED BY IDOCK:   -2.51 KCAL/MOL
REMARK 923 INTER-LIGAND FREE ENERGY PREDICTED BY IDOCK:   -2.21 KCAL/MOL
REMARK 924 INTRA-LIGAND FREE ENERGY PREDICTED BY IDOCK:   -0.30 KCAL/MOL
REMARK 927      BINDING AFFINITY PREDICTED BY RF-SCORE:    0.00 PKD
ROOT
HETATM    1  C   UNL     1      -5.560   4.859  66.930  1.00  0.00    -0.013 C  
HETATM    2  S   UNL     1      -6.390   6.235  66.171  1.00  0.00    -0.040 S  
HETATM    3  O   UNL     1      -7.703   6.253  67.135  1.00  0.00    -0.094 OA 
HETATM    4  O   UNL     1      -5.621   7.433  66.424  1.00  0.00    -0.026 OA 
HETATM    5  O   UNL     1      -6.802   5.850  64.838  1.00  0.00    -0.046 OA 
ENDROOT
BRANCH   3   6
HETATM    6  C   UNL     1      -8.700   7.221  66.837  1.00  0.00    -0.126 C  
BRANCH   6   7
HETATM    7  C   UNL     1     -10.079   6.570  66.864  1.00  0.00    -0.253 C  
BRANCH   7   8
HETATM    8  C   UNL     1     -10.327   5.664  68.077  1.00  0.00    -0.258 C  
BRANCH   8   9
HETATM    9  C   UNL     1     -11.241   6.273  69.135  1.00  0.00    -0.371 C  
BRANCH   9  10
HETATM   10  O   UNL     1     -10.733   5.968  70.425  1.00  0.00    -0.246 OA 
HETATM   11  S   UNL     1     -10.178   7.213  71.317  1.00  0.00    -0.188 S  
HETATM   12  O   UNL     1     -11.304   8.033  71.706  1.00  0.00    -0.250 OA 
HETATM   13  O   UNL     1      -9.010   7.765  70.665  1.00  0.00    -0.143 OA 
HETATM   14  C   UNL     1      -9.654   6.264  72.723  1.00  0.00    -0.154 C  
ENDBRANCH   9  10
ENDBRANCH   8   9
ENDBRANCH   7   8
ENDBRANCH   6   7
ENDBRANCH   3   6
TORSDOF 5
ENDMDL
MODEL      302
REMARK 921   NORMALIZED FREE ENERGY PREDICTED BY IDOCK:   -1.73 KCAL/MOL
REMARK 922        TOTAL FREE ENERGY PREDICTED BY IDOCK:   -2.43 KCAL/MOL
REMARK 923 INTER-LIGAND FREE ENERGY PREDICTED BY IDOCK:   -2.48 KCAL/MOL
REMARK 924 INTRA-LIGAND FREE ENERGY PREDICTED BY IDOCK:    0.06 KCAL/MOL
REMARK 927      BINDING AFFINITY PREDICTED BY RF-SCORE:    0.00 PKD
ROOT
HETATM    1  C   UNL     1     -12.432   9.072  72.099  1.00  0.00    -0.380 C  
HETATM    2  S   UNL     1     -10.972   8.370  71.368  1.00  0.00    -0.270 S  
HETATM    3  O   UNL     1     -10.758   9.488  70.201  1.00  0.00    -0.222 OA 
HETATM    4  O   UNL     1      -9.883   8.483  72.313  1.00  0.00    -0.285 OA 
HETATM    5  O   UNL     1     -11.323   7.113  70.743  1.00  0.00    -0.267 OA 
ENDROOT
BRANCH   3   6
HETATM    6  C   UNL     1      -9.670   9.279  69.310  1.00  0.00    -0.169 C  
BRANCH   6   7
HETATM    7  C   UNL     1     -10.046   9.758  67.912  1.00  0.00    -0.212 C  
BRANCH   7   8
HETATM    8  C   UNL     1      -9.322   9.024  66.776  1.00  0.00    -0.213 C  
BRANCH   8   9
HETATM    9  C   UNL     1      -7.969   8.441  67.172  1.00  0.00    -0.104 C  
BRANCH   9  10
HETATM   10  O   UNL     1      -7.182   8.249  66.005  1.00  0.00    -0.070 OA 
HETATM   11  S   UNL     1      -6.419   9.557  65.403  1.00  0.00    -0.076 S  
HETATM   12  O   UNL     1      -5.371   9.938  66.323  1.00  0.00    -0.042 OA 
HETATM   13  O   UNL     1      -7.414  10.497  64.934  1.00  0.00    -0.104 OA 
HETATM   14  C   UNL     1      -5.681   8.757  64.000  1.00  0.00    -0.070 C  
ENDBRANCH   9  10
ENDBRANCH   8   9
ENDBRANCH   7   8
ENDBRANCH   6   7
ENDBRANCH   3   6
TORSDOF 5
ENDMDL
MODEL      303
REMARK 921   NORMALIZED FREE ENERGY PREDICTED BY IDOCK:   -1.72 KCAL/MOL
REMARK 922        TOTAL FREE ENERGY PREDICTED BY IDOCK:   -2.41 KCAL/MOL
REMARK 923 INTER-LIGAND FREE ENERGY PREDICTED BY IDOCK:   -2.19 KCAL/MOL
REMARK 924 INTRA-LIGAND FREE ENERGY PREDICTED BY IDOCK:   -0.22 KCAL/MOL
REMARK 927      BINDING AFFINITY PREDICTED BY RF-SCORE:    0.00 PKD
ROOT
HETATM    1  C   UNL     1     -10.279   4.535  66.005  1.00  0.00    -0.260 C  
HETATM    2  S   UNL     1      -8.523   4.625  66.260  1.00  0.00    -0.113 S  
HETATM    3  O   UNL     1      -8.555   5.023  67.840  1.00  0.00    -0.104 OA 
HETATM    4  O   UNL     1      -7.969   3.295  66.135  1.00  0.00    -0.086 OA 
HETATM    5  O   UNL     1      -8.003   5.750  65.512  1.00  0.00    -0.103 OA 
ENDROOT
BRANCH   3   6
HETATM    6  C   UNL     1      -7.299   5.247  68.467  1.00  0.00    -0.071 C  
BRANCH   6   7
HETATM    7  C   UNL     1      -7.512   5.695  69.909  1.00  0.00    -0.071 C  
BRANCH   7   8
HETATM    8  C   UNL     1      -7.968   7.153  70.057  1.00  0.00    -0.118 C  
BRANCH   8   9
HETATM    9  C   UNL     1      -8.998   7.376  71.159  1.00  0.00    -0.143 C  
BRANCH   9  10
HETATM   10  O   UNL     1      -9.130   6.188  71.925  1.00  0.00    -0.141 OA 
HETATM   11  S   UNL     1     -10.317   6.153  73.040  1.00  0.00    -0.219 S  
HETATM   12  O   UNL     1     -11.589   6.121  72.352  1.00  0.00    -0.295 OA 
HETATM   13  O   UNL     1     -10.017   7.131  74.064  1.00  0.00    -0.311 OA 
HETATM   14  C   UNL     1      -9.976   4.532  73.679  1.00  0.00    -0.149 C  
ENDBRANCH   9  10
ENDBRANCH   8   9
ENDBRANCH   7   8
ENDBRANCH   6   7
ENDBRANCH   3   6
TORSDOF 5
ENDMDL
MODEL      304
REMARK 921   NORMALIZED FREE ENERGY PREDICTED BY IDOCK:   -1.70 KCAL/MOL
REMARK 922        TOTAL FREE ENERGY PREDICTED BY IDOCK:   -2.39 KCAL/MOL
REMARK 923 INTER-LIGAND FREE ENERGY PREDICTED BY IDOCK:   -1.95 KCAL/MOL
REMARK 924 INTRA-LIGAND FREE ENERGY PREDICTED BY IDOCK:   -0.44 KCAL/MOL
REMARK 927      BINDING AFFINITY PREDICTED BY RF-SCORE:    0.00 PKD
ROOT
HETATM    1  C   UNL     1     -10.096   4.473  65.838  1.00  0.00    -0.258 C  
HETATM    2  S   UNL     1      -8.681   4.654  64.778  1.00  0.00    -0.153 S  
HETATM    3  O   UNL     1      -8.147   6.074  65.373  1.00  0.00    -0.118 OA 
HETATM    4  O   UNL     1      -7.719   3.628  65.114  1.00  0.00    -0.083 OA 
HETATM    5  O   UNL     1      -9.141   4.866  63.423  1.00  0.00    -0.086 OA 
ENDROOT
BRANCH   3   6
HETATM    6  C   UNL     1      -7.000   6.636  64.750  1.00  0.00    -0.054 C  
BRANCH   6   7
HETATM    7  C   UNL     1      -7.196   8.136  64.559  1.00  0.00    -0.084 C  
BRANCH   7   8
HETATM    8  C   UNL     1      -8.510   8.519  63.867  1.00  0.00    -0.036 C  
BRANCH   8   9
HETATM    9  C   UNL     1      -9.155   9.790  64.409  1.00  0.00    -0.248 C  
BRANCH   9  10
HETATM   10  O   UNL     1      -8.565  10.118  65.659  1.00  0.00    -0.144 OA 
HETATM   11  S   UNL     1      -9.502   9.971  66.983  1.00  0.00    -0.168 S  
HETATM   12  O   UNL     1      -9.750   8.565  67.212  1.00  0.00    -0.159 OA 
HETATM   13  O   UNL     1     -10.574  10.940  66.901  1.00  0.00    -0.238 OA 
HETATM   14  C   UNL     1      -8.307  10.538  68.167  1.00  0.00    -0.119 C  
ENDBRANCH   9  10
ENDBRANCH   8   9
ENDBRANCH   7   8
ENDBRANCH   6   7
ENDBRANCH   3   6
TORSDOF 5
ENDMDL
MODEL      305
REMARK 921   NORMALIZED FREE ENERGY PREDICTED BY IDOCK:   -1.68 KCAL/MOL
REMARK 922        TOTAL FREE ENERGY PREDICTED BY IDOCK:   -2.36 KCAL/MOL
REMARK 923 INTER-LIGAND FREE ENERGY PREDICTED BY IDOCK:   -1.99 KCAL/MOL
REMARK 924 INTRA-LIGAND FREE ENERGY PREDICTED BY IDOCK:   -0.37 KCAL/MOL
REMARK 927      BINDING AFFINITY PREDICTED BY RF-SCORE:    0.00 PKD
ROOT
HETATM    1  C   UNL     1     -11.576   6.497  70.222  1.00  0.00    -0.409 C  
HETATM    2  S   UNL     1     -10.561   6.463  68.764  1.00  0.00    -0.281 S  
HETATM    3  O   UNL     1     -10.187   4.877  68.799  1.00  0.00    -0.142 OA 
HETATM    4  O   UNL     1     -11.401   6.708  67.612  1.00  0.00    -0.246 OA 
HETATM    5  O   UNL     1      -9.358   7.226  69.017  1.00  0.00    -0.148 OA 
ENDROOT
BRANCH   3   6
HETATM    6  C   UNL     1      -9.311   4.405  67.784  1.00  0.00    -0.153 C  
BRANCH   6   7
HETATM    7  C   UNL     1      -7.890   4.309  68.329  1.00  0.00    -0.075 C  
BRANCH   7   8
HETATM    8  C   UNL     1      -6.829   3.976  67.272  1.00  0.00    -0.051 C  
BRANCH   8   9
HETATM    9  C   UNL     1      -7.109   4.571  65.897  1.00  0.00    -0.071 C  
BRANCH   9  10
HETATM   10  O   UNL     1      -6.588   5.891  65.842  1.00  0.00    -0.044 OA 
HETATM   11  S   UNL     1      -7.435   6.988  64.987  1.00  0.00    -0.100 S  
HETATM   12  O   UNL     1      -8.669   7.261  65.691  1.00  0.00    -0.143 OA 
HETATM   13  O   UNL     1      -7.412   6.605  63.591  1.00  0.00    -0.069 OA 
HETATM   14  C   UNL     1      -6.331   8.358  65.224  1.00  0.00    -0.052 C  
ENDBRANCH   9  10
ENDBRANCH   8   9
ENDBRANCH   7   8
ENDBRANCH   6   7
ENDBRANCH   3   6
TORSDOF 5
ENDMDL
MODEL      306
REMARK 921   NORMALIZED FREE ENERGY PREDICTED BY IDOCK:   -1.68 KCAL/MOL
REMARK 922        TOTAL FREE ENERGY PREDICTED BY IDOCK:   -2.36 KCAL/MOL
REMARK 923 INTER-LIGAND FREE ENERGY PREDICTED BY IDOCK:   -2.24 KCAL/MOL
REMARK 924 INTRA-LIGAND FREE ENERGY PREDICTED BY IDOCK:   -0.12 KCAL/MOL
REMARK 927      BINDING AFFINITY PREDICTED BY RF-SCORE:    0.00 PKD
ROOT
HETATM    1  C   UNL     1      -8.081   2.497  63.039  1.00  0.00    -0.069 C  
HETATM    2  S   UNL     1      -9.093   2.924  64.436  1.00  0.00    -0.125 S  
HETATM    3  O   UNL     1      -8.117   4.067  65.067  1.00  0.00    -0.092 OA 
HETATM    4  O   UNL     1     -10.296   3.567  63.954  1.00  0.00    -0.202 OA 
HETATM    5  O   UNL     1      -9.131   1.798  65.343  1.00  0.00    -0.124 OA 
ENDROOT
BRANCH   3   6
HETATM    6  C   UNL     1      -8.544   4.672  66.280  1.00  0.00    -0.113 C  
BRANCH   6   7
HETATM    7  C   UNL     1      -9.263   5.983  65.980  1.00  0.00    -0.129 C  
BRANCH   7   8
HETATM    8  C   UNL     1      -9.234   6.997  67.131  1.00  0.00    -0.153 C  
BRANCH   8   9
HETATM    9  C   UNL     1     -10.167   8.187  66.939  1.00  0.00    -0.316 C  
BRANCH   9  10
HETATM   10  O   UNL     1      -9.562   9.350  67.484  1.00  0.00    -0.136 OA 
HETATM   11  S   UNL     1      -9.579  10.695  66.566  1.00  0.00    -0.186 S  
HETATM   12  O   UNL     1     -10.942  11.170  66.477  1.00  0.00    -0.271 OA 
HETATM   13  O   UNL     1      -8.765  10.464  65.392  1.00  0.00    -0.166 OA 
HETATM   14  C   UNL     1      -8.684  11.743  67.686  1.00  0.00    -0.159 C  
ENDBRANCH   9  10
ENDBRANCH   8   9
ENDBRANCH   7   8
ENDBRANCH   6   7
ENDBRANCH   3   6
TORSDOF 5
ENDMDL
MODEL      307
REMARK 921   NORMALIZED FREE ENERGY PREDICTED BY IDOCK:   -1.65 KCAL/MOL
REMARK 922        TOTAL FREE ENERGY PREDICTED BY IDOCK:   -2.33 KCAL/MOL
REMARK 923 INTER-LIGAND FREE ENERGY PREDICTED BY IDOCK:   -2.14 KCAL/MOL
REMARK 924 INTRA-LIGAND FREE ENERGY PREDICTED BY IDOCK:   -0.19 KCAL/MOL
REMARK 927      BINDING AFFINITY PREDICTED BY RF-SCORE:    0.00 PKD
ROOT
HETATM    1  C   UNL     1     -10.697   7.776  70.777  1.00  0.00    -0.226 C  
HETATM    2  S   UNL     1      -9.789   6.420  70.072  1.00  0.00    -0.170 S  
HETATM    3  O   UNL     1      -8.778   7.299  69.144  1.00  0.00    -0.135 OA 
HETATM    4  O   UNL     1      -9.016   5.789  71.119  1.00  0.00    -0.137 OA 
HETATM    5  O   UNL     1     -10.673   5.669  69.207  1.00  0.00    -0.291 OA 
ENDROOT
BRANCH   3   6
HETATM    6  C   UNL     1      -7.863   6.572  68.334  1.00  0.00    -0.106 C  
BRANCH   6   7
HETATM    7  C   UNL     1      -7.616   7.323  67.029  1.00  0.00    -0.106 C  
BRANCH   7   8
HETATM    8  C   UNL     1      -7.409   8.834  67.199  1.00  0.00    -0.080 C  
BRANCH   8   9
HETATM    9  C   UNL     1      -8.275   9.689  66.280  1.00  0.00    -0.116 C  
BRANCH   9  10
HETATM   10  O   UNL     1      -7.605   9.872  65.042  1.00  0.00    -0.122 OA 
HETATM   11  S   UNL     1      -8.282   9.194  63.725  1.00  0.00    -0.181 S  
HETATM   12  O   UNL     1      -9.508   9.901  63.426  1.00  0.00    -0.265 OA 
HETATM   13  O   UNL     1      -8.238   7.754  63.872  1.00  0.00    -0.100 OA 
HETATM   14  C   UNL     1      -7.041   9.688  62.555  1.00  0.00    -0.102 C  
ENDBRANCH   9  10
ENDBRANCH   8   9
ENDBRANCH   7   8
ENDBRANCH   6   7
ENDBRANCH   3   6
TORSDOF 5
ENDMDL
MODEL      308
REMARK 921   NORMALIZED FREE ENERGY PREDICTED BY IDOCK:   -1.60 KCAL/MOL
REMARK 922        TOTAL FREE ENERGY PREDICTED BY IDOCK:   -2.25 KCAL/MOL
REMARK 923 INTER-LIGAND FREE ENERGY PREDICTED BY IDOCK:   -1.95 KCAL/MOL
REMARK 924 INTRA-LIGAND FREE ENERGY PREDICTED BY IDOCK:   -0.30 KCAL/MOL
REMARK 927      BINDING AFFINITY PREDICTED BY RF-SCORE:    0.00 PKD
ROOT
HETATM    1  C   UNL     1      -5.648  15.015  67.835  1.00  0.00    -0.120 C  
HETATM    2  S   UNL     1      -6.638  14.296  69.123  1.00  0.00    -0.120 S  
HETATM    3  O   UNL     1      -6.027  12.787  69.049  1.00  0.00    -0.074 OA 
HETATM    4  O   UNL     1      -6.250  14.884  70.386  1.00  0.00    -0.162 OA 
HETATM    5  O   UNL     1      -8.016  14.257  68.682  1.00  0.00    -0.136 OA 
ENDROOT
BRANCH   3   6
HETATM    6  C   UNL     1      -6.597  11.824  69.925  1.00  0.00     0.001 C  
BRANCH   6   7
HETATM    7  C   UNL     1      -7.535  10.907  69.147  1.00  0.00    -0.130 C  
BRANCH   7   8
HETATM    8  C   UNL     1      -7.006  10.481  67.772  1.00  0.00    -0.078 C  
BRANCH   8   9
HETATM    9  C   UNL     1      -7.904   9.493  67.036  1.00  0.00    -0.098 C  
BRANCH   9  10
HETATM   10  O   UNL     1      -8.453   8.574  67.969  1.00  0.00    -0.128 OA 
HETATM   11  S   UNL     1     -10.061   8.323  67.905  1.00  0.00    -0.212 S  
HETATM   12  O   UNL     1     -10.364   7.613  66.682  1.00  0.00    -0.273 OA 
HETATM   13  O   UNL     1     -10.735   9.550  68.271  1.00  0.00    -0.226 OA 
HETATM   14  C   UNL     1     -10.164   7.185  69.264  1.00  0.00    -0.190 C  
ENDBRANCH   9  10
ENDBRANCH   8   9
ENDBRANCH   7   8
ENDBRANCH   6   7
ENDBRANCH   3   6
TORSDOF 5
ENDMDL
MODEL      309
REMARK 921   NORMALIZED FREE ENERGY PREDICTED BY IDOCK:   -1.56 KCAL/MOL
REMARK 922        TOTAL FREE ENERGY PREDICTED BY IDOCK:   -2.20 KCAL/MOL
REMARK 923 INTER-LIGAND FREE ENERGY PREDICTED BY IDOCK:   -1.89 KCAL/MOL
REMARK 924 INTRA-LIGAND FREE ENERGY PREDICTED BY IDOCK:   -0.31 KCAL/MOL
REMARK 927      BINDING AFFINITY PREDICTED BY RF-SCORE:    0.00 PKD
ROOT
HETATM    1  C   UNL     1      -7.619  11.060  68.555  1.00  0.00    -0.114 C  
HETATM    2  S   UNL     1      -7.207   9.563  69.418  1.00  0.00    -0.070 S  
HETATM    3  O   UNL     1      -8.545   8.717  69.033  1.00  0.00    -0.127 OA 
HETATM    4  O   UNL     1      -6.074   8.949  68.761  1.00  0.00    -0.044 OA 
HETATM    5  O   UNL     1      -7.222   9.827  70.841  1.00  0.00    -0.310 OA 
ENDROOT
BRANCH   3   6
HETATM    6  C   UNL     1      -8.654   7.410  69.582  1.00  0.00    -0.137 C  
BRANCH   6   7
HETATM    7  C   UNL     1      -9.121   6.434  68.507  1.00  0.00    -0.126 C  
BRANCH   7   8
HETATM    8  C   UNL     1      -8.248   6.416  67.246  1.00  0.00    -0.113 C  
BRANCH   8   9
HETATM    9  C   UNL     1      -9.012   6.121  65.961  1.00  0.00    -0.145 C  
BRANCH   9  10
HETATM   10  O   UNL     1      -8.339   5.101  65.238  1.00  0.00    -0.126 OA 
HETATM   11  S   UNL     1      -9.076   3.652  65.138  1.00  0.00    -0.151 S  
HETATM   12  O   UNL     1     -10.244   3.792  64.297  1.00  0.00    -0.205 OA 
HETATM   13  O   UNL     1      -9.145   3.076  66.464  1.00  0.00    -0.148 OA 
HETATM   14  C   UNL     1      -7.808   2.819  64.216  1.00  0.00    -0.077 C  
ENDBRANCH   9  10
ENDBRANCH   8   9
ENDBRANCH   7   8
ENDBRANCH   6   7
ENDBRANCH   3   6
TORSDOF 5
ENDMDL
MODEL      310
REMARK 921   NORMALIZED FREE ENERGY PREDICTED BY IDOCK:   -1.53 KCAL/MOL
REMARK 922        TOTAL FREE ENERGY PREDICTED BY IDOCK:   -2.17 KCAL/MOL
REMARK 923 INTER-LIGAND FREE ENERGY PREDICTED BY IDOCK:   -2.59 KCAL/MOL
REMARK 924 INTRA-LIGAND FREE ENERGY PREDICTED BY IDOCK:    0.42 KCAL/MOL
REMARK 927      BINDING AFFINITY PREDICTED BY RF-SCORE:    0.00 PKD
ROOT
HETATM    1  C   UNL     1     -10.225   4.583  65.778  1.00  0.00    -0.265 C  
HETATM    2  S   UNL     1      -9.610   5.173  67.338  1.00  0.00    -0.148 S  
HETATM    3  O   UNL     1     -10.338   6.631  67.318  1.00  0.00    -0.176 OA 
HETATM    4  O   UNL     1     -10.200   4.382  68.395  1.00  0.00     0.019 OA 
HETATM    5  O   UNL     1      -8.181   5.370  67.228  1.00  0.00    -0.104 OA 
ENDROOT
BRANCH   3   6
HETATM    6  C   UNL     1     -10.068   7.494  68.415  1.00  0.00    -0.180 C  
BRANCH   6   7
HETATM    7  C   UNL     1      -9.348   8.746  67.925  1.00  0.00    -0.155 C  
BRANCH   7   8
HETATM    8  C   UNL     1      -8.449   9.410  68.976  1.00  0.00    -0.129 C  
BRANCH   8   9
HETATM    9  C   UNL     1      -8.515   8.761  70.354  1.00  0.00    -0.153 C  
BRANCH   9  10
HETATM   10  O   UNL     1      -9.833   8.886  70.869  1.00  0.00    -0.202 OA 
HETATM   11  S   UNL     1     -10.294   7.806  71.998  1.00  0.00    -0.228 S  
HETATM   12  O   UNL     1      -9.550   8.068  73.210  1.00  0.00    -0.277 OA 
HETATM   13  O   UNL     1     -10.340   6.493  71.389  1.00  0.00    -0.203 OA 
HETATM   14  C   UNL     1     -11.954   8.398  72.209  1.00  0.00    -0.389 C  
ENDBRANCH   9  10
ENDBRANCH   8   9
ENDBRANCH   7   8
ENDBRANCH   6   7
ENDBRANCH   3   6
TORSDOF 5
ENDMDL
MODEL      311
REMARK 921   NORMALIZED FREE ENERGY PREDICTED BY IDOCK:   -1.50 KCAL/MOL
REMARK 922        TOTAL FREE ENERGY PREDICTED BY IDOCK:   -2.12 KCAL/MOL
REMARK 923 INTER-LIGAND FREE ENERGY PREDICTED BY IDOCK:   -1.83 KCAL/MOL
REMARK 924 INTRA-LIGAND FREE ENERGY PREDICTED BY IDOCK:   -0.29 KCAL/MOL
REMARK 927      BINDING AFFINITY PREDICTED BY RF-SCORE:    0.00 PKD
ROOT
HETATM    1  C   UNL     1     -10.798   7.777  70.848  1.00  0.00    -0.237 C  
HETATM    2  S   UNL     1      -9.855   6.377  70.294  1.00  0.00    -0.169 S  
HETATM    3  O   UNL     1      -8.777   7.191  69.381  1.00  0.00    -0.133 OA 
HETATM    4  O   UNL     1      -9.158   5.812  71.428  1.00  0.00    -0.139 OA 
HETATM    5  O   UNL     1     -10.684   5.575  69.420  1.00  0.00    -0.295 OA 
ENDROOT
BRANCH   3   6
HETATM    6  C   UNL     1      -7.815   6.412  68.683  1.00  0.00    -0.102 C  
BRANCH   6   7
HETATM    7  C   UNL     1      -7.571   7.007  67.300  1.00  0.00    -0.108 C  
BRANCH   7   8
HETATM    8  C   UNL     1      -8.659   6.677  66.270  1.00  0.00    -0.139 C  
BRANCH   8   9
HETATM    9  C   UNL     1      -8.121   6.242  64.911  1.00  0.00    -0.130 C  
BRANCH   9  10
HETATM   10  O   UNL     1      -8.132   7.352  64.026  1.00  0.00    -0.118 OA 
HETATM   11  S   UNL     1      -6.708   7.785  63.362  1.00  0.00    -0.067 S  
HETATM   12  O   UNL     1      -6.308   6.754  62.429  1.00  0.00    -0.038 OA 
HETATM   13  O   UNL     1      -5.832   8.256  64.413  1.00  0.00    -0.058 OA 
HETATM   14  C   UNL     1      -7.305   9.182  62.444  1.00  0.00    -0.099 C  
ENDBRANCH   9  10
ENDBRANCH   8   9
ENDBRANCH   7   8
ENDBRANCH   6   7
ENDBRANCH   3   6
TORSDOF 5
ENDMDL
MODEL      312
REMARK 921   NORMALIZED FREE ENERGY PREDICTED BY IDOCK:   -1.45 KCAL/MOL
REMARK 922        TOTAL FREE ENERGY PREDICTED BY IDOCK:   -2.06 KCAL/MOL
REMARK 923 INTER-LIGAND FREE ENERGY PREDICTED BY IDOCK:   -2.44 KCAL/MOL
REMARK 924 INTRA-LIGAND FREE ENERGY PREDICTED BY IDOCK:    0.38 KCAL/MOL
REMARK 927      BINDING AFFINITY PREDICTED BY RF-SCORE:    0.00 PKD
ROOT
HETATM    1  C   UNL     1     -13.424   9.137  71.347  1.00  0.00    -0.298 C  
HETATM    2  S   UNL     1     -11.677   9.161  71.022  1.00  0.00    -0.308 S  
HETATM    3  O   UNL     1     -11.178   8.666  72.493  1.00  0.00    -0.329 OA 
HETATM    4  O   UNL     1     -11.372   8.122  70.063  1.00  0.00    -0.153 OA 
HETATM    5  O   UNL     1     -11.260  10.533  70.831  1.00  0.00    -0.253 OA 
ENDROOT
BRANCH   3   6
HETATM    6  C   UNL     1      -9.773   8.585  72.695  1.00  0.00    -0.215 C  
BRANCH   6   7
HETATM    7  C   UNL     1      -9.113   7.922  71.491  1.00  0.00    -0.169 C  
BRANCH   7   8
HETATM    8  C   UNL     1      -7.880   8.663  70.959  1.00  0.00    -0.128 C  
BRANCH   8   9
HETATM    9  C   UNL     1      -7.175   7.956  69.807  1.00  0.00    -0.066 C  
BRANCH   9  10
HETATM   10  O   UNL     1      -8.060   7.865  68.700  1.00  0.00    -0.122 OA 
HETATM   11  S   UNL     1      -7.425   8.111  67.220  1.00  0.00    -0.090 S  
HETATM   12  O   UNL     1      -6.556   6.998  66.907  1.00  0.00    -0.051 OA 
HETATM   13  O   UNL     1      -6.982   9.486  67.130  1.00  0.00    -0.083 OA 
HETATM   14  C   UNL     1      -8.932   7.932  66.298  1.00  0.00    -0.171 C  
ENDBRANCH   9  10
ENDBRANCH   8   9
ENDBRANCH   7   8
ENDBRANCH   6   7
ENDBRANCH   3   6
TORSDOF 5
ENDMDL
MODEL      313
REMARK 921   NORMALIZED FREE ENERGY PREDICTED BY IDOCK:   -1.39 KCAL/MOL
REMARK 922        TOTAL FREE ENERGY PREDICTED BY IDOCK:   -1.98 KCAL/MOL
REMARK 923 INTER-LIGAND FREE ENERGY PREDICTED BY IDOCK:   -1.98 KCAL/MOL
REMARK 924 INTRA-LIGAND FREE ENERGY PREDICTED BY IDOCK:   -0.00 KCAL/MOL
REMARK 927      BINDING AFFINITY PREDICTED BY RF-SCORE:    0.00 PKD
ROOT
HETATM    1  C   UNL     1      -9.719   4.109  67.409  1.00  0.00    -0.154 C  
HETATM    2  S   UNL     1      -9.517   5.442  68.567  1.00  0.00    -0.129 S  
HETATM    3  O   UNL     1     -10.235   6.607  67.682  1.00  0.00    -0.148 OA 
HETATM    4  O   UNL     1     -10.340   5.176  69.725  1.00  0.00    -0.271 OA 
HETATM    5  O   UNL     1      -8.107   5.751  68.677  1.00  0.00    -0.100 OA 
ENDROOT
BRANCH   3   6
HETATM    6  C   UNL     1     -10.255   7.913  68.242  1.00  0.00    -0.203 C  
BRANCH   6   7
HETATM    7  C   UNL     1      -9.370   8.844  67.420  1.00  0.00    -0.165 C  
BRANCH   7   8
HETATM    8  C   UNL     1      -8.863  10.073  68.186  1.00  0.00    -0.122 C  
BRANCH   8   9
HETATM    9  C   UNL     1      -9.154  11.402  67.497  1.00  0.00    -0.157 C  
BRANCH   9  10
HETATM   10  O   UNL     1      -7.932  12.084  67.258  1.00  0.00    -0.157 OA 
HETATM   11  S   UNL     1      -7.328  12.972  68.483  1.00  0.00    -0.109 S  
HETATM   12  O   UNL     1      -6.885  12.072  69.525  1.00  0.00    -0.079 OA 
HETATM   13  O   UNL     1      -8.231  14.072  68.746  1.00  0.00    -0.128 OA 
HETATM   14  C   UNL     1      -5.903  13.594  67.626  1.00  0.00    -0.053 C  
ENDBRANCH   9  10
ENDBRANCH   8   9
ENDBRANCH   7   8
ENDBRANCH   6   7
ENDBRANCH   3   6
TORSDOF 5
ENDMDL
MODEL      314
REMARK 921   NORMALIZED FREE ENERGY PREDICTED BY IDOCK:   -1.38 KCAL/MOL
REMARK 922        TOTAL FREE ENERGY PREDICTED BY IDOCK:   -1.97 KCAL/MOL
REMARK 923 INTER-LIGAND FREE ENERGY PREDICTED BY IDOCK:   -1.78 KCAL/MOL
REMARK 924 INTRA-LIGAND FREE ENERGY PREDICTED BY IDOCK:   -0.19 KCAL/MOL
REMARK 927      BINDING AFFINITY PREDICTED BY RF-SCORE:    0.00 PKD
ROOT
HETATM    1  C   UNL     1      -7.202   2.589  69.784  1.00  0.00    -0.043 C  
HETATM    2  S   UNL     1      -8.445   3.521  70.647  1.00  0.00    -0.070 S  
HETATM    3  O   UNL     1      -8.084   4.985  70.030  1.00  0.00    -0.073 OA 
HETATM    4  O   UNL     1      -9.745   3.125  70.153  1.00  0.00    -0.139 OA 
HETATM    5  O   UNL     1      -8.125   3.524  72.059  1.00  0.00    -0.062 OA 
ENDROOT
BRANCH   3   6
HETATM    6  C   UNL     1      -8.846   6.085  70.509  1.00  0.00    -0.145 C  
BRANCH   6   7
HETATM    7  C   UNL     1      -9.666   6.682  69.370  1.00  0.00    -0.153 C  
BRANCH   7   8
HETATM    8  C   UNL     1      -9.029   7.911  68.709  1.00  0.00    -0.141 C  
BRANCH   8   9
HETATM    9  C   UNL     1      -9.474   8.147  67.270  1.00  0.00    -0.155 C  
BRANCH   9  10
HETATM   10  O   UNL     1      -8.412   8.748  66.544  1.00  0.00    -0.111 OA 
HETATM   11  S   UNL     1      -8.729  10.162  65.799  1.00  0.00    -0.159 S  
HETATM   12  O   UNL     1      -8.916  11.178  66.810  1.00  0.00    -0.157 OA 
HETATM   13  O   UNL     1      -9.702   9.925  64.753  1.00  0.00    -0.309 OA 
HETATM   14  C   UNL     1      -7.133  10.385  65.055  1.00  0.00    -0.062 C  
ENDBRANCH   9  10
ENDBRANCH   8   9
ENDBRANCH   7   8
ENDBRANCH   6   7
ENDBRANCH   3   6
TORSDOF 5
ENDMDL
MODEL      315
REMARK 921   NORMALIZED FREE ENERGY PREDICTED BY IDOCK:   -1.36 KCAL/MOL
REMARK 922        TOTAL FREE ENERGY PREDICTED BY IDOCK:   -1.94 KCAL/MOL
REMARK 923 INTER-LIGAND FREE ENERGY PREDICTED BY IDOCK:   -1.69 KCAL/MOL
REMARK 924 INTRA-LIGAND FREE ENERGY PREDICTED BY IDOCK:   -0.25 KCAL/MOL
REMARK 927      BINDING AFFINITY PREDICTED BY RF-SCORE:    0.00 PKD
ROOT
HETATM    1  C   UNL     1      -9.593   8.661  71.798  1.00  0.00    -0.290 C  
HETATM    2  S   UNL     1      -7.944   8.355  71.211  1.00  0.00    -0.133 S  
HETATM    3  O   UNL     1      -8.169   8.846  69.673  1.00  0.00    -0.106 OA 
HETATM    4  O   UNL     1      -7.043   9.282  71.860  1.00  0.00    -0.319 OA 
HETATM    5  O   UNL     1      -7.711   6.927  71.208  1.00  0.00    -0.090 OA 
ENDROOT
BRANCH   3   6
HETATM    6  C   UNL     1      -7.057   8.724  68.796  1.00  0.00    -0.063 C  
BRANCH   6   7
HETATM    7  C   UNL     1      -7.450   7.901  67.573  1.00  0.00    -0.093 C  
BRANCH   7   8
HETATM    8  C   UNL     1      -6.804   6.510  67.514  1.00  0.00    -0.076 C  
BRANCH   8   9
HETATM    9  C   UNL     1      -7.601   5.485  66.715  1.00  0.00    -0.088 C  
BRANCH   9  10
HETATM   10  O   UNL     1      -7.981   4.417  67.569  1.00  0.00    -0.094 OA 
HETATM   11  S   UNL     1      -8.500   3.047  66.857  1.00  0.00    -0.104 S  
HETATM   12  O   UNL     1      -7.375   2.421  66.198  1.00  0.00    -0.063 OA 
HETATM   13  O   UNL     1      -9.741   3.326  66.167  1.00  0.00    -0.065 OA 
HETATM   14  C   UNL     1      -8.861   2.145  68.343  1.00  0.00    -0.109 C  
ENDBRANCH   9  10
ENDBRANCH   8   9
ENDBRANCH   7   8
ENDBRANCH   6   7
ENDBRANCH   3   6
TORSDOF 5
ENDMDL
MODEL      316
REMARK 921   NORMALIZED FREE ENERGY PREDICTED BY IDOCK:   -1.34 KCAL/MOL
REMARK 922        TOTAL FREE ENERGY PREDICTED BY IDOCK:   -1.92 KCAL/MOL
REMARK 923 INTER-LIGAND FREE ENERGY PREDICTED BY IDOCK:   -1.75 KCAL/MOL
REMARK 924 INTRA-LIGAND FREE ENERGY PREDICTED BY IDOCK:   -0.17 KCAL/MOL
REMARK 927      BINDING AFFINITY PREDICTED BY RF-SCORE:    0.00 PKD
ROOT
HETATM    1  C   UNL     1      -9.920   4.806  66.409  1.00  0.00    -0.241 C  
HETATM    2  S   UNL     1      -8.989   5.671  67.650  1.00  0.00    -0.106 S  
HETATM    3  O   UNL     1     -10.126   6.771  68.044  1.00  0.00    -0.146 OA 
HETATM    4  O   UNL     1      -8.796   4.790  68.780  1.00  0.00    -0.095 OA 
HETATM    5  O   UNL     1      -7.887   6.357  67.010  1.00  0.00    -0.102 OA 
ENDROOT
BRANCH   3   6
HETATM    6  C   UNL     1      -9.765   7.739  69.020  1.00  0.00    -0.157 C  
BRANCH   6   7
HETATM    7  C   UNL     1     -10.289   7.316  70.389  1.00  0.00    -0.217 C  
BRANCH   7   8
HETATM    8  C   UNL     1      -9.818   8.204  71.548  1.00  0.00    -0.233 C  
BRANCH   8   9
HETATM    9  C   UNL     1      -8.311   8.435  71.585  1.00  0.00    -0.156 C  
BRANCH   9  10
HETATM   10  O   UNL     1      -7.726   7.551  72.530  1.00  0.00    -0.088 OA 
HETATM   11  S   UNL     1      -6.099   7.520  72.608  1.00  0.00    -0.040 S  
HETATM   12  O   UNL     1      -5.644   8.776  73.161  1.00  0.00    -0.076 OA 
HETATM   13  O   UNL     1      -5.587   6.996  71.359  1.00  0.00    -0.034 OA 
HETATM   14  C   UNL     1      -5.959   6.265  73.856  1.00  0.00    -0.063 C  
ENDBRANCH   9  10
ENDBRANCH   8   9
ENDBRANCH   7   8
ENDBRANCH   6   7
ENDBRANCH   3   6
TORSDOF 5
ENDMDL
MODEL      317
REMARK 921   NORMALIZED FREE ENERGY PREDICTED BY IDOCK:   -1.33 KCAL/MOL
REMARK 922        TOTAL FREE ENERGY PREDICTED BY IDOCK:   -1.91 KCAL/MOL
REMARK 923 INTER-LIGAND FREE ENERGY PREDICTED BY IDOCK:   -1.65 KCAL/MOL
REMARK 924 INTRA-LIGAND FREE ENERGY PREDICTED BY IDOCK:   -0.26 KCAL/MOL
REMARK 927      BINDING AFFINITY PREDICTED BY RF-SCORE:    0.00 PKD
ROOT
HETATM    1  C   UNL     1      -9.556   6.615  73.065  1.00  0.00    -0.146 C  
HETATM    2  S   UNL     1      -7.845   6.261  72.742  1.00  0.00    -0.105 S  
HETATM    3  O   UNL     1      -7.726   7.053  71.323  1.00  0.00    -0.089 OA 
HETATM    4  O   UNL     1      -7.038   6.955  73.721  1.00  0.00    -0.075 OA 
HETATM    5  O   UNL     1      -7.704   4.843  72.492  1.00  0.00    -0.089 OA 
ENDROOT
BRANCH   3   6
HETATM    6  C   UNL     1      -6.471   6.988  70.659  1.00  0.00    -0.047 C  
BRANCH   6   7
HETATM    7  C   UNL     1      -6.329   8.165  69.700  1.00  0.00    -0.033 C  
BRANCH   7   8
HETATM    8  C   UNL     1      -6.315   7.774  68.217  1.00  0.00    -0.045 C  
BRANCH   8   9
HETATM    9  C   UNL     1      -7.647   7.982  67.503  1.00  0.00    -0.101 C  
BRANCH   9  10
HETATM   10  O   UNL     1      -8.705   7.873  68.444  1.00  0.00    -0.131 OA 
HETATM   11  S   UNL     1      -9.895   8.982  68.353  1.00  0.00    -0.171 S  
HETATM   12  O   UNL     1     -10.646   8.747  67.140  1.00  0.00    -0.291 OA 
HETATM   13  O   UNL     1      -9.343  10.279  68.680  1.00  0.00    -0.148 OA 
HETATM   14  C   UNL     1     -10.848   8.400  69.733  1.00  0.00    -0.183 C  
ENDBRANCH   9  10
ENDBRANCH   8   9
ENDBRANCH   7   8
ENDBRANCH   6   7
ENDBRANCH   3   6
TORSDOF 5
ENDMDL
MODEL      318
REMARK 921   NORMALIZED FREE ENERGY PREDICTED BY IDOCK:   -1.22 KCAL/MOL
REMARK 922        TOTAL FREE ENERGY PREDICTED BY IDOCK:   -1.77 KCAL/MOL
REMARK 923 INTER-LIGAND FREE ENERGY PREDICTED BY IDOCK:   -1.43 KCAL/MOL
REMARK 924 INTRA-LIGAND FREE ENERGY PREDICTED BY IDOCK:   -0.34 KCAL/MOL
REMARK 927      BINDING AFFINITY PREDICTED BY RF-SCORE:    0.00 PKD
ROOT
HETATM    1  C   UNL     1     -11.962   6.474  69.394  1.00  0.00     0.477 C  
HETATM    2  S   UNL     1     -10.386   7.038  68.798  1.00  0.00    -0.193 S  
HETATM    3  O   UNL     1      -9.586   5.625  68.936  1.00  0.00    -0.122 OA 
HETATM    4  O   UNL     1     -10.511   7.357  67.393  1.00  0.00    -0.239 OA 
HETATM    5  O   UNL     1      -9.836   7.974  69.755  1.00  0.00    -0.179 OA 
ENDROOT
BRANCH   3   6
HETATM    6  C   UNL     1      -8.207   5.636  68.588  1.00  0.00    -0.103 C  
BRANCH   6   7
HETATM    7  C   UNL     1      -7.354   5.554  69.850  1.00  0.00    -0.069 C  
BRANCH   7   8
HETATM    8  C   UNL     1      -6.439   6.765  70.073  1.00  0.00    -0.040 C  
BRANCH   8   9
HETATM    9  C   UNL     1      -6.317   7.196  71.531  1.00  0.00    -0.037 C  
BRANCH   9  10
HETATM   10  O   UNL     1      -7.558   6.982  72.187  1.00  0.00    -0.089 OA 
HETATM   11  S   UNL     1      -7.667   7.460  73.741  1.00  0.00    -0.120 S  
HETATM   12  O   UNL     1      -7.637   8.905  73.777  1.00  0.00    -0.400 OA 
HETATM   13  O   UNL     1      -6.770   6.650  74.537  1.00  0.00    -0.087 OA 
HETATM   14  C   UNL     1      -9.333   6.918  74.025  1.00  0.00    -0.225 C  
ENDBRANCH   9  10
ENDBRANCH   8   9
ENDBRANCH   7   8
ENDBRANCH   6   7
ENDBRANCH   3   6
TORSDOF 5
ENDMDL
MODEL      319
REMARK 921   NORMALIZED FREE ENERGY PREDICTED BY IDOCK:   -1.17 KCAL/MOL
REMARK 922        TOTAL FREE ENERGY PREDICTED BY IDOCK:   -1.70 KCAL/MOL
REMARK 923 INTER-LIGAND FREE ENERGY PREDICTED BY IDOCK:   -1.37 KCAL/MOL
REMARK 924 INTRA-LIGAND FREE ENERGY PREDICTED BY IDOCK:   -0.33 KCAL/MOL
REMARK 927      BINDING AFFINITY PREDICTED BY RF-SCORE:    0.00 PKD
ROOT
HETATM    1  C   UNL     1      -6.811   9.406  70.564  1.00  0.00    -0.098 C  
HETATM    2  S   UNL     1      -8.346   8.657  70.072  1.00  0.00    -0.131 S  
HETATM    3  O   UNL     1      -8.775   9.762  68.954  1.00  0.00    -0.125 OA 
HETATM    4  O   UNL     1      -8.056   7.412  69.395  1.00  0.00    -0.124 OA 
HETATM    5  O   UNL     1      -9.276   8.735  71.178  1.00  0.00    -0.192 OA 
ENDROOT
BRANCH   3   6
HETATM    6  C   UNL     1     -10.027   9.564  68.309  1.00  0.00    -0.161 C  
BRANCH   6   7
HETATM    7  C   UNL     1     -10.044  10.301  66.974  1.00  0.00    -0.268 C  
BRANCH   7   8
HETATM    8  C   UNL     1      -9.535  11.746  67.043  1.00  0.00    -0.191 C  
BRANCH   8   9
HETATM    9  C   UNL     1     -10.639  12.794  67.126  1.00  0.00    -0.237 C  
BRANCH   9  10
HETATM   10  O   UNL     1     -10.619  13.395  68.413  1.00  0.00    -0.236 OA 
HETATM   11  S   UNL     1     -12.030  13.454  69.225  1.00  0.00    -0.287 S  
HETATM   12  O   UNL     1     -12.392  12.107  69.609  1.00  0.00    -0.149 OA 
HETATM   13  O   UNL     1     -12.940  14.323  68.510  1.00  0.00     0.895 OA 
HETATM   14  C   UNL     1     -11.426  14.311  70.658  1.00  0.00    -0.068 C  
ENDBRANCH   9  10
ENDBRANCH   8   9
ENDBRANCH   7   8
ENDBRANCH   6   7
ENDBRANCH   3   6
TORSDOF 5
ENDMDL
MODEL      320
REMARK 921   NORMALIZED FREE ENERGY PREDICTED BY IDOCK:   -1.16 KCAL/MOL
REMARK 922        TOTAL FREE ENERGY PREDICTED BY IDOCK:   -1.68 KCAL/MOL
REMARK 923 INTER-LIGAND FREE ENERGY PREDICTED BY IDOCK:   -1.47 KCAL/MOL
REMARK 924 INTRA-LIGAND FREE ENERGY PREDICTED BY IDOCK:   -0.21 KCAL/MOL
REMARK 927      BINDING AFFINITY PREDICTED BY RF-SCORE:    0.00 PKD
ROOT
HETATM    1  C   UNL     1      -8.199   2.943  69.193  1.00  0.00    -0.058 C  
HETATM    2  S   UNL     1      -7.242   3.934  70.316  1.00  0.00    -0.042 S  
HETATM    3  O   UNL     1      -7.774   5.393  69.822  1.00  0.00    -0.074 OA 
HETATM    4  O   UNL     1      -7.724   3.703  71.660  1.00  0.00    -0.058 OA 
HETATM    5  O   UNL     1      -5.843   3.811  69.966  1.00  0.00    -0.017 OA 
ENDROOT
BRANCH   3   6
HETATM    6  C   UNL     1      -7.204   6.529  70.458  1.00  0.00    -0.074 C  
BRANCH   6   7
HETATM    7  C   UNL     1      -6.767   7.546  69.409  1.00  0.00    -0.041 C  
BRANCH   7   8
HETATM    8  C   UNL     1      -7.547   8.866  69.445  1.00  0.00    -0.081 C  
BRANCH   8   9
HETATM    9  C   UNL     1      -8.819   8.862  68.604  1.00  0.00    -0.137 C  
BRANCH   9  10
HETATM   10  O   UNL     1      -8.883  10.060  67.845  1.00  0.00    -0.125 OA 
HETATM   11  S   UNL     1      -9.857  10.060  66.539  1.00  0.00    -0.222 S  
HETATM   12  O   UNL     1     -11.229  10.007  66.993  1.00  0.00    -0.083 OA 
HETATM   13  O   UNL     1      -9.329   9.125  65.569  1.00  0.00    -0.236 OA 
HETATM   14  C   UNL     1      -9.502  11.712  65.995  1.00  0.00    -0.229 C  
ENDBRANCH   9  10
ENDBRANCH   8   9
ENDBRANCH   7   8
ENDBRANCH   6   7
ENDBRANCH   3   6
TORSDOF 5
ENDMDL
MODEL      321
REMARK 921   NORMALIZED FREE ENERGY PREDICTED BY IDOCK:   -1.12 KCAL/MOL
REMARK 922        TOTAL FREE ENERGY PREDICTED BY IDOCK:   -1.64 KCAL/MOL
REMARK 923 INTER-LIGAND FREE ENERGY PREDICTED BY IDOCK:   -1.37 KCAL/MOL
REMARK 924 INTRA-LIGAND FREE ENERGY PREDICTED BY IDOCK:   -0.26 KCAL/MOL
REMARK 927      BINDING AFFINITY PREDICTED BY RF-SCORE:    0.00 PKD
ROOT
HETATM    1  C   UNL     1      -8.876   8.035  72.514  1.00  0.00    -0.177 C  
HETATM    2  S   UNL     1      -7.150   7.708  72.247  1.00  0.00    -0.075 S  
HETATM    3  O   UNL     1      -6.985   8.543  70.857  1.00  0.00    -0.047 OA 
HETATM    4  O   UNL     1      -6.388   8.380  73.276  1.00  0.00    -0.097 OA 
HETATM    5  O   UNL     1      -6.983   6.299  71.960  1.00  0.00    -0.074 OA 
ENDROOT
BRANCH   3   6
HETATM    6  C   UNL     1      -5.705   8.510  70.241  1.00  0.00    -0.024 C  
BRANCH   6   7
HETATM    7  C   UNL     1      -5.531   9.728  69.340  1.00  0.00    -0.034 C  
BRANCH   7   8
HETATM    8  C   UNL     1      -5.480   9.404  67.841  1.00  0.00    -0.037 C  
BRANCH   8   9
HETATM    9  C   UNL     1      -6.790   9.655  67.102  1.00  0.00    -0.084 C  
BRANCH   9  10
HETATM   10  O   UNL     1      -7.134   8.500  66.352  1.00  0.00    -0.076 OA 
HETATM   11  S   UNL     1      -8.685   8.008  66.418  1.00  0.00    -0.159 S  
HETATM   12  O   UNL     1      -9.503   8.979  65.726  1.00  0.00    -0.245 OA 
HETATM   13  O   UNL     1      -8.976   7.577  67.769  1.00  0.00    -0.131 OA 
HETATM   14  C   UNL     1      -8.509   6.574  65.386  1.00  0.00    -0.115 C  
ENDBRANCH   9  10
ENDBRANCH   8   9
ENDBRANCH   7   8
ENDBRANCH   6   7
ENDBRANCH   3   6
TORSDOF 5
ENDMDL
MODEL      322
REMARK 921   NORMALIZED FREE ENERGY PREDICTED BY IDOCK:   -0.89 KCAL/MOL
REMARK 922        TOTAL FREE ENERGY PREDICTED BY IDOCK:   -1.33 KCAL/MOL
REMARK 923 INTER-LIGAND FREE ENERGY PREDICTED BY IDOCK:   -1.88 KCAL/MOL
REMARK 924 INTRA-LIGAND FREE ENERGY PREDICTED BY IDOCK:    0.54 KCAL/MOL
REMARK 927      BINDING AFFINITY PREDICTED BY RF-SCORE:    0.00 PKD
ROOT
HETATM    1  C   UNL     1     -10.310   7.573  72.716  1.00  0.00    -0.278 C  
HETATM    2  S   UNL     1     -10.608   7.250  70.994  1.00  0.00    -0.222 S  
HETATM    3  O   UNL     1      -9.441   8.214  70.389  1.00  0.00    -0.162 OA 
HETATM    4  O   UNL     1     -10.255   5.875  70.714  1.00  0.00    -0.193 OA 
HETATM    5  O   UNL     1     -11.895   7.804  70.634  1.00  0.00    -0.239 OA 
ENDROOT
BRANCH   3   6
HETATM    6  C   UNL     1      -9.349   8.293  68.973  1.00  0.00    -0.147 C  
BRANCH   6   7
HETATM    7  C   UNL     1      -9.621   6.924  68.358  1.00  0.00    -0.126 C  
BRANCH   7   8
HETATM    8  C   UNL     1      -8.398   6.275  67.696  1.00  0.00    -0.117 C  
BRANCH   8   9
HETATM    9  C   UNL     1      -8.741   5.220  66.650  1.00  0.00    -0.113 C  
BRANCH   9  10
HETATM   10  O   UNL     1      -7.624   4.363  66.465  1.00  0.00    -0.084 OA 
HETATM   11  S   UNL     1      -6.969   4.309  64.975  1.00  0.00    -0.059 S  
HETATM   12  O   UNL     1      -6.326   5.577  64.713  1.00  0.00    -0.035 OA 
HETATM   13  O   UNL     1      -7.936   3.731  64.066  1.00  0.00    -0.083 OA 
HETATM   14  C   UNL     1      -5.718   3.099  65.325  1.00  0.00    -0.018 C  
ENDBRANCH   9  10
ENDBRANCH   8   9
ENDBRANCH   7   8
ENDBRANCH   6   7
ENDBRANCH   3   6
TORSDOF 5
ENDMDL
MODEL      323
REMARK 921   NORMALIZED FREE ENERGY PREDICTED BY IDOCK:   -0.56 KCAL/MOL
REMARK 922        TOTAL FREE ENERGY PREDICTED BY IDOCK:   -0.91 KCAL/MOL
REMARK 923 INTER-LIGAND FREE ENERGY PREDICTED BY IDOCK:   -1.40 KCAL/MOL
REMARK 924 INTRA-LIGAND FREE ENERGY PREDICTED BY IDOCK:    0.49 KCAL/MOL
REMARK 927      BINDING AFFINITY PREDICTED BY RF-SCORE:    0.00 PKD
ROOT
HETATM    1  C   UNL     1     -11.667   6.588  69.483  1.00  0.00    -0.095 C  
HETATM    2  S   UNL     1     -10.239   7.609  69.755  1.00  0.00    -0.214 S  
HETATM    3  O   UNL     1      -9.120   6.569  69.187  1.00  0.00    -0.136 OA 
HETATM    4  O   UNL     1     -10.305   8.743  68.859  1.00  0.00    -0.207 OA 
HETATM    5  O   UNL     1     -10.043   7.763  71.181  1.00  0.00    -0.187 OA 
ENDROOT
BRANCH   3   6
HETATM    6  C   UNL     1      -7.763   6.988  69.262  1.00  0.00    -0.109 C  
BRANCH   6   7
HETATM    7  C   UNL     1      -7.674   8.496  69.051  1.00  0.00    -0.096 C  
BRANCH   7   8
HETATM    8  C   UNL     1      -6.558   8.935  68.094  1.00  0.00    -0.061 C  
BRANCH   8   9
HETATM    9  C   UNL     1      -6.686  10.373  67.604  1.00  0.00    -0.074 C  
BRANCH   9  10
HETATM   10  O   UNL     1      -8.027  10.808  67.773  1.00  0.00    -0.108 OA 
HETATM   11  S   UNL     1      -8.265  12.403  68.005  1.00  0.00    -0.177 S  
HETATM   12  O   UNL     1      -7.956  13.094  66.773  1.00  0.00     0.048 OA 
HETATM   13  O   UNL     1      -7.672  12.780  69.270  1.00  0.00     0.228 OA 
HETATM   14  C   UNL     1     -10.029  12.341  68.195  1.00  0.00    -0.210 C  
ENDBRANCH   9  10
ENDBRANCH   8   9
ENDBRANCH   7   8
ENDBRANCH   6   7
ENDBRANCH   3   6
TORSDOF 5
ENDMDL
MODEL      324
REMARK 921   NORMALIZED FREE ENERGY PREDICTED BY IDOCK:   -0.49 KCAL/MOL
REMARK 922        TOTAL FREE ENERGY PREDICTED BY IDOCK:   -0.82 KCAL/MOL
REMARK 923 INTER-LIGAND FREE ENERGY PREDICTED BY IDOCK:   -0.60 KCAL/MOL
REMARK 924 INTRA-LIGAND FREE ENERGY PREDICTED BY IDOCK:   -0.21 KCAL/MOL
REMARK 927      BINDING AFFINITY PREDICTED BY RF-SCORE:    0.00 PKD
ROOT
HETATM    1  C   UNL     1      -7.142  19.935  63.842  1.00  0.00     1.738 C  
HETATM    2  S   UNL     1      -5.998  19.918  65.201  1.00  0.00    -0.237 S  
HETATM    3  O   UNL     1      -7.080  19.647  66.390  1.00  0.00    -0.214 OA 
HETATM    4  O   UNL     1      -5.153  18.752  65.079  1.00  0.00    -0.144 OA 
HETATM    5  O   UNL     1      -5.456  21.250  65.368  1.00  0.00    -0.210 OA 
ENDROOT
BRANCH   3   6
HETATM    6  C   UNL     1      -6.573  19.602  67.717  1.00  0.00    -0.229 C  
BRANCH   6   7
HETATM    7  C   UNL     1      -7.685  19.927  68.708  1.00  0.00    -0.202 C  
BRANCH   7   8
HETATM    8  C   UNL     1      -8.127  18.739  69.573  1.00  0.00     0.388 C  
BRANCH   8   9
HETATM    9  C   UNL     1      -8.217  17.417  68.818  1.00  0.00    -0.226 C  
BRANCH   9  10
HETATM   10  O   UNL     1      -9.547  16.926  68.888  1.00  0.00    -0.258 OA 
HETATM   11  S   UNL     1      -9.944  15.712  67.877  1.00  0.00    -0.224 S  
HETATM   12  O   UNL     1      -9.241  14.520  68.297  1.00  0.00    -0.188 OA 
HETATM   13  O   UNL     1      -9.883  16.204  66.517  1.00  0.00    -0.240 OA 
HETATM   14  C   UNL     1     -11.647  15.568  68.358  1.00  0.00    -0.357 C  
ENDBRANCH   9  10
ENDBRANCH   8   9
ENDBRANCH   7   8
ENDBRANCH   6   7
ENDBRANCH   3   6
TORSDOF 5
ENDMDL
MODEL      325
REMARK 921   NORMALIZED FREE ENERGY PREDICTED BY IDOCK:    0.63 KCAL/MOL
REMARK 922        TOTAL FREE ENERGY PREDICTED BY IDOCK:    0.62 KCAL/MOL
REMARK 923 INTER-LIGAND FREE ENERGY PREDICTED BY IDOCK:    0.87 KCAL/MOL
REMARK 924 INTRA-LIGAND FREE ENERGY PREDICTED BY IDOCK:   -0.25 KCAL/MOL
REMARK 927      BINDING AFFINITY PREDICTED BY RF-SCORE:    0.00 PKD
ROOT
HETATM    1  C   UNL     1      -7.295  19.824  64.249  1.00  0.00     1.842 C  
HETATM    2  S   UNL     1      -5.910  19.679  65.354  1.00  0.00    -0.201 S  
HETATM    3  O   UNL     1      -6.749  19.308  66.701  1.00  0.00    -0.189 OA 
HETATM    4  O   UNL     1      -5.132  18.522  64.968  1.00  0.00    -0.142 OA 
HETATM    5  O   UNL     1      -5.315  20.986  65.527  1.00  0.00    -0.196 OA 
ENDROOT
BRANCH   3   6
HETATM    6  C   UNL     1      -5.996  19.141  67.896  1.00  0.00    -0.203 C  
BRANCH   6   7
HETATM    7  C   UNL     1      -6.932  19.123  69.100  1.00  0.00    -0.361 C  
BRANCH   7   8
HETATM    8  C   UNL     1      -6.842  17.850  69.951  1.00  0.00     0.396 C  
BRANCH   8   9
HETATM    9  C   UNL     1      -6.384  16.616  69.182  1.00  0.00    -0.196 C  
BRANCH   9  10
HETATM   10  O   UNL     1      -7.475  15.717  69.045  1.00  0.00    -0.157 OA 
HETATM   11  S   UNL     1      -7.149  14.128  69.188  1.00  0.00    -0.068 S  
HETATM   12  O   UNL     1      -6.802  13.855  70.566  1.00  0.00     0.215 OA 
HETATM   13  O   UNL     1      -6.300  13.729  68.086  1.00  0.00    -0.096 OA 
HETATM   14  C   UNL     1      -8.795  13.534  68.888  1.00  0.00     0.229 C  
ENDBRANCH   9  10
ENDBRANCH   8   9
ENDBRANCH   7   8
ENDBRANCH   6   7
ENDBRANCH   3   6
TORSDOF 5
ENDMDL
MODEL      326
REMARK 921   NORMALIZED FREE ENERGY PREDICTED BY IDOCK:    7.22 KCAL/MOL
REMARK 922        TOTAL FREE ENERGY PREDICTED BY IDOCK:    9.14 KCAL/MOL
REMARK 923 INTER-LIGAND FREE ENERGY PREDICTED BY IDOCK:    8.28 KCAL/MOL
REMARK 924 INTRA-LIGAND FREE ENERGY PREDICTED BY IDOCK:    0.86 KCAL/MOL
REMARK 927      BINDING AFFINITY PREDICTED BY RF-SCORE:    0.00 PKD
ROOT
HETATM    1  C   UNL     1      -7.495  19.729  64.217  1.00  0.00     2.157 C  
HETATM    2  S   UNL     1      -6.580  19.287  65.675  1.00  0.00    -0.269 S  
HETATM    3  O   UNL     1      -7.835  19.252  66.713  1.00  0.00    -0.246 OA 
HETATM    4  O   UNL     1      -6.081  17.939  65.516  1.00  0.00    -0.186 OA 
HETATM    5  O   UNL     1      -5.717  20.392  66.033  1.00  0.00    -0.173 OA 
ENDROOT
BRANCH   3   6
HETATM    6  C   UNL     1      -7.531  18.968  68.073  1.00  0.00    -0.260 C  
BRANCH   6   7
HETATM    7  C   UNL     1      -8.325  19.895  68.987  1.00  0.00     0.022 C  
BRANCH   7   8
HETATM    8  C   UNL     1      -9.342  19.179  69.884  1.00  0.00     0.729 C  
BRANCH   8   9
HETATM    9  C   UNL     1      -9.934  17.914  69.270  1.00  0.00    -0.102 C  
BRANCH   9  10
HETATM   10  O   UNL     1     -11.185  18.223  68.675  1.00  0.00     0.637 OA 
HETATM   11  S   UNL     1     -11.154  18.903  67.194  1.00  0.00     0.219 S  
HETATM   12  O   UNL     1     -10.691  17.912  66.248  1.00  0.00    -0.276 OA 
HETATM   13  O   UNL     1     -10.547  20.212  67.299  1.00  0.00    -0.349 OA 
HETATM   14  C   UNL     1     -12.908  19.098  67.001  1.00  0.00     6.378 C  
ENDBRANCH   9  10
ENDBRANCH   8   9
ENDBRANCH   7   8
ENDBRANCH   6   7
ENDBRANCH   3   6
TORSDOF 5
ENDMDL
