MODEL        1
REMARK 921   NORMALIZED FREE ENERGY PREDICTED BY IDOCK:   -7.82 KCAL/MOL
REMARK 922        TOTAL FREE ENERGY PREDICTED BY IDOCK:  -11.98 KCAL/MOL
REMARK 923 INTER-LIGAND FREE ENERGY PREDICTED BY IDOCK:  -11.02 KCAL/MOL
REMARK 924 INTRA-LIGAND FREE ENERGY PREDICTED BY IDOCK:   -0.96 KCAL/MOL
REMARK 927      BINDING AFFINITY PREDICTED BY RF-SCORE:    0.00 PKD
ROOT
HETATM    1  C   UNL     1     -12.511  14.987  73.862  1.00  0.00    -0.660 C  
HETATM    2  C   UNL     1     -12.218  16.302  73.155  1.00  0.00    -0.620 C  
ENDROOT
BRANCH   2   3
HETATM    3  C   UNL     1     -11.850  16.058  71.694  1.00  0.00    -0.582 C  
BRANCH   3   4
HETATM    4  C   UNL     1     -12.897  15.254  70.943  1.00  0.00    -0.449 C  
HETATM    5  O   UNL     1     -14.096  15.529  70.959  1.00  0.00    -0.513 OA 
BRANCH   4   6
HETATM    6  C   UNL     1     -12.422  14.104  70.114  1.00  0.00    -0.391 A  
HETATM    7  C   UNL     1     -12.101  14.328  68.764  1.00  0.00    -0.300 A  
HETATM    8  C   UNL     1     -11.600  13.313  67.909  1.00  0.00    -0.334 A  
HETATM    9  C   UNL     1     -11.464  12.038  68.490  1.00  0.00    -0.293 A  
HETATM   10  S   UNL     1     -10.855  10.612  67.639  1.00  0.00    -0.310 SA 
HETATM   11  C   UNL     1     -11.803  11.810  69.839  1.00  0.00    -0.423 A  
HETATM   12  C   UNL     1     -10.551  11.237  66.009  1.00  0.00    -0.258 A  
HETATM   13  C   UNL     1     -12.277  12.833  70.650  1.00  0.00    -0.374 A  
HETATM   14  C   UNL     1     -10.064  10.273  65.099  1.00  0.00    -0.355 A  
HETATM   15  C   UNL     1      -9.775  10.604  63.787  1.00  0.00    -0.382 A  
HETATM   16  C   UNL     1      -9.971  11.907  63.367  1.00  0.00    -0.435 A  
HETATM   17  C   UNL     1     -10.457  12.868  64.268  1.00  0.00    -0.430 A  
HETATM   18  C   UNL     1     -10.763  12.578  65.620  1.00  0.00    -0.266 A  
HETATM   19  N   UNL     1     -11.250  13.558  66.541  1.00  0.00    -0.301 NA 
BRANCH  19  20
HETATM   20  C   UNL     1     -11.371  14.962  66.083  1.00  0.00    -0.307 C  
BRANCH  20  21
HETATM   21  C   UNL     1     -10.027  15.711  66.080  1.00  0.00    -0.359 C  
BRANCH  21  22
HETATM   22  C   UNL     1     -10.170  17.160  66.546  1.00  0.00    -0.322 C  
BRANCH  22  23
HETATM   23  N   UNL     1      -9.104  18.067  66.072  1.00  0.00    -0.521 NA 
HETATM   24  C   UNL     1      -9.361  19.437  66.584  1.00  0.00    -0.349 C  
HETATM   25  C   UNL     1      -9.185  19.574  68.118  1.00  0.00    -0.347 C  
HETATM   26  N   UNL     1      -7.884  19.103  68.639  1.00  0.00    -0.344 NA 
HETATM   27  C   UNL     1      -7.533  17.790  68.053  1.00  0.00    -0.226 C  
HETATM   28  C   UNL     1      -6.836  20.088  68.372  1.00  0.00    -0.302 C  
HETATM   29  C   UNL     1      -7.752  17.677  66.524  1.00  0.00    -0.270 C  
ENDBRANCH  22  23
ENDBRANCH  21  22
ENDBRANCH  20  21
ENDBRANCH  19  20
ENDBRANCH   4   6
ENDBRANCH   3   4
ENDBRANCH   2   3
TORSDOF 7
ENDMDL
MODEL        2
REMARK 921   NORMALIZED FREE ENERGY PREDICTED BY IDOCK:   -7.37 KCAL/MOL
REMARK 922        TOTAL FREE ENERGY PREDICTED BY IDOCK:  -11.34 KCAL/MOL
REMARK 923 INTER-LIGAND FREE ENERGY PREDICTED BY IDOCK:  -10.41 KCAL/MOL
REMARK 924 INTRA-LIGAND FREE ENERGY PREDICTED BY IDOCK:   -0.93 KCAL/MOL
REMARK 927      BINDING AFFINITY PREDICTED BY RF-SCORE:    0.00 PKD
ROOT
HETATM    1  C   UNL     1     -12.278  13.538  63.684  1.00  0.00    -0.438 C  
HETATM    2  C   UNL     1     -11.483  12.281  63.360  1.00  0.00    -0.512 C  
ENDROOT
BRANCH   2   3
HETATM    3  C   UNL     1     -10.210  12.216  64.201  1.00  0.00    -0.370 C  
BRANCH   3   4
HETATM    4  C   UNL     1     -10.118  10.954  65.042  1.00  0.00    -0.300 C  
HETATM    5  O   UNL     1      -9.621   9.907  64.631  1.00  0.00    -0.299 OA 
BRANCH   4   6
HETATM    6  C   UNL     1     -10.619  11.022  66.449  1.00  0.00    -0.308 A  
HETATM    7  C   UNL     1     -11.010  12.267  66.971  1.00  0.00    -0.314 A  
HETATM    8  C   UNL     1     -11.540  12.427  68.276  1.00  0.00    -0.333 A  
HETATM    9  C   UNL     1     -11.632  11.253  69.045  1.00  0.00    -0.319 A  
HETATM   10  S   UNL     1     -12.264  11.186  70.697  1.00  0.00    -0.400 SA 
HETATM   11  C   UNL     1     -11.222  10.007  68.529  1.00  0.00    -0.180 A  
HETATM   12  C   UNL     1     -12.657  12.882  71.027  1.00  0.00    -0.287 A  
HETATM   13  C   UNL     1     -10.721   9.887  67.239  1.00  0.00    -0.304 A  
HETATM   14  C   UNL     1     -13.177  13.117  72.319  1.00  0.00    -0.555 A  
HETATM   15  C   UNL     1     -13.536  14.389  72.730  1.00  0.00    -0.582 A  
HETATM   16  C   UNL     1     -13.377  15.445  71.852  1.00  0.00    -0.554 A  
HETATM   17  C   UNL     1     -12.859  15.216  70.567  1.00  0.00    -0.395 A  
HETATM   18  C   UNL     1     -12.482  13.933  70.100  1.00  0.00    -0.292 A  
HETATM   19  N   UNL     1     -11.962  13.698  68.789  1.00  0.00    -0.360 NA 
BRANCH  19  20
HETATM   20  C   UNL     1     -11.880  14.836  67.844  1.00  0.00    -0.297 C  
BRANCH  20  21
HETATM   21  C   UNL     1     -10.556  15.611  67.950  1.00  0.00    -0.278 C  
BRANCH  21  22
HETATM   22  C   UNL     1     -10.766  17.125  67.918  1.00  0.00    -0.355 C  
BRANCH  22  23
HETATM   23  N   UNL     1      -9.777  17.900  68.697  1.00  0.00    -0.344 NA 
HETATM   24  C   UNL     1      -8.433  17.734  68.088  1.00  0.00    -0.262 C  
HETATM   25  C   UNL     1      -8.288  18.408  66.699  1.00  0.00    -0.265 C  
HETATM   26  N   UNL     1      -8.660  19.839  66.661  1.00  0.00    -0.320 NA 
HETATM   27  C   UNL     1      -9.939  20.064  67.370  1.00  0.00    -0.433 C  
HETATM   28  C   UNL     1      -7.596  20.662  67.235  1.00  0.00    -0.333 C  
HETATM   29  C   UNL     1     -10.063  19.350  68.738  1.00  0.00    -0.422 C  
ENDBRANCH  22  23
ENDBRANCH  21  22
ENDBRANCH  20  21
ENDBRANCH  19  20
ENDBRANCH   4   6
ENDBRANCH   3   4
ENDBRANCH   2   3
TORSDOF 7
ENDMDL
MODEL        3
REMARK 921   NORMALIZED FREE ENERGY PREDICTED BY IDOCK:   -7.17 KCAL/MOL
REMARK 922        TOTAL FREE ENERGY PREDICTED BY IDOCK:  -11.06 KCAL/MOL
REMARK 923 INTER-LIGAND FREE ENERGY PREDICTED BY IDOCK:  -10.06 KCAL/MOL
REMARK 924 INTRA-LIGAND FREE ENERGY PREDICTED BY IDOCK:   -1.00 KCAL/MOL
REMARK 927      BINDING AFFINITY PREDICTED BY RF-SCORE:    0.00 PKD
ROOT
HETATM    1  C   UNL     1     -12.650  15.526  73.920  1.00  0.00    -0.767 C  
HETATM    2  C   UNL     1     -12.209  16.086  72.575  1.00  0.00    -0.612 C  
ENDROOT
BRANCH   2   3
HETATM    3  C   UNL     1     -13.086  15.541  71.450  1.00  0.00    -0.580 C  
BRANCH   3   4
HETATM    4  C   UNL     1     -12.367  14.530  70.574  1.00  0.00    -0.337 C  
HETATM    5  O   UNL     1     -11.643  14.849  69.632  1.00  0.00    -0.268 OA 
BRANCH   4   6
HETATM    6  C   UNL     1     -12.523  13.083  70.917  1.00  0.00    -0.396 A  
HETATM    7  C   UNL     1     -11.750  12.134  70.227  1.00  0.00    -0.240 A  
HETATM    8  C   UNL     1     -11.793  10.745  70.511  1.00  0.00    -0.356 A  
HETATM    9  C   UNL     1     -12.689  10.358  71.525  1.00  0.00    -0.459 A  
HETATM   10  S   UNL     1     -12.922   8.690  72.069  1.00  0.00    -0.398 SA 
HETATM   11  C   UNL     1     -13.479  11.307  72.204  1.00  0.00    -0.197 A  
HETATM   12  C   UNL     1     -11.819   7.785  71.019  1.00  0.00    -0.272 A  
HETATM   13  C   UNL     1     -13.397  12.662  71.908  1.00  0.00    -0.485 A  
HETATM   14  C   UNL     1     -11.823   6.390  71.239  1.00  0.00    -0.333 A  
HETATM   15  C   UNL     1     -11.014   5.543  70.500  1.00  0.00    -0.196 A  
HETATM   16  C   UNL     1     -10.190   6.084  69.531  1.00  0.00    -0.267 A  
HETATM   17  C   UNL     1     -10.185   7.470  69.308  1.00  0.00    -0.201 A  
HETATM   18  C   UNL     1     -10.991   8.376  70.040  1.00  0.00    -0.194 A  
HETATM   19  N   UNL     1     -10.980   9.788  69.820  1.00  0.00    -0.247 NA 
BRANCH  19  20
HETATM   20  C   UNL     1     -10.027  10.344  68.831  1.00  0.00    -0.199 C  
BRANCH  20  21
HETATM   21  C   UNL     1     -10.514  10.199  67.379  1.00  0.00    -0.310 C  
BRANCH  21  22
HETATM   22  C   UNL     1     -10.447  11.518  66.610  1.00  0.00    -0.238 C  
BRANCH  22  23
HETATM   23  N   UNL     1     -11.752  12.016  66.127  1.00  0.00    -0.524 NA 
HETATM   24  C   UNL     1     -12.023  13.347  66.727  1.00  0.00    -0.394 C  
HETATM   25  C   UNL     1     -11.085  14.469  66.210  1.00  0.00    -0.332 C  
HETATM   26  N   UNL     1     -11.033  14.606  64.739  1.00  0.00    -0.397 NA 
HETATM   27  C   UNL     1     -10.888  13.281  64.096  1.00  0.00    -0.343 C  
HETATM   28  C   UNL     1     -12.225  15.296  64.245  1.00  0.00    -0.189 C  
HETATM   29  C   UNL     1     -11.817  12.177  64.658  1.00  0.00    -0.328 C  
ENDBRANCH  22  23
ENDBRANCH  21  22
ENDBRANCH  20  21
ENDBRANCH  19  20
ENDBRANCH   4   6
ENDBRANCH   3   4
ENDBRANCH   2   3
TORSDOF 7
ENDMDL
MODEL        4
REMARK 921   NORMALIZED FREE ENERGY PREDICTED BY IDOCK:   -6.91 KCAL/MOL
REMARK 922        TOTAL FREE ENERGY PREDICTED BY IDOCK:  -10.70 KCAL/MOL
REMARK 923 INTER-LIGAND FREE ENERGY PREDICTED BY IDOCK:   -9.61 KCAL/MOL
REMARK 924 INTRA-LIGAND FREE ENERGY PREDICTED BY IDOCK:   -1.09 KCAL/MOL
REMARK 927      BINDING AFFINITY PREDICTED BY RF-SCORE:    0.00 PKD
ROOT
HETATM    1  C   UNL     1      -8.577   9.606  67.123  1.00  0.00    -0.133 C  
HETATM    2  C   UNL     1      -8.575  10.056  65.670  1.00  0.00    -0.166 C  
ENDROOT
BRANCH   2   3
HETATM    3  C   UNL     1      -9.999  10.317  65.183  1.00  0.00    -0.395 C  
BRANCH   3   4
HETATM    4  C   UNL     1     -10.218  11.751  64.732  1.00  0.00    -0.282 C  
HETATM    5  O   UNL     1     -10.135  12.107  63.557  1.00  0.00    -0.422 OA 
BRANCH   4   6
HETATM    6  C   UNL     1     -10.598  12.754  65.774  1.00  0.00    -0.295 A  
HETATM    7  C   UNL     1     -11.188  12.303  66.967  1.00  0.00    -0.367 A  
HETATM    8  C   UNL     1     -11.540  13.170  68.032  1.00  0.00    -0.334 A  
HETATM    9  C   UNL     1     -11.286  14.537  67.815  1.00  0.00    -0.317 A  
HETATM   10  S   UNL     1     -11.629  15.816  68.990  1.00  0.00    -0.393 SA 
HETATM   11  C   UNL     1     -10.712  14.992  66.611  1.00  0.00    -0.312 A  
HETATM   12  C   UNL     1     -12.341  14.917  70.340  1.00  0.00    -0.345 A  
HETATM   13  C   UNL     1     -10.366  14.109  65.596  1.00  0.00    -0.348 A  
HETATM   14  C   UNL     1     -12.731  15.724  71.432  1.00  0.00    -0.509 A  
HETATM   15  C   UNL     1     -13.302  15.172  72.566  1.00  0.00    -0.540 A  
HETATM   16  C   UNL     1     -13.492  13.803  72.620  1.00  0.00    -0.638 A  
HETATM   17  C   UNL     1     -13.107  12.999  71.536  1.00  0.00    -0.400 A  
HETATM   18  C   UNL     1     -12.516  13.516  70.358  1.00  0.00    -0.275 A  
HETATM   19  N   UNL     1     -12.116  12.697  69.257  1.00  0.00    -0.222 NA 
BRANCH  19  20
HETATM   20  C   UNL     1     -12.257  11.227  69.379  1.00  0.00    -0.247 C  
BRANCH  20  21
HETATM   21  C   UNL     1     -11.072  10.569  70.107  1.00  0.00    -0.369 C  
BRANCH  21  22
HETATM   22  C   UNL     1     -11.528   9.640  71.233  1.00  0.00    -0.392 C  
BRANCH  22  23
HETATM   23  N   UNL     1     -10.454   8.805  71.814  1.00  0.00    -0.319 NA 
HETATM   24  C   UNL     1     -11.055   7.796  72.723  1.00  0.00    -0.398 C  
HETATM   25  C   UNL     1     -11.889   6.713  71.990  1.00  0.00    -0.324 C  
HETATM   26  N   UNL     1     -11.178   6.014  70.899  1.00  0.00    -0.291 NA 
HETATM   27  C   UNL     1     -10.462   6.983  70.040  1.00  0.00    -0.215 C  
HETATM   28  C   UNL     1     -10.254   5.018  71.441  1.00  0.00    -0.200 C  
HETATM   29  C   UNL     1      -9.665   8.070  70.803  1.00  0.00    -0.165 C  
ENDBRANCH  22  23
ENDBRANCH  21  22
ENDBRANCH  20  21
ENDBRANCH  19  20
ENDBRANCH   4   6
ENDBRANCH   3   4
ENDBRANCH   2   3
TORSDOF 7
ENDMDL
MODEL        5
REMARK 921   NORMALIZED FREE ENERGY PREDICTED BY IDOCK:   -6.88 KCAL/MOL
REMARK 922        TOTAL FREE ENERGY PREDICTED BY IDOCK:  -10.66 KCAL/MOL
REMARK 923 INTER-LIGAND FREE ENERGY PREDICTED BY IDOCK:  -10.08 KCAL/MOL
REMARK 924 INTRA-LIGAND FREE ENERGY PREDICTED BY IDOCK:   -0.58 KCAL/MOL
REMARK 927      BINDING AFFINITY PREDICTED BY RF-SCORE:    0.00 PKD
ROOT
HETATM    1  C   UNL     1     -14.410  15.216  71.877  1.00  0.00    -0.693 C  
HETATM    2  C   UNL     1     -14.018  13.815  72.320  1.00  0.00    -0.672 C  
ENDROOT
BRANCH   2   3
HETATM    3  C   UNL     1     -12.881  13.274  71.456  1.00  0.00    -0.419 C  
BRANCH   3   4
HETATM    4  C   UNL     1     -12.858  11.757  71.384  1.00  0.00    -0.335 C  
HETATM    5  O   UNL     1     -13.439  11.036  72.194  1.00  0.00    -0.377 OA 
BRANCH   4   6
HETATM    6  C   UNL     1     -12.126  11.130  70.241  1.00  0.00    -0.462 A  
HETATM    7  C   UNL     1     -12.134  11.776  68.993  1.00  0.00    -0.276 A  
HETATM    8  C   UNL     1     -11.433  11.284  67.863  1.00  0.00    -0.288 A  
HETATM    9  C   UNL     1     -10.737  10.076  68.055  1.00  0.00    -0.256 A  
HETATM   10  S   UNL     1      -9.782   9.264  66.805  1.00  0.00    -0.219 SA 
HETATM   11  C   UNL     1     -10.744   9.418  69.300  1.00  0.00    -0.228 A  
HETATM   12  C   UNL     1     -10.001  10.325  65.403  1.00  0.00    -0.302 A  
HETATM   13  C   UNL     1     -11.431   9.939  70.390  1.00  0.00    -0.372 A  
HETATM   14  C   UNL     1      -9.341   9.885  64.234  1.00  0.00    -0.313 A  
HETATM   15  C   UNL     1      -9.412  10.605  63.054  1.00  0.00    -0.363 A  
HETATM   16  C   UNL     1     -10.147  11.776  63.029  1.00  0.00    -0.263 A  
HETATM   17  C   UNL     1     -10.807  12.215  64.188  1.00  0.00    -0.410 A  
HETATM   18  C   UNL     1     -10.760  11.516  65.419  1.00  0.00    -0.278 A  
HETATM   19  N   UNL     1     -11.424  11.966  66.602  1.00  0.00    -0.451 NA 
BRANCH  19  20
HETATM   20  C   UNL     1     -12.136  13.265  66.564  1.00  0.00    -0.375 C  
BRANCH  20  21
HETATM   21  C   UNL     1     -11.466  14.342  67.435  1.00  0.00    -0.377 C  
BRANCH  21  22
HETATM   22  C   UNL     1     -10.748  15.401  66.598  1.00  0.00    -0.309 C  
BRANCH  22  23
HETATM   23  N   UNL     1      -9.509  15.931  67.206  1.00  0.00    -0.211 NA 
HETATM   24  C   UNL     1      -9.087  17.152  66.475  1.00  0.00    -0.269 C  
HETATM   25  C   UNL     1     -10.038  18.361  66.675  1.00  0.00    -0.380 C  
HETATM   26  N   UNL     1     -10.307  18.713  68.085  1.00  0.00    -0.372 NA 
HETATM   27  C   UNL     1     -10.612  17.500  68.876  1.00  0.00    -0.193 C  
HETATM   28  C   UNL     1      -9.173  19.437  68.659  1.00  0.00    -0.378 C  
HETATM   29  C   UNL     1      -9.662  16.303  68.629  1.00  0.00    -0.235 C  
ENDBRANCH  22  23
ENDBRANCH  21  22
ENDBRANCH  20  21
ENDBRANCH  19  20
ENDBRANCH   4   6
ENDBRANCH   3   4
ENDBRANCH   2   3
TORSDOF 7
ENDMDL
MODEL        6
REMARK 921   NORMALIZED FREE ENERGY PREDICTED BY IDOCK:   -6.87 KCAL/MOL
REMARK 922        TOTAL FREE ENERGY PREDICTED BY IDOCK:  -10.63 KCAL/MOL
REMARK 923 INTER-LIGAND FREE ENERGY PREDICTED BY IDOCK:   -9.92 KCAL/MOL
REMARK 924 INTRA-LIGAND FREE ENERGY PREDICTED BY IDOCK:   -0.71 KCAL/MOL
REMARK 927      BINDING AFFINITY PREDICTED BY RF-SCORE:    0.00 PKD
ROOT
HETATM    1  C   UNL     1      -7.330   9.762  63.246  1.00  0.00    -0.123 C  
HETATM    2  C   UNL     1      -8.787  10.193  63.156  1.00  0.00    -0.232 C  
ENDROOT
BRANCH   2   3
HETATM    3  C   UNL     1      -9.474  10.057  64.512  1.00  0.00    -0.359 C  
BRANCH   3   4
HETATM    4  C   UNL     1     -10.065  11.364  65.013  1.00  0.00    -0.274 C  
HETATM    5  O   UNL     1     -10.154  12.374  64.316  1.00  0.00    -0.315 OA 
BRANCH   4   6
HETATM    6  C   UNL     1     -10.600  11.391  66.409  1.00  0.00    -0.311 A  
HETATM    7  C   UNL     1     -10.926  12.630  66.987  1.00  0.00    -0.300 A  
HETATM    8  C   UNL     1     -11.482  12.755  68.286  1.00  0.00    -0.314 A  
HETATM    9  C   UNL     1     -11.668  11.550  68.989  1.00  0.00    -0.335 A  
HETATM   10  S   UNL     1     -12.349  11.439  70.619  1.00  0.00    -0.345 SA 
HETATM   11  C   UNL     1     -11.322  10.310  68.417  1.00  0.00    -0.244 A  
HETATM   12  C   UNL     1     -12.644  13.137  71.029  1.00  0.00    -0.312 A  
HETATM   13  C   UNL     1     -10.795  10.225  67.135  1.00  0.00    -0.278 A  
HETATM   14  C   UNL     1     -13.184  13.337  72.319  1.00  0.00    -0.567 A  
HETATM   15  C   UNL     1     -13.474  14.606  72.789  1.00  0.00    -0.570 A  
HETATM   16  C   UNL     1     -13.225  15.694  71.972  1.00  0.00    -0.541 A  
HETATM   17  C   UNL     1     -12.687  15.499  70.690  1.00  0.00    -0.487 A  
HETATM   18  C   UNL     1     -12.378  14.221  70.164  1.00  0.00    -0.353 A  
HETATM   19  N   UNL     1     -11.838  14.022  68.856  1.00  0.00    -0.336 NA 
BRANCH  19  20
HETATM   20  C   UNL     1     -11.659  15.200  67.975  1.00  0.00    -0.328 C  
BRANCH  20  21
HETATM   21  C   UNL     1     -10.322  15.925  68.205  1.00  0.00    -0.256 C  
BRANCH  21  22
HETATM   22  C   UNL     1     -10.422  17.426  67.935  1.00  0.00    -0.383 C  
BRANCH  22  23
HETATM   23  N   UNL     1      -9.550  18.264  68.785  1.00  0.00    -0.321 NA 
HETATM   24  C   UNL     1      -8.131  18.020  68.423  1.00  0.00    -0.298 C  
HETATM   25  C   UNL     1      -7.745  18.548  67.017  1.00  0.00    -0.225 C  
HETATM   26  N   UNL     1      -8.064  19.972  66.779  1.00  0.00    -0.306 NA 
HETATM   27  C   UNL     1      -9.434  20.284  67.244  1.00  0.00    -0.423 C  
HETATM   28  C   UNL     1      -7.084  20.836  67.437  1.00  0.00    -0.359 C  
HETATM   29  C   UNL     1      -9.797  19.714  68.637  1.00  0.00    -0.427 C  
ENDBRANCH  22  23
ENDBRANCH  21  22
ENDBRANCH  20  21
ENDBRANCH  19  20
ENDBRANCH   4   6
ENDBRANCH   3   4
ENDBRANCH   2   3
TORSDOF 7
ENDMDL
MODEL        7
REMARK 921   NORMALIZED FREE ENERGY PREDICTED BY IDOCK:   -6.84 KCAL/MOL
REMARK 922        TOTAL FREE ENERGY PREDICTED BY IDOCK:  -10.59 KCAL/MOL
REMARK 923 INTER-LIGAND FREE ENERGY PREDICTED BY IDOCK:   -9.59 KCAL/MOL
REMARK 924 INTRA-LIGAND FREE ENERGY PREDICTED BY IDOCK:   -1.00 KCAL/MOL
REMARK 927      BINDING AFFINITY PREDICTED BY RF-SCORE:    0.00 PKD
ROOT
HETATM    1  C   UNL     1     -10.068   8.523  66.855  1.00  0.00    -0.364 C  
HETATM    2  C   UNL     1      -9.284   8.876  65.600  1.00  0.00    -0.268 C  
ENDROOT
BRANCH   2   3
HETATM    3  C   UNL     1      -8.930  10.361  65.583  1.00  0.00    -0.198 C  
BRANCH   3   4
HETATM    4  C   UNL     1     -10.095  11.244  65.173  1.00  0.00    -0.275 C  
HETATM    5  O   UNL     1     -10.721  11.090  64.125  1.00  0.00    -0.378 OA 
BRANCH   4   6
HETATM    6  C   UNL     1     -10.516  12.320  66.123  1.00  0.00    -0.270 A  
HETATM    7  C   UNL     1     -11.129  11.954  67.333  1.00  0.00    -0.336 A  
HETATM    8  C   UNL     1     -11.521  12.897  68.318  1.00  0.00    -0.311 A  
HETATM    9  C   UNL     1     -11.283  14.247  67.999  1.00  0.00    -0.280 A  
HETATM   10  S   UNL     1     -11.674  15.608  69.060  1.00  0.00    -0.371 SA 
HETATM   11  C   UNL     1     -10.686  14.615  66.777  1.00  0.00    -0.301 A  
HETATM   12  C   UNL     1     -12.406  14.807  70.460  1.00  0.00    -0.337 A  
HETATM   13  C   UNL     1     -10.301  13.661  65.843  1.00  0.00    -0.304 A  
HETATM   14  C   UNL     1     -12.835  15.690  71.475  1.00  0.00    -0.538 A  
HETATM   15  C   UNL     1     -13.425  15.220  72.635  1.00  0.00    -0.610 A  
HETATM   16  C   UNL     1     -13.595  13.857  72.794  1.00  0.00    -0.493 A  
HETATM   17  C   UNL     1     -13.171  12.976  71.786  1.00  0.00    -0.486 A  
HETATM   18  C   UNL     1     -12.559  13.408  70.585  1.00  0.00    -0.253 A  
HETATM   19  N   UNL     1     -12.120  12.512  69.562  1.00  0.00    -0.235 NA 
BRANCH  19  20
HETATM   20  C   UNL     1     -12.241  11.054  69.797  1.00  0.00    -0.318 C  
BRANCH  20  21
HETATM   21  C   UNL     1     -10.986  10.444  70.447  1.00  0.00    -0.320 C  
BRANCH  21  22
HETATM   22  C   UNL     1     -10.936   8.924  70.296  1.00  0.00    -0.241 C  
BRANCH  22  23
HETATM   23  N   UNL     1     -11.933   8.192  71.106  1.00  0.00    -0.290 NA 
HETATM   24  C   UNL     1     -11.925   6.759  70.717  1.00  0.00    -0.378 C  
HETATM   25  C   UNL     1     -10.629   6.009  71.120  1.00  0.00    -0.246 C  
HETATM   26  N   UNL     1     -10.266   6.121  72.549  1.00  0.00    -0.182 NA 
HETATM   27  C   UNL     1     -10.382   7.524  73.007  1.00  0.00    -0.322 C  
HETATM   28  C   UNL     1     -11.099   5.238  73.363  1.00  0.00    -0.303 C  
HETATM   29  C   UNL     1     -11.673   8.253  72.560  1.00  0.00    -0.383 C  
ENDBRANCH  22  23
ENDBRANCH  21  22
ENDBRANCH  20  21
ENDBRANCH  19  20
ENDBRANCH   4   6
ENDBRANCH   3   4
ENDBRANCH   2   3
TORSDOF 7
ENDMDL
MODEL        8
REMARK 921   NORMALIZED FREE ENERGY PREDICTED BY IDOCK:   -6.74 KCAL/MOL
REMARK 922        TOTAL FREE ENERGY PREDICTED BY IDOCK:  -10.46 KCAL/MOL
REMARK 923 INTER-LIGAND FREE ENERGY PREDICTED BY IDOCK:   -9.49 KCAL/MOL
REMARK 924 INTRA-LIGAND FREE ENERGY PREDICTED BY IDOCK:   -0.97 KCAL/MOL
REMARK 927      BINDING AFFINITY PREDICTED BY RF-SCORE:    0.00 PKD
ROOT
HETATM    1  C   UNL     1     -11.853  16.802  73.410  1.00  0.00    -0.161 C  
HETATM    2  C   UNL     1     -12.638  15.606  73.928  1.00  0.00    -0.767 C  
ENDROOT
BRANCH   2   3
HETATM    3  C   UNL     1     -13.600  15.088  72.862  1.00  0.00    -0.525 C  
BRANCH   3   4
HETATM    4  C   UNL     1     -13.054  13.893  72.099  1.00  0.00    -0.406 C  
HETATM    5  O   UNL     1     -13.042  12.751  72.555  1.00  0.00    -0.317 OA 
BRANCH   4   6
HETATM    6  C   UNL     1     -12.554  14.130  70.710  1.00  0.00    -0.432 A  
HETATM    7  C   UNL     1     -12.161  13.027  69.933  1.00  0.00    -0.347 A  
HETATM    8  C   UNL     1     -11.716  13.145  68.591  1.00  0.00    -0.326 A  
HETATM    9  C   UNL     1     -11.665  14.455  68.078  1.00  0.00    -0.340 A  
HETATM   10  S   UNL     1     -11.153  14.865  66.435  1.00  0.00    -0.331 SA 
HETATM   11  C   UNL     1     -12.041  15.563  68.864  1.00  0.00    -0.219 A  
HETATM   12  C   UNL     1     -10.745  13.282  65.752  1.00  0.00    -0.277 A  
HETATM   13  C   UNL     1     -12.486  15.406  70.170  1.00  0.00    -0.370 A  
HETATM   14  C   UNL     1     -10.279  13.327  64.420  1.00  0.00    -0.300 A  
HETATM   15  C   UNL     1      -9.921  12.173  63.744  1.00  0.00    -0.343 A  
HETATM   16  C   UNL     1     -10.024  10.958  64.395  1.00  0.00    -0.381 A  
HETATM   17  C   UNL     1     -10.485  10.909  65.720  1.00  0.00    -0.275 A  
HETATM   18  C   UNL     1     -10.866  12.060  66.451  1.00  0.00    -0.278 A  
HETATM   19  N   UNL     1     -11.344  12.011  67.797  1.00  0.00    -0.280 NA 
BRANCH  19  20
HETATM   20  C   UNL     1     -11.521  10.687  68.439  1.00  0.00    -0.259 C  
BRANCH  20  21
HETATM   21  C   UNL     1     -10.251  10.191  69.152  1.00  0.00    -0.229 C  
BRANCH  21  22
HETATM   22  C   UNL     1     -10.535   9.713  70.577  1.00  0.00    -0.303 C  
BRANCH  22  23
HETATM   23  N   UNL     1      -9.746   8.538  71.001  1.00  0.00    -0.180 NA 
HETATM   24  C   UNL     1      -9.945   8.311  72.455  1.00  0.00    -0.309 C  
HETATM   25  C   UNL     1     -11.375   7.838  72.824  1.00  0.00    -0.389 C  
HETATM   26  N   UNL     1     -11.846   6.649  72.083  1.00  0.00    -0.307 NA 
HETATM   27  C   UNL     1     -11.552   6.784  70.639  1.00  0.00    -0.370 C  
HETATM   28  C   UNL     1     -11.241   5.432  72.625  1.00  0.00    -0.275 C  
HETATM   29  C   UNL     1     -10.126   7.289  70.307  1.00  0.00    -0.192 C  
ENDBRANCH  22  23
ENDBRANCH  21  22
ENDBRANCH  20  21
ENDBRANCH  19  20
ENDBRANCH   4   6
ENDBRANCH   3   4
ENDBRANCH   2   3
TORSDOF 7
ENDMDL
MODEL        9
REMARK 921   NORMALIZED FREE ENERGY PREDICTED BY IDOCK:   -6.68 KCAL/MOL
REMARK 922        TOTAL FREE ENERGY PREDICTED BY IDOCK:  -10.37 KCAL/MOL
REMARK 923 INTER-LIGAND FREE ENERGY PREDICTED BY IDOCK:   -9.37 KCAL/MOL
REMARK 924 INTRA-LIGAND FREE ENERGY PREDICTED BY IDOCK:   -1.00 KCAL/MOL
REMARK 927      BINDING AFFINITY PREDICTED BY RF-SCORE:    0.00 PKD
ROOT
HETATM    1  C   UNL     1     -14.386   7.733  71.562  1.00  0.00    -0.574 C  
HETATM    2  C   UNL     1     -14.222   8.914  72.507  1.00  0.00    -0.386 C  
ENDROOT
BRANCH   2   3
HETATM    3  C   UNL     1     -13.079   9.817  72.050  1.00  0.00    -0.546 C  
BRANCH   3   4
HETATM    4  C   UNL     1     -11.793   9.056  71.778  1.00  0.00    -0.372 C  
HETATM    5  O   UNL     1     -11.168   8.455  72.651  1.00  0.00    -0.369 OA 
BRANCH   4   6
HETATM    6  C   UNL     1     -11.302   9.009  70.366  1.00  0.00    -0.242 A  
HETATM    7  C   UNL     1     -11.509  10.126  69.538  1.00  0.00    -0.227 A  
HETATM    8  C   UNL     1     -11.042  10.195  68.201  1.00  0.00    -0.230 A  
HETATM    9  C   UNL     1     -10.369   9.052  67.730  1.00  0.00    -0.246 A  
HETATM   10  S   UNL     1      -9.686   8.893  66.105  1.00  0.00    -0.240 SA 
HETATM   11  C   UNL     1     -10.178   7.925  68.554  1.00  0.00    -0.229 A  
HETATM   12  C   UNL     1     -10.112  10.441  65.356  1.00  0.00    -0.284 A  
HETATM   13  C   UNL     1     -10.637   7.900  69.865  1.00  0.00    -0.242 A  
HETATM   14  C   UNL     1      -9.690  10.571  64.014  1.00  0.00    -0.383 A  
HETATM   15  C   UNL     1      -9.944  11.723  63.289  1.00  0.00    -0.435 A  
HETATM   16  C   UNL     1     -10.627  12.759  63.899  1.00  0.00    -0.427 A  
HETATM   17  C   UNL     1     -11.050  12.632  65.231  1.00  0.00    -0.330 A  
HETATM   18  C   UNL     1     -10.811  11.477  66.014  1.00  0.00    -0.276 A  
HETATM   19  N   UNL     1     -11.234  11.350  67.374  1.00  0.00    -0.310 NA 
BRANCH  19  20
HETATM   20  C   UNL     1     -11.890  12.509  68.023  1.00  0.00    -0.325 C  
BRANCH  20  21
HETATM   21  C   UNL     1     -10.887  13.498  68.643  1.00  0.00    -0.281 C  
BRANCH  21  22
HETATM   22  C   UNL     1     -11.148  14.939  68.204  1.00  0.00    -0.283 C  
BRANCH  22  23
HETATM   23  N   UNL     1     -10.121  15.909  68.638  1.00  0.00    -0.211 NA 
HETATM   24  C   UNL     1      -8.817  15.550  68.025  1.00  0.00    -0.165 C  
HETATM   25  C   UNL     1      -8.770  15.757  66.489  1.00  0.00    -0.319 C  
HETATM   26  N   UNL     1      -9.160  17.108  66.032  1.00  0.00    -0.513 NA 
HETATM   27  C   UNL     1     -10.394  17.554  66.716  1.00  0.00    -0.314 C  
HETATM   28  C   UNL     1      -8.071  18.060  66.251  1.00  0.00    -0.224 C  
HETATM   29  C   UNL     1     -10.421  17.303  68.244  1.00  0.00    -0.385 C  
ENDBRANCH  22  23
ENDBRANCH  21  22
ENDBRANCH  20  21
ENDBRANCH  19  20
ENDBRANCH   4   6
ENDBRANCH   3   4
ENDBRANCH   2   3
TORSDOF 7
ENDMDL
MODEL       10
REMARK 921   NORMALIZED FREE ENERGY PREDICTED BY IDOCK:   -6.64 KCAL/MOL
REMARK 922        TOTAL FREE ENERGY PREDICTED BY IDOCK:  -10.31 KCAL/MOL
REMARK 923 INTER-LIGAND FREE ENERGY PREDICTED BY IDOCK:   -9.22 KCAL/MOL
REMARK 924 INTRA-LIGAND FREE ENERGY PREDICTED BY IDOCK:   -1.09 KCAL/MOL
REMARK 927      BINDING AFFINITY PREDICTED BY RF-SCORE:    0.00 PKD
ROOT
HETATM    1  C   UNL     1     -11.977  13.265  63.206  1.00  0.00    -0.376 C  
HETATM    2  C   UNL     1     -11.607  11.819  63.500  1.00  0.00    -0.487 C  
ENDROOT
BRANCH   2   3
HETATM    3  C   UNL     1     -10.112  11.691  63.784  1.00  0.00    -0.416 C  
BRANCH   3   4
HETATM    4  C   UNL     1      -9.805  11.450  65.252  1.00  0.00    -0.248 C  
HETATM    5  O   UNL     1      -9.206  10.456  65.660  1.00  0.00    -0.165 OA 
BRANCH   4   6
HETATM    6  C   UNL     1     -10.218  12.505  66.228  1.00  0.00    -0.265 A  
HETATM    7  C   UNL     1     -10.930  12.125  67.378  1.00  0.00    -0.308 A  
HETATM    8  C   UNL     1     -11.326  13.044  68.383  1.00  0.00    -0.291 A  
HETATM    9  C   UNL     1     -10.983  14.389  68.148  1.00  0.00    -0.254 A  
HETATM   10  S   UNL     1     -11.356  15.722  69.251  1.00  0.00    -0.375 SA 
HETATM   11  C   UNL     1     -10.285  14.773  66.986  1.00  0.00    -0.253 A  
HETATM   12  C   UNL     1     -12.226  14.906  70.560  1.00  0.00    -0.329 A  
HETATM   13  C   UNL     1      -9.901  13.841  66.030  1.00  0.00    -0.298 A  
HETATM   14  C   UNL     1     -12.664  15.768  71.590  1.00  0.00    -0.515 A  
HETATM   15  C   UNL     1     -13.358  15.284  72.686  1.00  0.00    -0.577 A  
HETATM   16  C   UNL     1     -13.623  13.929  72.764  1.00  0.00    -0.493 A  
HETATM   17  C   UNL     1     -13.190  13.070  71.742  1.00  0.00    -0.486 A  
HETATM   18  C   UNL     1     -12.476  13.517  70.604  1.00  0.00    -0.333 A  
HETATM   19  N   UNL     1     -12.028  12.642  69.566  1.00  0.00    -0.297 NA 
BRANCH  19  20
HETATM   20  C   UNL     1     -12.255  11.186  69.719  1.00  0.00    -0.300 C  
BRANCH  20  21
HETATM   21  C   UNL     1     -11.080  10.462  70.399  1.00  0.00    -0.371 C  
BRANCH  21  22
HETATM   22  C   UNL     1     -11.255   8.943  70.398  1.00  0.00    -0.230 C  
BRANCH  22  23
HETATM   23  N   UNL     1     -10.019   8.181  70.122  1.00  0.00    -0.185 NA 
HETATM   24  C   UNL     1     -10.249   6.746  70.429  1.00  0.00    -0.192 C  
HETATM   25  C   UNL     1     -11.232   6.048  69.454  1.00  0.00    -0.327 C  
HETATM   26  N   UNL     1     -10.891   6.185  68.023  1.00  0.00    -0.302 NA 
HETATM   27  C   UNL     1     -10.534   7.586  67.704  1.00  0.00    -0.250 C  
HETATM   28  C   UNL     1      -9.801   5.277  67.665  1.00  0.00    -0.155 C  
HETATM   29  C   UNL     1      -9.576   8.263  68.714  1.00  0.00    -0.150 C  
ENDBRANCH  22  23
ENDBRANCH  21  22
ENDBRANCH  20  21
ENDBRANCH  19  20
ENDBRANCH   4   6
ENDBRANCH   3   4
ENDBRANCH   2   3
TORSDOF 7
ENDMDL
MODEL       11
REMARK 921   NORMALIZED FREE ENERGY PREDICTED BY IDOCK:   -6.51 KCAL/MOL
REMARK 922        TOTAL FREE ENERGY PREDICTED BY IDOCK:  -10.13 KCAL/MOL
REMARK 923 INTER-LIGAND FREE ENERGY PREDICTED BY IDOCK:   -9.38 KCAL/MOL
REMARK 924 INTRA-LIGAND FREE ENERGY PREDICTED BY IDOCK:   -0.75 KCAL/MOL
REMARK 927      BINDING AFFINITY PREDICTED BY RF-SCORE:    0.00 PKD
ROOT
HETATM    1  C   UNL     1     -12.450  15.764  74.487  1.00  0.00    -0.755 C  
HETATM    2  C   UNL     1     -12.300  16.099  73.010  1.00  0.00    -0.625 C  
ENDROOT
BRANCH   2   3
HETATM    3  C   UNL     1     -13.452  15.505  72.202  1.00  0.00    -0.587 C  
BRANCH   3   4
HETATM    4  C   UNL     1     -13.080  15.221  70.757  1.00  0.00    -0.414 C  
HETATM    5  O   UNL     1     -13.098  16.079  69.876  1.00  0.00     0.106 OA 
BRANCH   4   6
HETATM    6  C   UNL     1     -12.628  13.837  70.419  1.00  0.00    -0.325 A  
HETATM    7  C   UNL     1     -12.041  13.601  69.164  1.00  0.00    -0.361 A  
HETATM    8  C   UNL     1     -11.540  12.335  68.769  1.00  0.00    -0.330 A  
HETATM    9  C   UNL     1     -11.689  11.299  69.710  1.00  0.00    -0.349 A  
HETATM   10  S   UNL     1     -11.141   9.635  69.460  1.00  0.00    -0.115 SA 
HETATM   11  C   UNL     1     -12.294  11.530  70.961  1.00  0.00    -0.434 A  
HETATM   12  C   UNL     1     -10.465   9.695  67.823  1.00  0.00    -0.256 A  
HETATM   13  C   UNL     1     -12.759  12.789  71.319  1.00  0.00    -0.364 A  
HETATM   14  C   UNL     1      -9.961   8.460  67.359  1.00  0.00    -0.274 A  
HETATM   15  C   UNL     1      -9.397   8.341  66.100  1.00  0.00    -0.254 A  
HETATM   16  C   UNL     1      -9.332   9.459  65.289  1.00  0.00    -0.303 A  
HETATM   17  C   UNL     1      -9.834  10.688  65.746  1.00  0.00    -0.296 A  
HETATM   18  C   UNL     1     -10.415  10.860  67.026  1.00  0.00    -0.244 A  
HETATM   19  N   UNL     1     -10.919  12.112  67.496  1.00  0.00    -0.244 NA 
BRANCH  19  20
HETATM   20  C   UNL     1     -10.760  13.308  66.636  1.00  0.00    -0.280 C  
BRANCH  20  21
HETATM   21  C   UNL     1      -9.479  14.103  66.943  1.00  0.00    -0.275 C  
BRANCH  21  22
HETATM   22  C   UNL     1      -9.769  15.402  67.694  1.00  0.00    -0.211 C  
BRANCH  22  23
HETATM   23  N   UNL     1      -8.823  16.502  67.410  1.00  0.00    -0.189 NA 
HETATM   24  C   UNL     1      -9.222  17.178  66.149  1.00  0.00    -0.184 C  
HETATM   25  C   UNL     1     -10.550  17.971  66.258  1.00  0.00    -0.253 C  
HETATM   26  N   UNL     1     -10.602  18.949  67.365  1.00  0.00    -0.445 NA 
HETATM   27  C   UNL     1     -10.094  18.346  68.617  1.00  0.00    -0.377 C  
HETATM   28  C   UNL     1      -9.845  20.153  67.023  1.00  0.00    -0.455 C  
HETATM   29  C   UNL     1      -8.783  17.535  68.467  1.00  0.00    -0.282 C  
ENDBRANCH  22  23
ENDBRANCH  21  22
ENDBRANCH  20  21
ENDBRANCH  19  20
ENDBRANCH   4   6
ENDBRANCH   3   4
ENDBRANCH   2   3
TORSDOF 7
ENDMDL
MODEL       12
REMARK 921   NORMALIZED FREE ENERGY PREDICTED BY IDOCK:   -6.41 KCAL/MOL
REMARK 922        TOTAL FREE ENERGY PREDICTED BY IDOCK:  -10.00 KCAL/MOL
REMARK 923 INTER-LIGAND FREE ENERGY PREDICTED BY IDOCK:   -8.78 KCAL/MOL
REMARK 924 INTRA-LIGAND FREE ENERGY PREDICTED BY IDOCK:   -1.22 KCAL/MOL
REMARK 927      BINDING AFFINITY PREDICTED BY RF-SCORE:    0.00 PKD
ROOT
HETATM    1  C   UNL     1     -12.858  11.913  63.487  1.00  0.00    -0.435 C  
HETATM    2  C   UNL     1     -11.936  13.118  63.371  1.00  0.00    -0.552 C  
ENDROOT
BRANCH   2   3
HETATM    3  C   UNL     1     -10.703  12.941  64.253  1.00  0.00    -0.430 C  
BRANCH   3   4
HETATM    4  C   UNL     1      -9.994  11.617  64.026  1.00  0.00    -0.296 C  
HETATM    5  O   UNL     1      -9.460  11.313  62.961  1.00  0.00    -0.324 OA 
BRANCH   4   6
HETATM    6  C   UNL     1      -9.914  10.669  65.180  1.00  0.00    -0.366 A  
HETATM    7  C   UNL     1     -10.605  10.979  66.363  1.00  0.00    -0.308 A  
HETATM    8  C   UNL     1     -10.627  10.123  67.494  1.00  0.00    -0.273 A  
HETATM    9  C   UNL     1      -9.883   8.935  67.373  1.00  0.00    -0.193 A  
HETATM   10  S   UNL     1      -9.758   7.702  68.637  1.00  0.00    -0.159 SA 
HETATM   11  C   UNL     1      -9.174   8.632  66.194  1.00  0.00    -0.271 A  
HETATM   12  C   UNL     1     -10.727   8.395  69.948  1.00  0.00    -0.227 A  
HETATM   13  C   UNL     1      -9.189   9.489  65.101  1.00  0.00    -0.305 A  
HETATM   14  C   UNL     1     -10.780   7.600  71.114  1.00  0.00    -0.242 A  
HETATM   15  C   UNL     1     -11.498   8.002  72.227  1.00  0.00    -0.419 A  
HETATM   16  C   UNL     1     -12.174   9.208  72.187  1.00  0.00    -0.408 A  
HETATM   17  C   UNL     1     -12.122  10.002  71.031  1.00  0.00    -0.469 A  
HETATM   18  C   UNL     1     -11.405   9.632  69.867  1.00  0.00    -0.159 A  
HETATM   19  N   UNL     1     -11.359  10.436  68.686  1.00  0.00    -0.244 NA 
BRANCH  19  20
HETATM   20  C   UNL     1     -12.159  11.682  68.645  1.00  0.00    -0.119 C  
BRANCH  20  21
HETATM   21  C   UNL     1     -11.445  12.877  69.302  1.00  0.00    -0.341 C  
BRANCH  21  22
HETATM   22  C   UNL     1     -11.588  14.160  68.482  1.00  0.00    -0.316 C  
BRANCH  22  23
HETATM   23  N   UNL     1     -10.597  15.209  68.803  1.00  0.00    -0.229 NA 
HETATM   24  C   UNL     1      -9.229  14.680  68.568  1.00  0.00    -0.193 C  
HETATM   25  C   UNL     1      -8.903  14.432  67.072  1.00  0.00    -0.237 C  
HETATM   26  N   UNL     1      -9.128  15.594  66.187  1.00  0.00    -0.337 NA 
HETATM   27  C   UNL     1     -10.435  16.226  66.478  1.00  0.00    -0.290 C  
HETATM   28  C   UNL     1      -8.041  16.563  66.323  1.00  0.00    -0.306 C  
HETATM   29  C   UNL     1     -10.742  16.429  67.982  1.00  0.00    -0.334 C  
ENDBRANCH  22  23
ENDBRANCH  21  22
ENDBRANCH  20  21
ENDBRANCH  19  20
ENDBRANCH   4   6
ENDBRANCH   3   4
ENDBRANCH   2   3
TORSDOF 7
ENDMDL
MODEL       13
REMARK 921   NORMALIZED FREE ENERGY PREDICTED BY IDOCK:   -6.37 KCAL/MOL
REMARK 922        TOTAL FREE ENERGY PREDICTED BY IDOCK:   -9.93 KCAL/MOL
REMARK 923 INTER-LIGAND FREE ENERGY PREDICTED BY IDOCK:   -8.71 KCAL/MOL
REMARK 924 INTRA-LIGAND FREE ENERGY PREDICTED BY IDOCK:   -1.22 KCAL/MOL
REMARK 927      BINDING AFFINITY PREDICTED BY RF-SCORE:    0.00 PKD
ROOT
HETATM    1  C   UNL     1      -9.934   8.449  72.284  1.00  0.00    -0.383 C  
HETATM    2  C   UNL     1     -11.355   7.999  72.590  1.00  0.00    -0.469 C  
ENDROOT
BRANCH   2   3
HETATM    3  C   UNL     1     -12.305   8.409  71.468  1.00  0.00    -0.343 C  
BRANCH   3   4
HETATM    4  C   UNL     1     -13.293   9.483  71.889  1.00  0.00    -0.437 C  
HETATM    5  O   UNL     1     -14.282   9.253  72.583  1.00  0.00    -0.498 OA 
BRANCH   4   6
HETATM    6  C   UNL     1     -13.009  10.889  71.466  1.00  0.00    -0.556 A  
HETATM    7  C   UNL     1     -12.219  11.108  70.324  1.00  0.00    -0.436 A  
HETATM    8  C   UNL     1     -11.932  12.401  69.818  1.00  0.00    -0.289 A  
HETATM    9  C   UNL     1     -12.469  13.476  70.551  1.00  0.00    -0.302 A  
HETATM   10  S   UNL     1     -12.261  15.180  70.123  1.00  0.00    -0.353 SA 
HETATM   11  C   UNL     1     -13.245  13.257  71.707  1.00  0.00    -0.495 A  
HETATM   12  C   UNL     1     -11.248  15.092  68.672  1.00  0.00    -0.278 A  
HETATM   13  C   UNL     1     -13.518  11.974  72.163  1.00  0.00    -0.338 A  
HETATM   14  C   UNL     1     -10.910  16.348  68.123  1.00  0.00    -0.346 A  
HETATM   15  C   UNL     1     -10.126  16.449  66.986  1.00  0.00    -0.272 A  
HETATM   16  C   UNL     1      -9.669  15.291  66.385  1.00  0.00    -0.308 A  
HETATM   17  C   UNL     1     -10.001  14.040  66.929  1.00  0.00    -0.263 A  
HETATM   18  C   UNL     1     -10.803  13.886  68.086  1.00  0.00    -0.249 A  
HETATM   19  N   UNL     1     -11.149  12.613  68.636  1.00  0.00    -0.252 NA 
BRANCH  19  20
HETATM   20  C   UNL     1     -10.712  11.390  67.922  1.00  0.00    -0.200 C  
BRANCH  20  21
HETATM   21  C   UNL     1      -9.301  10.931  68.326  1.00  0.00    -0.168 C  
BRANCH  21  22
HETATM   22  C   UNL     1      -9.295   9.515  68.905  1.00  0.00    -0.149 C  
BRANCH  22  23
HETATM   23  N   UNL     1      -8.575   8.518  68.085  1.00  0.00    -0.137 NA 
HETATM   24  C   UNL     1      -8.422   7.262  68.862  1.00  0.00    -0.126 C  
HETATM   25  C   UNL     1      -9.758   6.513  69.107  1.00  0.00    -0.136 C  
HETATM   26  N   UNL     1     -10.545   6.232  67.888  1.00  0.00    -0.230 NA 
HETATM   27  C   UNL     1     -10.615   7.432  67.025  1.00  0.00    -0.344 C  
HETATM   28  C   UNL     1      -9.977   5.099  67.158  1.00  0.00    -0.191 C  
HETATM   29  C   UNL     1      -9.271   8.174  66.827  1.00  0.00    -0.164 C  
ENDBRANCH  22  23
ENDBRANCH  21  22
ENDBRANCH  20  21
ENDBRANCH  19  20
ENDBRANCH   4   6
ENDBRANCH   3   4
ENDBRANCH   2   3
TORSDOF 7
ENDMDL
MODEL       14
REMARK 921   NORMALIZED FREE ENERGY PREDICTED BY IDOCK:   -6.36 KCAL/MOL
REMARK 922        TOTAL FREE ENERGY PREDICTED BY IDOCK:   -9.92 KCAL/MOL
REMARK 923 INTER-LIGAND FREE ENERGY PREDICTED BY IDOCK:   -9.01 KCAL/MOL
REMARK 924 INTRA-LIGAND FREE ENERGY PREDICTED BY IDOCK:   -0.92 KCAL/MOL
REMARK 927      BINDING AFFINITY PREDICTED BY RF-SCORE:    0.00 PKD
ROOT
HETATM    1  C   UNL     1     -11.930  16.467  73.139  1.00  0.00    -0.536 C  
HETATM    2  C   UNL     1     -13.380  16.132  73.454  1.00  0.00    -0.492 C  
ENDROOT
BRANCH   2   3
HETATM    3  C   UNL     1     -14.026  15.383  72.290  1.00  0.00    -0.661 C  
BRANCH   3   4
HETATM    4  C   UNL     1     -13.445  13.995  72.082  1.00  0.00    -0.475 C  
HETATM    5  O   UNL     1     -13.562  13.086  72.903  1.00  0.00    -0.501 OA 
BRANCH   4   6
HETATM    6  C   UNL     1     -12.741  13.726  70.791  1.00  0.00    -0.361 A  
HETATM    7  C   UNL     1     -12.345  12.411  70.494  1.00  0.00    -0.346 A  
HETATM    8  C   UNL     1     -11.713  12.049  69.277  1.00  0.00    -0.330 A  
HETATM    9  C   UNL     1     -11.475  13.103  68.376  1.00  0.00    -0.315 A  
HETATM   10  S   UNL     1     -10.709  12.911  66.792  1.00  0.00    -0.264 SA 
HETATM   11  C   UNL     1     -11.854  14.426  68.682  1.00  0.00    -0.366 A  
HETATM   12  C   UNL     1     -10.354  11.176  66.745  1.00  0.00    -0.241 A  
HETATM   13  C   UNL     1     -12.486  14.739  69.878  1.00  0.00    -0.283 A  
HETATM   14  C   UNL     1      -9.709  10.747  65.564  1.00  0.00    -0.290 A  
HETATM   15  C   UNL     1      -9.366   9.420  65.372  1.00  0.00    -0.311 A  
HETATM   16  C   UNL     1      -9.665   8.503  66.363  1.00  0.00    -0.328 A  
HETATM   17  C   UNL     1     -10.305   8.925  67.539  1.00  0.00    -0.328 A  
HETATM   18  C   UNL     1     -10.678  10.270  67.779  1.00  0.00    -0.275 A  
HETATM   19  N   UNL     1     -11.338  10.699  68.972  1.00  0.00    -0.263 NA 
BRANCH  19  20
HETATM   20  C   UNL     1     -11.718   9.680  69.978  1.00  0.00    -0.023 C  
BRANCH  20  21
HETATM   21  C   UNL     1     -10.631   9.453  71.044  1.00  0.00    -0.400 C  
BRANCH  21  22
HETATM   22  C   UNL     1     -10.884   8.192  71.871  1.00  0.00    -0.270 C  
BRANCH  22  23
HETATM   23  N   UNL     1     -10.056   8.080  73.090  1.00  0.00    -0.294 NA 
HETATM   24  C   UNL     1     -10.394   6.819  73.799  1.00  0.00    -0.368 C  
HETATM   25  C   UNL     1      -9.955   5.539  73.041  1.00  0.00    -0.176 C  
HETATM   26  N   UNL     1      -8.529   5.505  72.654  1.00  0.00    -0.117 NA 
HETATM   27  C   UNL     1      -8.121   6.795  72.053  1.00  0.00    -0.101 C  
HETATM   28  C   UNL     1      -7.690   5.180  73.807  1.00  0.00    -0.099 C  
HETATM   29  C   UNL     1      -8.603   8.053  72.817  1.00  0.00    -0.192 C  
ENDBRANCH  22  23
ENDBRANCH  21  22
ENDBRANCH  20  21
ENDBRANCH  19  20
ENDBRANCH   4   6
ENDBRANCH   3   4
ENDBRANCH   2   3
TORSDOF 7
ENDMDL
MODEL       15
REMARK 921   NORMALIZED FREE ENERGY PREDICTED BY IDOCK:   -6.35 KCAL/MOL
REMARK 922        TOTAL FREE ENERGY PREDICTED BY IDOCK:   -9.91 KCAL/MOL
REMARK 923 INTER-LIGAND FREE ENERGY PREDICTED BY IDOCK:   -8.89 KCAL/MOL
REMARK 924 INTRA-LIGAND FREE ENERGY PREDICTED BY IDOCK:   -1.02 KCAL/MOL
REMARK 927      BINDING AFFINITY PREDICTED BY RF-SCORE:    0.00 PKD
ROOT
HETATM    1  C   UNL     1      -7.724   8.753  64.064  1.00  0.00    -0.131 C  
HETATM    2  C   UNL     1      -8.969   9.577  63.769  1.00  0.00    -0.211 C  
ENDROOT
BRANCH   2   3
HETATM    3  C   UNL     1      -9.169  10.653  64.834  1.00  0.00    -0.252 C  
BRANCH   3   4
HETATM    4  C   UNL     1     -10.290  11.620  64.497  1.00  0.00    -0.300 C  
HETATM    5  O   UNL     1     -10.913  11.587  63.437  1.00  0.00    -0.392 OA 
BRANCH   4   6
HETATM    6  C   UNL     1     -10.671  12.625  65.536  1.00  0.00    -0.303 A  
HETATM    7  C   UNL     1     -11.179  12.172  66.766  1.00  0.00    -0.375 A  
HETATM    8  C   UNL     1     -11.525  13.043  67.830  1.00  0.00    -0.316 A  
HETATM    9  C   UNL     1     -11.355  14.416  67.573  1.00  0.00    -0.328 A  
HETATM   10  S   UNL     1     -11.707  15.702  68.737  1.00  0.00    -0.323 SA 
HETATM   11  C   UNL     1     -10.864  14.873  66.333  1.00  0.00    -0.325 A  
HETATM   12  C   UNL     1     -12.305  14.799  70.139  1.00  0.00    -0.330 A  
HETATM   13  C   UNL     1     -10.521  13.987  65.320  1.00  0.00    -0.398 A  
HETATM   14  C   UNL     1     -12.684  15.608  71.232  1.00  0.00    -0.537 A  
HETATM   15  C   UNL     1     -13.170  15.053  72.404  1.00  0.00    -0.486 A  
HETATM   16  C   UNL     1     -13.284  13.678  72.495  1.00  0.00    -0.578 A  
HETATM   17  C   UNL     1     -12.910  12.870  71.409  1.00  0.00    -0.377 A  
HETATM   18  C   UNL     1     -12.405  13.390  70.193  1.00  0.00    -0.252 A  
HETATM   19  N   UNL     1     -12.016  12.568  69.090  1.00  0.00    -0.270 NA 
BRANCH  19  20
HETATM   20  C   UNL     1     -12.072  11.096  69.249  1.00  0.00    -0.308 C  
BRANCH  20  21
HETATM   21  C   UNL     1     -10.743  10.493  69.735  1.00  0.00    -0.314 C  
BRANCH  21  22
HETATM   22  C   UNL     1     -10.788   8.966  69.800  1.00  0.00    -0.200 C  
BRANCH  22  23
HETATM   23  N   UNL     1      -9.612   8.290  69.213  1.00  0.00    -0.163 NA 
HETATM   24  C   UNL     1      -9.700   6.832  69.481  1.00  0.00    -0.150 C  
HETATM   25  C   UNL     1     -10.845   6.124  68.711  1.00  0.00    -0.336 C  
HETATM   26  N   UNL     1     -10.841   6.345  67.250  1.00  0.00    -0.345 NA 
HETATM   27  C   UNL     1     -10.631   7.777  66.940  1.00  0.00    -0.277 C  
HETATM   28  C   UNL     1      -9.820   5.519  66.607  1.00  0.00    -0.170 C  
HETATM   29  C   UNL     1      -9.501   8.461  67.749  1.00  0.00    -0.149 C  
ENDBRANCH  22  23
ENDBRANCH  21  22
ENDBRANCH  20  21
ENDBRANCH  19  20
ENDBRANCH   4   6
ENDBRANCH   3   4
ENDBRANCH   2   3
TORSDOF 7
ENDMDL
MODEL       16
REMARK 921   NORMALIZED FREE ENERGY PREDICTED BY IDOCK:   -6.34 KCAL/MOL
REMARK 922        TOTAL FREE ENERGY PREDICTED BY IDOCK:   -9.89 KCAL/MOL
REMARK 923 INTER-LIGAND FREE ENERGY PREDICTED BY IDOCK:   -9.02 KCAL/MOL
REMARK 924 INTRA-LIGAND FREE ENERGY PREDICTED BY IDOCK:   -0.87 KCAL/MOL
REMARK 927      BINDING AFFINITY PREDICTED BY RF-SCORE:    0.00 PKD
ROOT
HETATM    1  C   UNL     1     -10.613   5.087  66.233  1.00  0.00    -0.332 C  
HETATM    2  C   UNL     1     -10.910   6.103  67.326  1.00  0.00    -0.438 C  
ENDROOT
BRANCH   2   3
HETATM    3  C   UNL     1     -10.233   7.437  67.022  1.00  0.00    -0.357 C  
BRANCH   3   4
HETATM    4  C   UNL     1      -9.563   8.054  68.237  1.00  0.00    -0.146 C  
HETATM    5  O   UNL     1      -8.352   7.996  68.441  1.00  0.00    -0.125 OA 
BRANCH   4   6
HETATM    6  C   UNL     1     -10.430   8.805  69.198  1.00  0.00    -0.230 A  
HETATM    7  C   UNL     1     -10.568  10.195  69.044  1.00  0.00    -0.245 A  
HETATM    8  C   UNL     1     -11.401  10.986  69.875  1.00  0.00    -0.287 A  
HETATM    9  C   UNL     1     -12.076  10.294  70.899  1.00  0.00    -0.368 A  
HETATM   10  S   UNL     1     -13.177  11.051  72.059  1.00  0.00    -0.141 SA 
HETATM   11  C   UNL     1     -11.923   8.903  71.065  1.00  0.00    -0.307 A  
HETATM   12  C   UNL     1     -13.122  12.758  71.585  1.00  0.00    -0.331 A  
HETATM   13  C   UNL     1     -11.108   8.159  70.220  1.00  0.00    -0.221 A  
HETATM   14  C   UNL     1     -13.919  13.608  72.383  1.00  0.00    -0.651 A  
HETATM   15  C   UNL     1     -13.986  14.968  72.140  1.00  0.00    -0.610 A  
HETATM   16  C   UNL     1     -13.253  15.497  71.093  1.00  0.00    -0.576 A  
HETATM   17  C   UNL     1     -12.457  14.656  70.299  1.00  0.00    -0.401 A  
HETATM   18  C   UNL     1     -12.360  13.258  70.506  1.00  0.00    -0.316 A  
HETATM   19  N   UNL     1     -11.557  12.399  69.693  1.00  0.00    -0.281 NA 
BRANCH  19  20
HETATM   20  C   UNL     1     -10.849  12.983  68.530  1.00  0.00    -0.258 C  
BRANCH  20  21
HETATM   21  C   UNL     1     -11.779  13.258  67.336  1.00  0.00    -0.419 C  
BRANCH  21  22
HETATM   22  C   UNL     1     -11.093  12.998  65.994  1.00  0.00    -0.278 C  
BRANCH  22  23
HETATM   23  N   UNL     1     -11.480  11.729  65.341  1.00  0.00    -0.234 NA 
HETATM   24  C   UNL     1     -11.551  11.935  63.873  1.00  0.00    -0.425 C  
HETATM   25  C   UNL     1     -10.173  12.185  63.208  1.00  0.00    -0.301 C  
HETATM   26  N   UNL     1      -9.147  11.161  63.501  1.00  0.00    -0.161 NA 
HETATM   27  C   UNL     1      -9.131  10.837  64.945  1.00  0.00    -0.198 C  
HETATM   28  C   UNL     1      -9.379   9.958  62.701  1.00  0.00    -0.218 C  
HETATM   29  C   UNL     1     -10.526  10.626  65.583  1.00  0.00    -0.165 C  
ENDBRANCH  22  23
ENDBRANCH  21  22
ENDBRANCH  20  21
ENDBRANCH  19  20
ENDBRANCH   4   6
ENDBRANCH   3   4
ENDBRANCH   2   3
TORSDOF 7
ENDMDL
MODEL       17
REMARK 921   NORMALIZED FREE ENERGY PREDICTED BY IDOCK:   -6.33 KCAL/MOL
REMARK 922        TOTAL FREE ENERGY PREDICTED BY IDOCK:   -9.88 KCAL/MOL
REMARK 923 INTER-LIGAND FREE ENERGY PREDICTED BY IDOCK:   -9.15 KCAL/MOL
REMARK 924 INTRA-LIGAND FREE ENERGY PREDICTED BY IDOCK:   -0.72 KCAL/MOL
REMARK 927      BINDING AFFINITY PREDICTED BY RF-SCORE:    0.00 PKD
ROOT
HETATM    1  C   UNL     1     -10.593   5.504  66.588  1.00  0.00    -0.365 C  
HETATM    2  C   UNL     1      -9.707   6.717  66.826  1.00  0.00    -0.222 C  
ENDROOT
BRANCH   2   3
HETATM    3  C   UNL     1     -10.547   7.934  67.205  1.00  0.00    -0.383 C  
BRANCH   3   4
HETATM    4  C   UNL     1     -10.245   9.154  66.352  1.00  0.00    -0.230 C  
HETATM    5  O   UNL     1      -9.751   9.085  65.228  1.00  0.00    -0.079 OA 
BRANCH   4   6
HETATM    6  C   UNL     1     -10.616  10.493  66.905  1.00  0.00    -0.303 A  
HETATM    7  C   UNL     1     -11.267  10.558  68.149  1.00  0.00    -0.357 A  
HETATM    8  C   UNL     1     -11.618  11.780  68.777  1.00  0.00    -0.307 A  
HETATM    9  C   UNL     1     -11.295  12.948  68.060  1.00  0.00    -0.292 A  
HETATM   10  S   UNL     1     -11.621  14.591  68.630  1.00  0.00    -0.331 SA 
HETATM   11  C   UNL     1     -10.660  12.883  66.805  1.00  0.00    -0.268 A  
HETATM   12  C   UNL     1     -12.420  14.308  70.186  1.00  0.00    -0.335 A  
HETATM   13  C   UNL     1     -10.318  11.667  66.228  1.00  0.00    -0.273 A  
HETATM   14  C   UNL     1     -12.812  15.486  70.860  1.00  0.00    -0.535 A  
HETATM   15  C   UNL     1     -13.446  15.434  72.090  1.00  0.00    -0.570 A  
HETATM   16  C   UNL     1     -13.698  14.199  72.660  1.00  0.00    -0.568 A  
HETATM   17  C   UNL     1     -13.312  13.026  71.992  1.00  0.00    -0.588 A  
HETATM   18  C   UNL     1     -12.658  13.029  70.736  1.00  0.00    -0.241 A  
HETATM   19  N   UNL     1     -12.257  11.835  70.059  1.00  0.00    -0.271 NA 
BRANCH  19  20
HETATM   20  C   UNL     1     -12.467  10.533  70.733  1.00  0.00    -0.378 C  
BRANCH  20  21
HETATM   21  C   UNL     1     -11.171   9.942  71.316  1.00  0.00    -0.356 C  
BRANCH  21  22
HETATM   22  C   UNL     1     -11.398   8.578  71.968  1.00  0.00    -0.355 C  
BRANCH  22  23
HETATM   23  N   UNL     1     -10.207   8.008  72.632  1.00  0.00    -0.291 NA 
HETATM   24  C   UNL     1     -10.638   7.001  73.634  1.00  0.00    -0.345 C  
HETATM   25  C   UNL     1     -11.252   5.721  73.009  1.00  0.00    -0.246 C  
HETATM   26  N   UNL     1     -10.407   5.058  71.995  1.00  0.00    -0.210 NA 
HETATM   27  C   UNL     1      -9.855   6.051  71.046  1.00  0.00    -0.183 C  
HETATM   28  C   UNL     1      -9.333   4.299  72.636  1.00  0.00    -0.122 C  
HETATM   29  C   UNL     1      -9.279   7.330  71.701  1.00  0.00    -0.146 C  
ENDBRANCH  22  23
ENDBRANCH  21  22
ENDBRANCH  20  21
ENDBRANCH  19  20
ENDBRANCH   4   6
ENDBRANCH   3   4
ENDBRANCH   2   3
TORSDOF 7
ENDMDL
MODEL       18
REMARK 921   NORMALIZED FREE ENERGY PREDICTED BY IDOCK:   -6.31 KCAL/MOL
REMARK 922        TOTAL FREE ENERGY PREDICTED BY IDOCK:   -9.84 KCAL/MOL
REMARK 923 INTER-LIGAND FREE ENERGY PREDICTED BY IDOCK:   -8.99 KCAL/MOL
REMARK 924 INTRA-LIGAND FREE ENERGY PREDICTED BY IDOCK:   -0.85 KCAL/MOL
REMARK 927      BINDING AFFINITY PREDICTED BY RF-SCORE:    0.00 PKD
ROOT
HETATM    1  C   UNL     1     -10.494   4.772  65.901  1.00  0.00    -0.313 C  
HETATM    2  C   UNL     1      -9.425   4.643  66.976  1.00  0.00    -0.175 C  
ENDROOT
BRANCH   2   3
HETATM    3  C   UNL     1      -9.504   5.808  67.959  1.00  0.00    -0.116 C  
BRANCH   3   4
HETATM    4  C   UNL     1     -10.085   5.411  69.305  1.00  0.00    -0.231 C  
HETATM    5  O   UNL     1      -9.919   4.302  69.809  1.00  0.00    -0.222 OA 
BRANCH   4   6
HETATM    6  C   UNL     1     -10.854   6.449  70.059  1.00  0.00    -0.366 A  
HETATM    7  C   UNL     1     -10.714   7.798  69.693  1.00  0.00    -0.223 A  
HETATM    8  C   UNL     1     -11.435   8.848  70.316  1.00  0.00    -0.105 A  
HETATM    9  C   UNL     1     -12.296   8.461  71.359  1.00  0.00    -0.299 A  
HETATM   10  S   UNL     1     -13.307   9.579  72.287  1.00  0.00    -0.392 SA 
HETATM   11  C   UNL     1     -12.423   7.111  71.740  1.00  0.00    -0.385 A  
HETATM   12  C   UNL     1     -12.895  11.150  71.577  1.00  0.00    -0.437 A  
HETATM   13  C   UNL     1     -11.711   6.107  71.095  1.00  0.00    -0.201 A  
HETATM   14  C   UNL     1     -13.567  12.245  72.163  1.00  0.00    -0.348 A  
HETATM   15  C   UNL     1     -13.356  13.539  71.719  1.00  0.00    -0.480 A  
HETATM   16  C   UNL     1     -12.467  13.753  70.682  1.00  0.00    -0.429 A  
HETATM   17  C   UNL     1     -11.796  12.667  70.099  1.00  0.00    -0.326 A  
HETATM   18  C   UNL     1     -11.981  11.326  70.515  1.00  0.00    -0.371 A  
HETATM   19  N   UNL     1     -11.304  10.219  69.916  1.00  0.00    -0.271 NA 
BRANCH  19  20
HETATM   20  C   UNL     1     -10.421  10.472  68.754  1.00  0.00    -0.196 C  
BRANCH  20  21
HETATM   21  C   UNL     1     -11.149  10.339  67.405  1.00  0.00    -0.261 C  
BRANCH  21  22
HETATM   22  C   UNL     1     -10.908  11.543  66.495  1.00  0.00    -0.288 C  
BRANCH  22  23
HETATM   23  N   UNL     1     -12.115  12.347  66.206  1.00  0.00    -0.630 NA 
HETATM   24  C   UNL     1     -11.929  13.720  66.742  1.00  0.00    -0.426 C  
HETATM   25  C   UNL     1     -10.853  14.545  65.989  1.00  0.00    -0.310 C  
HETATM   26  N   UNL     1     -11.042  14.622  64.525  1.00  0.00    -0.308 NA 
HETATM   27  C   UNL     1     -11.353  13.287  63.969  1.00  0.00    -0.363 C  
HETATM   28  C   UNL     1     -12.094  15.582  64.192  1.00  0.00    -0.045 C  
HETATM   29  C   UNL     1     -12.407  12.477  64.763  1.00  0.00    -0.474 C  
ENDBRANCH  22  23
ENDBRANCH  21  22
ENDBRANCH  20  21
ENDBRANCH  19  20
ENDBRANCH   4   6
ENDBRANCH   3   4
ENDBRANCH   2   3
TORSDOF 7
ENDMDL
MODEL       19
REMARK 921   NORMALIZED FREE ENERGY PREDICTED BY IDOCK:   -6.28 KCAL/MOL
REMARK 922        TOTAL FREE ENERGY PREDICTED BY IDOCK:   -9.81 KCAL/MOL
REMARK 923 INTER-LIGAND FREE ENERGY PREDICTED BY IDOCK:   -8.85 KCAL/MOL
REMARK 924 INTRA-LIGAND FREE ENERGY PREDICTED BY IDOCK:   -0.96 KCAL/MOL
REMARK 927      BINDING AFFINITY PREDICTED BY RF-SCORE:    0.00 PKD
ROOT
HETATM    1  C   UNL     1      -6.499   9.534  64.663  1.00  0.00    -0.089 C  
HETATM    2  C   UNL     1      -7.143  10.109  63.411  1.00  0.00    -0.122 C  
ENDROOT
BRANCH   2   3
HETATM    3  C   UNL     1      -8.616   9.714  63.332  1.00  0.00    -0.213 C  
BRANCH   3   4
HETATM    4  C   UNL     1      -9.556  10.852  63.691  1.00  0.00    -0.302 C  
HETATM    5  O   UNL     1      -9.972  11.667  62.870  1.00  0.00    -0.341 OA 
BRANCH   4   6
HETATM    6  C   UNL     1     -10.022  10.941  65.109  1.00  0.00    -0.341 A  
HETATM    7  C   UNL     1     -10.412  12.191  65.619  1.00  0.00    -0.290 A  
HETATM    8  C   UNL     1     -10.911  12.370  66.934  1.00  0.00    -0.265 A  
HETATM    9  C   UNL     1     -10.972  11.209  67.726  1.00  0.00    -0.262 A  
HETATM   10  S   UNL     1     -11.562  11.166  69.394  1.00  0.00    -0.349 SA 
HETATM   11  C   UNL     1     -10.563   9.958  67.222  1.00  0.00    -0.316 A  
HETATM   12  C   UNL     1     -11.963  12.864  69.704  1.00  0.00    -0.292 A  
HETATM   13  C   UNL     1     -10.094   9.820  65.922  1.00  0.00    -0.314 A  
HETATM   14  C   UNL     1     -12.453  13.117  71.004  1.00  0.00    -0.406 A  
HETATM   15  C   UNL     1     -12.813  14.393  71.401  1.00  0.00    -0.410 A  
HETATM   16  C   UNL     1     -12.687  15.434  70.500  1.00  0.00    -0.455 A  
HETATM   17  C   UNL     1     -12.199  15.187  69.207  1.00  0.00    -0.212 A  
HETATM   18  C   UNL     1     -11.821  13.900  68.754  1.00  0.00    -0.361 A  
HETATM   19  N   UNL     1     -11.332  13.646  67.435  1.00  0.00    -0.302 NA 
BRANCH  19  20
HETATM   20  C   UNL     1     -11.286  14.767  66.468  1.00  0.00    -0.342 C  
BRANCH  20  21
HETATM   21  C   UNL     1      -9.904  15.440  66.394  1.00  0.00    -0.301 C  
BRANCH  21  22
HETATM   22  C   UNL     1      -9.965  16.929  66.737  1.00  0.00    -0.289 C  
BRANCH  22  23
HETATM   23  N   UNL     1      -8.896  17.746  66.125  1.00  0.00    -0.489 NA 
HETATM   24  C   UNL     1      -9.187  19.184  66.351  1.00  0.00    -0.343 C  
HETATM   25  C   UNL     1      -9.063  19.622  67.834  1.00  0.00    -0.327 C  
HETATM   26  N   UNL     1      -7.773  19.286  68.474  1.00  0.00    -0.332 NA 
HETATM   27  C   UNL     1      -7.387  17.891  68.167  1.00  0.00    -0.241 C  
HETATM   28  C   UNL     1      -6.730  20.220  68.051  1.00  0.00    -0.295 C  
HETATM   29  C   UNL     1      -7.554  17.477  66.685  1.00  0.00    -0.251 C  
ENDBRANCH  22  23
ENDBRANCH  21  22
ENDBRANCH  20  21
ENDBRANCH  19  20
ENDBRANCH   4   6
ENDBRANCH   3   4
ENDBRANCH   2   3
TORSDOF 7
ENDMDL
MODEL       20
REMARK 921   NORMALIZED FREE ENERGY PREDICTED BY IDOCK:   -6.25 KCAL/MOL
REMARK 922        TOTAL FREE ENERGY PREDICTED BY IDOCK:   -9.77 KCAL/MOL
REMARK 923 INTER-LIGAND FREE ENERGY PREDICTED BY IDOCK:   -8.66 KCAL/MOL
REMARK 924 INTRA-LIGAND FREE ENERGY PREDICTED BY IDOCK:   -1.11 KCAL/MOL
REMARK 927      BINDING AFFINITY PREDICTED BY RF-SCORE:    0.00 PKD
ROOT
HETATM    1  C   UNL     1      -9.612   8.621  71.617  1.00  0.00    -0.344 C  
HETATM    2  C   UNL     1     -10.913   8.249  72.315  1.00  0.00    -0.418 C  
ENDROOT
BRANCH   2   3
HETATM    3  C   UNL     1     -12.094   8.373  71.356  1.00  0.00    -0.337 C  
BRANCH   3   4
HETATM    4  C   UNL     1     -13.051   9.491  71.733  1.00  0.00    -0.418 C  
HETATM    5  O   UNL     1     -14.023   9.325  72.469  1.00  0.00    -0.459 OA 
BRANCH   4   6
HETATM    6  C   UNL     1     -12.755  10.860  71.211  1.00  0.00    -0.542 A  
HETATM    7  C   UNL     1     -12.131  10.989  69.959  1.00  0.00    -0.441 A  
HETATM    8  C   UNL     1     -11.851  12.244  69.359  1.00  0.00    -0.310 A  
HETATM    9  C   UNL     1     -12.215  13.375  70.113  1.00  0.00    -0.315 A  
HETATM   10  S   UNL     1     -11.978  15.047  69.584  1.00  0.00    -0.315 SA 
HETATM   11  C   UNL     1     -12.823  13.246  71.378  1.00  0.00    -0.411 A  
HETATM   12  C   UNL     1     -11.196  14.844  68.007  1.00  0.00    -0.308 A  
HETATM   13  C   UNL     1     -13.096  11.999  71.926  1.00  0.00    -0.475 A  
HETATM   14  C   UNL     1     -10.874  16.057  67.359  1.00  0.00    -0.277 A  
HETATM   15  C   UNL     1     -10.261  16.069  66.118  1.00  0.00    -0.340 A  
HETATM   16  C   UNL     1      -9.961  14.864  65.509  1.00  0.00    -0.392 A  
HETATM   17  C   UNL     1     -10.279  13.656  66.151  1.00  0.00    -0.306 A  
HETATM   18  C   UNL     1     -10.908  13.593  67.418  1.00  0.00    -0.273 A  
HETATM   19  N   UNL     1     -11.240  12.364  68.068  1.00  0.00    -0.248 NA 
BRANCH  19  20
HETATM   20  C   UNL     1     -10.980  11.092  67.354  1.00  0.00    -0.290 C  
BRANCH  20  21
HETATM   21  C   UNL     1      -9.505  10.659  67.415  1.00  0.00    -0.172 C  
BRANCH  21  22
HETATM   22  C   UNL     1      -9.350   9.178  67.763  1.00  0.00    -0.136 C  
BRANCH  22  23
HETATM   23  N   UNL     1     -10.014   8.252  66.821  1.00  0.00    -0.261 NA 
HETATM   24  C   UNL     1      -8.986   7.581  65.986  1.00  0.00    -0.127 C  
HETATM   25  C   UNL     1      -8.090   6.589  66.773  1.00  0.00    -0.109 C  
HETATM   26  N   UNL     1      -8.827   5.565  67.543  1.00  0.00    -0.107 NA 
HETATM   27  C   UNL     1      -9.942   6.181  68.296  1.00  0.00    -0.143 C  
HETATM   28  C   UNL     1      -9.317   4.509  66.657  1.00  0.00    -0.149 C  
HETATM   29  C   UNL     1     -10.796   7.190  67.489  1.00  0.00    -0.241 C  
ENDBRANCH  22  23
ENDBRANCH  21  22
ENDBRANCH  20  21
ENDBRANCH  19  20
ENDBRANCH   4   6
ENDBRANCH   3   4
ENDBRANCH   2   3
TORSDOF 7
ENDMDL
MODEL       21
REMARK 921   NORMALIZED FREE ENERGY PREDICTED BY IDOCK:   -6.25 KCAL/MOL
REMARK 922        TOTAL FREE ENERGY PREDICTED BY IDOCK:   -9.76 KCAL/MOL
REMARK 923 INTER-LIGAND FREE ENERGY PREDICTED BY IDOCK:   -8.84 KCAL/MOL
REMARK 924 INTRA-LIGAND FREE ENERGY PREDICTED BY IDOCK:   -0.92 KCAL/MOL
REMARK 927      BINDING AFFINITY PREDICTED BY RF-SCORE:    0.00 PKD
ROOT
HETATM    1  C   UNL     1     -10.566  11.181  64.700  1.00  0.00    -0.386 C  
HETATM    2  C   UNL     1      -9.597  10.010  64.645  1.00  0.00    -0.363 C  
ENDROOT
BRANCH   2   3
HETATM    3  C   UNL     1      -8.794   9.913  65.940  1.00  0.00    -0.171 C  
BRANCH   3   4
HETATM    4  C   UNL     1      -9.340   8.872  66.902  1.00  0.00    -0.168 C  
HETATM    5  O   UNL     1      -9.124   7.667  66.784  1.00  0.00    -0.137 OA 
BRANCH   4   6
HETATM    6  C   UNL     1     -10.139   9.359  68.068  1.00  0.00    -0.230 A  
HETATM    7  C   UNL     1     -10.468  10.724  68.143  1.00  0.00    -0.214 A  
HETATM    8  C   UNL     1     -11.260  11.273  69.184  1.00  0.00    -0.273 A  
HETATM    9  C   UNL     1     -11.684  10.365  70.171  1.00  0.00    -0.312 A  
HETATM   10  S   UNL     1     -12.684  10.800  71.565  1.00  0.00    -0.418 SA 
HETATM   11  C   UNL     1     -11.338   9.000  70.107  1.00  0.00    -0.139 A  
HETATM   12  C   UNL     1     -12.910  12.544  71.347  1.00  0.00    -0.260 A  
HETATM   13  C   UNL     1     -10.574   8.496  69.062  1.00  0.00    -0.173 A  
HETATM   14  C   UNL     1     -13.678  13.160  72.360  1.00  0.00    -0.640 A  
HETATM   15  C   UNL     1     -13.947  14.518  72.333  1.00  0.00    -0.580 A  
HETATM   16  C   UNL     1     -13.448  15.277  71.291  1.00  0.00    -0.591 A  
HETATM   17  C   UNL     1     -12.683  14.668  70.283  1.00  0.00    -0.323 A  
HETATM   18  C   UNL     1     -12.385  13.284  70.265  1.00  0.00    -0.264 A  
HETATM   19  N   UNL     1     -11.613  12.662  69.236  1.00  0.00    -0.303 NA 
BRANCH  19  20
HETATM   20  C   UNL     1     -11.162  13.487  68.090  1.00  0.00    -0.272 C  
BRANCH  20  21
HETATM   21  C   UNL     1      -9.745  14.055  68.280  1.00  0.00    -0.225 C  
BRANCH  21  22
HETATM   22  C   UNL     1      -9.372  15.058  67.189  1.00  0.00    -0.215 C  
BRANCH  22  23
HETATM   23  N   UNL     1      -8.646  16.252  67.673  1.00  0.00    -0.172 NA 
HETATM   24  C   UNL     1      -8.685  17.307  66.628  1.00  0.00    -0.257 C  
HETATM   25  C   UNL     1     -10.096  17.909  66.399  1.00  0.00    -0.369 C  
HETATM   26  N   UNL     1     -10.760  18.415  67.618  1.00  0.00    -0.409 NA 
HETATM   27  C   UNL     1     -10.635  17.439  68.724  1.00  0.00    -0.283 C  
HETATM   28  C   UNL     1     -10.206  19.713  68.005  1.00  0.00    -0.457 C  
HETATM   29  C   UNL     1      -9.221  16.834  68.904  1.00  0.00    -0.234 C  
ENDBRANCH  22  23
ENDBRANCH  21  22
ENDBRANCH  20  21
ENDBRANCH  19  20
ENDBRANCH   4   6
ENDBRANCH   3   4
ENDBRANCH   2   3
TORSDOF 7
ENDMDL
MODEL       22
REMARK 921   NORMALIZED FREE ENERGY PREDICTED BY IDOCK:   -6.20 KCAL/MOL
REMARK 922        TOTAL FREE ENERGY PREDICTED BY IDOCK:   -9.70 KCAL/MOL
REMARK 923 INTER-LIGAND FREE ENERGY PREDICTED BY IDOCK:   -8.80 KCAL/MOL
REMARK 924 INTRA-LIGAND FREE ENERGY PREDICTED BY IDOCK:   -0.90 KCAL/MOL
REMARK 927      BINDING AFFINITY PREDICTED BY RF-SCORE:    0.00 PKD
ROOT
HETATM    1  C   UNL     1     -13.885  15.523  72.459  1.00  0.00    -0.669 C  
HETATM    2  C   UNL     1     -13.946  14.619  71.237  1.00  0.00    -0.400 C  
ENDROOT
BRANCH   2   3
HETATM    3  C   UNL     1     -12.656  13.814  71.097  1.00  0.00    -0.452 C  
BRANCH   3   4
HETATM    4  C   UNL     1     -11.560  14.569  70.365  1.00  0.00    -0.248 C  
HETATM    5  O   UNL     1     -10.809  15.369  70.919  1.00  0.00    -0.323 OA 
BRANCH   4   6
HETATM    6  C   UNL     1     -11.373  14.277  68.910  1.00  0.00    -0.302 A  
HETATM    7  C   UNL     1     -10.724  13.088  68.534  1.00  0.00    -0.275 A  
HETATM    8  C   UNL     1     -10.540  12.702  67.182  1.00  0.00    -0.236 A  
HETATM    9  C   UNL     1     -11.027  13.604  66.218  1.00  0.00    -0.299 A  
HETATM   10  S   UNL     1     -10.926  13.348  64.470  1.00  0.00    -0.399 SA 
HETATM   11  C   UNL     1     -11.660  14.805  66.595  1.00  0.00    -0.319 A  
HETATM   12  C   UNL     1     -10.080  11.796  64.356  1.00  0.00    -0.282 A  
HETATM   13  C   UNL     1     -11.837  15.142  67.931  1.00  0.00    -0.192 A  
HETATM   14  C   UNL     1      -9.848  11.357  63.034  1.00  0.00    -0.373 A  
HETATM   15  C   UNL     1      -9.200  10.161  62.776  1.00  0.00    -0.322 A  
HETATM   16  C   UNL     1      -8.775   9.388  63.841  1.00  0.00    -0.225 A  
HETATM   17  C   UNL     1      -9.002   9.822  65.157  1.00  0.00    -0.237 A  
HETATM   18  C   UNL     1      -9.662  11.035  65.471  1.00  0.00    -0.229 A  
HETATM   19  N   UNL     1      -9.901  11.473  66.810  1.00  0.00    -0.200 NA 
BRANCH  19  20
HETATM   20  C   UNL     1      -9.507  10.585  67.928  1.00  0.00    -0.147 C  
BRANCH  20  21
HETATM   21  C   UNL     1     -10.616   9.599  68.332  1.00  0.00    -0.264 C  
BRANCH  21  22
HETATM   22  C   UNL     1     -10.883   9.612  69.838  1.00  0.00    -0.256 C  
BRANCH  22  23
HETATM   23  N   UNL     1     -10.068   8.655  70.615  1.00  0.00    -0.191 NA 
HETATM   24  C   UNL     1     -10.476   8.710  72.042  1.00  0.00    -0.352 C  
HETATM   25  C   UNL     1     -11.897   8.149  72.308  1.00  0.00    -0.382 C  
HETATM   26  N   UNL     1     -12.133   6.784  71.792  1.00  0.00    -0.337 NA 
HETATM   27  C   UNL     1     -11.625   6.655  70.408  1.00  0.00    -0.398 C  
HETATM   28  C   UNL     1     -11.515   5.789  72.667  1.00  0.00    -0.287 C  
HETATM   29  C   UNL     1     -10.217   7.254  70.170  1.00  0.00    -0.203 C  
ENDBRANCH  22  23
ENDBRANCH  21  22
ENDBRANCH  20  21
ENDBRANCH  19  20
ENDBRANCH   4   6
ENDBRANCH   3   4
ENDBRANCH   2   3
TORSDOF 7
ENDMDL
MODEL       23
REMARK 921   NORMALIZED FREE ENERGY PREDICTED BY IDOCK:   -6.18 KCAL/MOL
REMARK 922        TOTAL FREE ENERGY PREDICTED BY IDOCK:   -9.67 KCAL/MOL
REMARK 923 INTER-LIGAND FREE ENERGY PREDICTED BY IDOCK:   -8.76 KCAL/MOL
REMARK 924 INTRA-LIGAND FREE ENERGY PREDICTED BY IDOCK:   -0.90 KCAL/MOL
REMARK 927      BINDING AFFINITY PREDICTED BY RF-SCORE:    0.00 PKD
ROOT
HETATM    1  C   UNL     1      -9.392   8.850  71.639  1.00  0.00    -0.328 C  
HETATM    2  C   UNL     1     -10.767   8.402  72.113  1.00  0.00    -0.407 C  
ENDROOT
BRANCH   2   3
HETATM    3  C   UNL     1     -11.836   8.762  71.084  1.00  0.00    -0.345 C  
BRANCH   3   4
HETATM    4  C   UNL     1     -12.845   9.771  71.604  1.00  0.00    -0.421 C  
HETATM    5  O   UNL     1     -13.789   9.466  72.331  1.00  0.00    -0.451 OA 
BRANCH   4   6
HETATM    6  C   UNL     1     -12.636  11.207  71.241  1.00  0.00    -0.503 A  
HETATM    7  C   UNL     1     -11.858  11.516  70.113  1.00  0.00    -0.440 A  
HETATM    8  C   UNL     1     -11.640  12.843  69.663  1.00  0.00    -0.248 A  
HETATM    9  C   UNL     1     -12.236  13.855  70.437  1.00  0.00    -0.368 A  
HETATM   10  S   UNL     1     -12.120  15.585  70.081  1.00  0.00    -0.370 SA 
HETATM   11  C   UNL     1     -13.001  13.547  71.580  1.00  0.00    -0.440 A  
HETATM   12  C   UNL     1     -11.101  15.612  68.632  1.00  0.00    -0.317 A  
HETATM   13  C   UNL     1     -13.205  12.233  71.981  1.00  0.00    -0.508 A  
HETATM   14  C   UNL     1     -10.831  16.907  68.137  1.00  0.00    -0.351 A  
HETATM   15  C   UNL     1     -10.051  17.097  67.009  1.00  0.00    -0.297 A  
HETATM   16  C   UNL     1      -9.531  15.992  66.362  1.00  0.00    -0.322 A  
HETATM   17  C   UNL     1      -9.796  14.703  66.852  1.00  0.00    -0.252 A  
HETATM   18  C   UNL     1     -10.590  14.458  67.999  1.00  0.00    -0.241 A  
HETATM   19  N   UNL     1     -10.867  13.146  68.494  1.00  0.00    -0.255 NA 
BRANCH  19  20
HETATM   20  C   UNL     1     -10.364  11.979  67.732  1.00  0.00    -0.197 C  
BRANCH  20  21
HETATM   21  C   UNL     1     -11.173  11.702  66.453  1.00  0.00    -0.349 C  
BRANCH  21  22
HETATM   22  C   UNL     1     -10.278  11.528  65.226  1.00  0.00    -0.267 C  
BRANCH  22  23
HETATM   23  N   UNL     1     -10.191  10.142  64.719  1.00  0.00    -0.204 NA 
HETATM   24  C   UNL     1      -9.383  10.125  63.473  1.00  0.00    -0.290 C  
HETATM   25  C   UNL     1      -7.881  10.438  63.697  1.00  0.00    -0.072 C  
HETATM   26  N   UNL     1      -7.215   9.595  64.712  1.00  0.00    -0.113 NA 
HETATM   27  C   UNL     1      -8.052   9.486  65.929  1.00  0.00    -0.115 C  
HETATM   28  C   UNL     1      -6.918   8.271  64.166  1.00  0.00    -0.077 C  
HETATM   29  C   UNL     1      -9.552   9.205  65.668  1.00  0.00    -0.217 C  
ENDBRANCH  22  23
ENDBRANCH  21  22
ENDBRANCH  20  21
ENDBRANCH  19  20
ENDBRANCH   4   6
ENDBRANCH   3   4
ENDBRANCH   2   3
TORSDOF 7
ENDMDL
MODEL       24
REMARK 921   NORMALIZED FREE ENERGY PREDICTED BY IDOCK:   -6.18 KCAL/MOL
REMARK 922        TOTAL FREE ENERGY PREDICTED BY IDOCK:   -9.66 KCAL/MOL
REMARK 923 INTER-LIGAND FREE ENERGY PREDICTED BY IDOCK:   -8.71 KCAL/MOL
REMARK 924 INTRA-LIGAND FREE ENERGY PREDICTED BY IDOCK:   -0.95 KCAL/MOL
REMARK 927      BINDING AFFINITY PREDICTED BY RF-SCORE:    0.00 PKD
ROOT
HETATM    1  C   UNL     1     -10.349  19.299  66.109  1.00  0.00    -0.578 C  
HETATM    2  C   UNL     1      -9.888  20.248  67.204  1.00  0.00    -0.606 C  
ENDROOT
BRANCH   2   3
HETATM    3  C   UNL     1      -9.592  19.483  68.492  1.00  0.00    -0.476 C  
BRANCH   3   4
HETATM    4  C   UNL     1      -8.153  19.006  68.581  1.00  0.00    -0.361 C  
HETATM    5  O   UNL     1      -7.195  19.770  68.689  1.00  0.00    -0.322 OA 
BRANCH   4   6
HETATM    6  C   UNL     1      -7.913  17.530  68.583  1.00  0.00    -0.268 A  
HETATM    7  C   UNL     1      -8.984  16.668  68.293  1.00  0.00    -0.214 A  
HETATM    8  C   UNL     1      -8.846  15.258  68.225  1.00  0.00    -0.171 A  
HETATM    9  C   UNL     1      -7.559  14.757  68.496  1.00  0.00    -0.120 A  
HETATM   10  S   UNL     1      -7.128  13.041  68.469  1.00  0.00    -0.110 SA 
HETATM   11  C   UNL     1      -6.489  15.620  68.806  1.00  0.00    -0.109 A  
HETATM   12  C   UNL     1      -8.670  12.263  68.074  1.00  0.00    -0.181 A  
HETATM   13  C   UNL     1      -6.659  16.998  68.848  1.00  0.00    -0.196 A  
HETATM   14  C   UNL     1      -8.609  10.854  68.006  1.00  0.00    -0.131 A  
HETATM   15  C   UNL     1      -9.729  10.099  67.706  1.00  0.00    -0.176 A  
HETATM   16  C   UNL     1     -10.928  10.746  67.472  1.00  0.00    -0.372 A  
HETATM   17  C   UNL     1     -10.994  12.147  67.540  1.00  0.00    -0.304 A  
HETATM   18  C   UNL     1      -9.875  12.962  67.839  1.00  0.00    -0.227 A  
HETATM   19  N   UNL     1      -9.939  14.389  67.901  1.00  0.00    -0.225 NA 
BRANCH  19  20
HETATM   20  C   UNL     1     -11.218  15.056  67.564  1.00  0.00    -0.330 C  
BRANCH  20  21
HETATM   21  C   UNL     1     -11.852  15.780  68.765  1.00  0.00    -0.321 C  
BRANCH  21  22
HETATM   22  C   UNL     1     -12.785  14.871  69.563  1.00  0.00     0.124 C  
BRANCH  22  23
HETATM   23  N   UNL     1     -12.143  14.174  70.698  1.00  0.00    -0.334 NA 
HETATM   24  C   UNL     1     -11.215  15.108  71.386  1.00  0.00    -0.264 C  
HETATM   25  C   UNL     1     -11.931  16.263  72.133  1.00  0.00    -0.494 C  
HETATM   26  N   UNL     1     -12.975  15.833  73.087  1.00  0.00    -0.494 NA 
HETATM   27  C   UNL     1     -13.848  14.806  72.476  1.00  0.00    -0.458 C  
HETATM   28  C   UNL     1     -12.370  15.332  74.321  1.00  0.00    -0.612 C  
HETATM   29  C   UNL     1     -13.103  13.685  71.711  1.00  0.00    -0.382 C  
ENDBRANCH  22  23
ENDBRANCH  21  22
ENDBRANCH  20  21
ENDBRANCH  19  20
ENDBRANCH   4   6
ENDBRANCH   3   4
ENDBRANCH   2   3
TORSDOF 7
ENDMDL
MODEL       25
REMARK 921   NORMALIZED FREE ENERGY PREDICTED BY IDOCK:   -6.17 KCAL/MOL
REMARK 922        TOTAL FREE ENERGY PREDICTED BY IDOCK:   -9.65 KCAL/MOL
REMARK 923 INTER-LIGAND FREE ENERGY PREDICTED BY IDOCK:   -9.17 KCAL/MOL
REMARK 924 INTRA-LIGAND FREE ENERGY PREDICTED BY IDOCK:   -0.49 KCAL/MOL
REMARK 927      BINDING AFFINITY PREDICTED BY RF-SCORE:    0.00 PKD
ROOT
HETATM    1  C   UNL     1     -10.222   5.073  66.104  1.00  0.00    -0.288 C  
HETATM    2  C   UNL     1     -10.655   6.007  67.224  1.00  0.00    -0.367 C  
ENDROOT
BRANCH   2   3
HETATM    3  C   UNL     1     -10.194   7.436  66.945  1.00  0.00    -0.346 C  
BRANCH   3   4
HETATM    4  C   UNL     1      -9.549   8.098  68.150  1.00  0.00    -0.149 C  
HETATM    5  O   UNL     1      -8.335   8.101  68.347  1.00  0.00    -0.124 OA 
BRANCH   4   6
HETATM    6  C   UNL     1     -10.446   8.815  69.107  1.00  0.00    -0.230 A  
HETATM    7  C   UNL     1     -10.576  10.211  69.001  1.00  0.00    -0.245 A  
HETATM    8  C   UNL     1     -11.436  10.974  69.831  1.00  0.00    -0.320 A  
HETATM    9  C   UNL     1     -12.146  10.247  70.805  1.00  0.00    -0.353 A  
HETATM   10  S   UNL     1     -13.284  10.965  71.954  1.00  0.00    -0.271 SA 
HETATM   11  C   UNL     1     -12.002   8.851  70.924  1.00  0.00    -0.254 A  
HETATM   12  C   UNL     1     -13.210  12.687  71.545  1.00  0.00    -0.221 A  
HETATM   13  C   UNL     1     -11.161   8.135  70.082  1.00  0.00    -0.187 A  
HETATM   14  C   UNL     1     -14.032  13.510  72.346  1.00  0.00    -0.638 A  
HETATM   15  C   UNL     1     -14.088  14.879  72.151  1.00  0.00    -0.616 A  
HETATM   16  C   UNL     1     -13.318  15.443  71.150  1.00  0.00    -0.580 A  
HETATM   17  C   UNL     1     -12.498  14.629  70.353  1.00  0.00    -0.410 A  
HETATM   18  C   UNL     1     -12.410  13.225  70.512  1.00  0.00    -0.316 A  
HETATM   19  N   UNL     1     -11.582  12.393  69.696  1.00  0.00    -0.281 NA 
BRANCH  19  20
HETATM   20  C   UNL     1     -10.833  13.017  68.580  1.00  0.00    -0.258 C  
BRANCH  20  21
HETATM   21  C   UNL     1     -11.668  13.145  67.293  1.00  0.00    -0.425 C  
BRANCH  21  22
HETATM   22  C   UNL     1     -11.636  14.562  66.720  1.00  0.00    -0.376 C  
BRANCH  22  23
HETATM   23  N   UNL     1     -10.535  14.816  65.767  1.00  0.00    -0.314 NA 
HETATM   24  C   UNL     1     -10.604  16.224  65.300  1.00  0.00    -0.336 C  
HETATM   25  C   UNL     1     -10.269  17.264  66.400  1.00  0.00    -0.331 C  
HETATM   26  N   UNL     1      -8.978  17.048  67.087  1.00  0.00    -0.218 NA 
HETATM   27  C   UNL     1      -8.817  15.625  67.459  1.00  0.00    -0.181 C  
HETATM   28  C   UNL     1      -7.867  17.494  66.246  1.00  0.00    -0.287 C  
HETATM   29  C   UNL     1      -9.191  14.613  66.349  1.00  0.00    -0.249 C  
ENDBRANCH  22  23
ENDBRANCH  21  22
ENDBRANCH  20  21
ENDBRANCH  19  20
ENDBRANCH   4   6
ENDBRANCH   3   4
ENDBRANCH   2   3
TORSDOF 7
ENDMDL
MODEL       26
REMARK 921   NORMALIZED FREE ENERGY PREDICTED BY IDOCK:   -6.11 KCAL/MOL
REMARK 922        TOTAL FREE ENERGY PREDICTED BY IDOCK:   -9.56 KCAL/MOL
REMARK 923 INTER-LIGAND FREE ENERGY PREDICTED BY IDOCK:   -8.80 KCAL/MOL
REMARK 924 INTRA-LIGAND FREE ENERGY PREDICTED BY IDOCK:   -0.76 KCAL/MOL
REMARK 927      BINDING AFFINITY PREDICTED BY RF-SCORE:    0.00 PKD
ROOT
HETATM    1  C   UNL     1     -11.384  16.128  70.526  1.00  0.00    -0.392 C  
HETATM    2  C   UNL     1     -11.913  15.080  71.495  1.00  0.00    -0.416 C  
ENDROOT
BRANCH   2   3
HETATM    3  C   UNL     1     -12.654  13.976  70.744  1.00  0.00    -0.431 C  
BRANCH   3   4
HETATM    4  C   UNL     1     -13.213  12.904  71.664  1.00  0.00    -0.324 C  
HETATM    5  O   UNL     1     -13.979  13.149  72.595  1.00  0.00    -0.708 OA 
BRANCH   4   6
HETATM    6  C   UNL     1     -12.839  11.485  71.379  1.00  0.00    -0.489 A  
HETATM    7  C   UNL     1     -12.028  11.207  70.266  1.00  0.00    -0.460 A  
HETATM    8  C   UNL     1     -11.582   9.900  69.940  1.00  0.00    -0.127 A  
HETATM    9  C   UNL     1     -12.027   8.874  70.793  1.00  0.00    -0.148 A  
HETATM   10  S   UNL     1     -11.606   7.165  70.605  1.00  0.00    -0.300 SA 
HETATM   11  C   UNL     1     -12.856   9.150  71.899  1.00  0.00    -0.466 A  
HETATM   12  C   UNL     1     -10.598   7.176  69.148  1.00  0.00    -0.214 A  
HETATM   13  C   UNL     1     -13.259  10.445  72.195  1.00  0.00    -0.418 A  
HETATM   14  C   UNL     1     -10.131   5.902  68.756  1.00  0.00    -0.220 A  
HETATM   15  C   UNL     1      -9.330   5.742  67.639  1.00  0.00    -0.108 A  
HETATM   16  C   UNL     1      -8.985   6.857  66.898  1.00  0.00    -0.128 A  
HETATM   17  C   UNL     1      -9.449   8.125  67.283  1.00  0.00    -0.196 A  
HETATM   18  C   UNL     1     -10.267   8.340  68.419  1.00  0.00    -0.209 A  
HETATM   19  N   UNL     1     -10.732   9.631  68.817  1.00  0.00    -0.221 NA 
BRANCH  19  20
HETATM   20  C   UNL     1     -10.278  10.815  68.051  1.00  0.00    -0.178 C  
BRANCH  20  21
HETATM   21  C   UNL     1     -11.201  11.154  66.867  1.00  0.00    -0.258 C  
BRANCH  21  22
HETATM   22  C   UNL     1     -10.775  12.433  66.147  1.00  0.00    -0.260 C  
BRANCH  22  23
HETATM   23  N   UNL     1     -11.637  13.605  66.412  1.00  0.00    -0.335 NA 
HETATM   24  C   UNL     1     -11.156  14.302  67.633  1.00  0.00    -0.292 C  
HETATM   25  C   UNL     1      -9.782  14.998  67.455  1.00  0.00    -0.216 C  
HETATM   26  N   UNL     1      -9.699  15.926  66.308  1.00  0.00    -0.282 NA 
HETATM   27  C   UNL     1     -10.284  15.310  65.096  1.00  0.00    -0.339 C  
HETATM   28  C   UNL     1     -10.364  17.191  66.620  1.00  0.00    -0.310 C  
HETATM   29  C   UNL     1     -11.641  14.596  65.315  1.00  0.00    -0.354 C  
ENDBRANCH  22  23
ENDBRANCH  21  22
ENDBRANCH  20  21
ENDBRANCH  19  20
ENDBRANCH   4   6
ENDBRANCH   3   4
ENDBRANCH   2   3
TORSDOF 7
ENDMDL
MODEL       27
REMARK 921   NORMALIZED FREE ENERGY PREDICTED BY IDOCK:   -6.09 KCAL/MOL
REMARK 922        TOTAL FREE ENERGY PREDICTED BY IDOCK:   -9.54 KCAL/MOL
REMARK 923 INTER-LIGAND FREE ENERGY PREDICTED BY IDOCK:   -8.50 KCAL/MOL
REMARK 924 INTRA-LIGAND FREE ENERGY PREDICTED BY IDOCK:   -1.04 KCAL/MOL
REMARK 927      BINDING AFFINITY PREDICTED BY RF-SCORE:    0.00 PKD
ROOT
HETATM    1  C   UNL     1     -12.515  15.698  74.535  1.00  0.00    -0.749 C  
HETATM    2  C   UNL     1     -12.343  15.893  73.036  1.00  0.00    -0.605 C  
ENDROOT
BRANCH   2   3
HETATM    3  C   UNL     1     -13.470  15.205  72.269  1.00  0.00    -0.539 C  
BRANCH   3   4
HETATM    4  C   UNL     1     -13.032  14.680  70.913  1.00  0.00    -0.365 C  
HETATM    5  O   UNL     1     -12.878  15.402  69.929  1.00  0.00    -0.176 OA 
BRANCH   4   6
HETATM    6  C   UNL     1     -12.736  13.219  70.800  1.00  0.00    -0.284 A  
HETATM    7  C   UNL     1     -12.118  12.740  69.632  1.00  0.00    -0.286 A  
HETATM    8  C   UNL     1     -11.756  11.381  69.449  1.00  0.00    -0.338 A  
HETATM    9  C   UNL     1     -12.079  10.516  70.511  1.00  0.00    -0.345 A  
HETATM   10  S   UNL     1     -11.726   8.782  70.530  1.00  0.00    -0.008 SA 
HETATM   11  C   UNL     1     -12.716  10.992  71.675  1.00  0.00    -0.483 A  
HETATM   12  C   UNL     1     -10.963   8.527  68.952  1.00  0.00     0.142 A  
HETATM   13  C   UNL     1     -13.041  12.335  71.823  1.00  0.00    -0.449 A  
HETATM   14  C   UNL     1     -10.590   7.189  68.697  1.00  0.00    -0.217 A  
HETATM   15  C   UNL     1      -9.980   6.826  67.508  1.00  0.00    -0.180 A  
HETATM   16  C   UNL     1      -9.737   7.800  66.558  1.00  0.00    -0.265 A  
HETATM   17  C   UNL     1     -10.108   9.131  66.807  1.00  0.00    -0.341 A  
HETATM   18  C   UNL     1     -10.730   9.551  68.007  1.00  0.00    -0.212 A  
HETATM   19  N   UNL     1     -11.101  10.907  68.265  1.00  0.00    -0.243 NA 
BRANCH  19  20
HETATM   20  C   UNL     1     -10.752  11.941  67.262  1.00  0.00    -0.236 C  
BRANCH  20  21
HETATM   21  C   UNL     1      -9.283  12.390  67.348  1.00  0.00    -0.184 C  
BRANCH  21  22
HETATM   22  C   UNL     1      -9.127  13.899  67.165  1.00  0.00    -0.239 C  
BRANCH  22  23
HETATM   23  N   UNL     1     -10.244  14.703  67.706  1.00  0.00    -0.228 NA 
HETATM   24  C   UNL     1      -9.773  15.464  68.890  1.00  0.00    -0.220 C  
HETATM   25  C   UNL     1      -8.758  16.586  68.550  1.00  0.00    -0.228 C  
HETATM   26  N   UNL     1      -9.210  17.540  67.514  1.00  0.00    -0.240 NA 
HETATM   27  C   UNL     1      -9.802  16.819  66.365  1.00  0.00    -0.297 C  
HETATM   28  C   UNL     1     -10.164  18.495  68.076  1.00  0.00    -0.383 C  
HETATM   29  C   UNL     1     -10.786  15.685  66.742  1.00  0.00    -0.300 C  
ENDBRANCH  22  23
ENDBRANCH  21  22
ENDBRANCH  20  21
ENDBRANCH  19  20
ENDBRANCH   4   6
ENDBRANCH   3   4
ENDBRANCH   2   3
TORSDOF 7
ENDMDL
MODEL       28
REMARK 921   NORMALIZED FREE ENERGY PREDICTED BY IDOCK:   -6.09 KCAL/MOL
REMARK 922        TOTAL FREE ENERGY PREDICTED BY IDOCK:   -9.53 KCAL/MOL
REMARK 923 INTER-LIGAND FREE ENERGY PREDICTED BY IDOCK:   -8.62 KCAL/MOL
REMARK 924 INTRA-LIGAND FREE ENERGY PREDICTED BY IDOCK:   -0.91 KCAL/MOL
REMARK 927      BINDING AFFINITY PREDICTED BY RF-SCORE:    0.00 PKD
ROOT
HETATM    1  C   UNL     1     -10.935   6.381  72.742  1.00  0.00    -0.289 C  
HETATM    2  C   UNL     1     -11.563   7.289  71.695  1.00  0.00    -0.306 C  
ENDROOT
BRANCH   2   3
HETATM    3  C   UNL     1     -11.134   8.739  71.911  1.00  0.00    -0.434 C  
BRANCH   3   4
HETATM    4  C   UNL     1      -9.869   9.103  71.154  1.00  0.00    -0.301 C  
HETATM    5  O   UNL     1      -8.754   9.113  71.673  1.00  0.00    -0.343 OA 
BRANCH   4   6
HETATM    6  C   UNL     1     -10.000   9.418  69.698  1.00  0.00    -0.209 A  
HETATM    7  C   UNL     1     -10.671  10.592  69.315  1.00  0.00    -0.275 A  
HETATM    8  C   UNL     1     -10.807  11.000  67.964  1.00  0.00    -0.229 A  
HETATM    9  C   UNL     1     -10.246  10.135  67.006  1.00  0.00    -0.234 A  
HETATM   10  S   UNL     1     -10.277  10.422  65.260  1.00  0.00    -0.198 SA 
HETATM   11  C   UNL     1      -9.590   8.948  67.389  1.00  0.00    -0.201 A  
HETATM   12  C   UNL     1     -11.169  11.948  65.137  1.00  0.00    -0.289 A  
HETATM   13  C   UNL     1      -9.463   8.589  68.725  1.00  0.00    -0.143 A  
HETATM   14  C   UNL     1     -11.355  12.406  63.814  1.00  0.00    -0.536 A  
HETATM   15  C   UNL     1     -12.031  13.584  63.549  1.00  0.00    -0.388 A  
HETATM   16  C   UNL     1     -12.531  14.320  64.608  1.00  0.00    -0.371 A  
HETATM   17  C   UNL     1     -12.349  13.868  65.924  1.00  0.00    -0.517 A  
HETATM   18  C   UNL     1     -11.662  12.672  66.245  1.00  0.00    -0.402 A  
HETATM   19  N   UNL     1     -11.469  12.214  67.585  1.00  0.00    -0.310 NA 
BRANCH  19  20
HETATM   20  C   UNL     1     -11.945  13.066  68.701  1.00  0.00    -0.263 C  
BRANCH  20  21
HETATM   21  C   UNL     1     -10.872  14.045  69.208  1.00  0.00    -0.192 C  
BRANCH  21  22
HETATM   22  C   UNL     1     -11.203  15.497  68.865  1.00  0.00    -0.304 C  
BRANCH  22  23
HETATM   23  N   UNL     1     -10.582  15.991  67.617  1.00  0.00    -0.304 NA 
HETATM   24  C   UNL     1     -10.844  17.447  67.482  1.00  0.00    -0.203 C  
HETATM   25  C   UNL     1     -10.101  18.316  68.530  1.00  0.00    -0.398 C  
HETATM   26  N   UNL     1      -8.641  18.095  68.598  1.00  0.00    -0.296 NA 
HETATM   27  C   UNL     1      -8.334  16.647  68.610  1.00  0.00    -0.246 C  
HETATM   28  C   UNL     1      -7.967  18.760  67.484  1.00  0.00    -0.244 C  
HETATM   29  C   UNL     1      -9.116  15.804  67.573  1.00  0.00    -0.195 C  
ENDBRANCH  22  23
ENDBRANCH  21  22
ENDBRANCH  20  21
ENDBRANCH  19  20
ENDBRANCH   4   6
ENDBRANCH   3   4
ENDBRANCH   2   3
TORSDOF 7
ENDMDL
MODEL       29
REMARK 921   NORMALIZED FREE ENERGY PREDICTED BY IDOCK:   -6.05 KCAL/MOL
REMARK 922        TOTAL FREE ENERGY PREDICTED BY IDOCK:   -9.48 KCAL/MOL
REMARK 923 INTER-LIGAND FREE ENERGY PREDICTED BY IDOCK:   -8.45 KCAL/MOL
REMARK 924 INTRA-LIGAND FREE ENERGY PREDICTED BY IDOCK:   -1.02 KCAL/MOL
REMARK 927      BINDING AFFINITY PREDICTED BY RF-SCORE:    0.00 PKD
ROOT
HETATM    1  C   UNL     1     -10.018  19.961  67.380  1.00  0.00    -0.558 C  
HETATM    2  C   UNL     1     -10.583  18.570  67.130  1.00  0.00    -0.439 C  
ENDROOT
BRANCH   2   3
HETATM    3  C   UNL     1     -10.808  17.834  68.448  1.00  0.00    -0.088 C  
BRANCH   3   4
HETATM    4  C   UNL     1     -10.408  16.370  68.386  1.00  0.00    -0.282 C  
HETATM    5  O   UNL     1      -9.486  15.953  67.687  1.00  0.00    -0.217 OA 
BRANCH   4   6
HETATM    6  C   UNL     1     -11.154  15.412  69.259  1.00  0.00    -0.280 A  
HETATM    7  C   UNL     1     -10.925  14.034  69.105  1.00  0.00    -0.263 A  
HETATM    8  C   UNL     1     -11.549  13.050  69.915  1.00  0.00    -0.179 A  
HETATM    9  C   UNL     1     -12.446  13.537  70.883  1.00  0.00    -0.369 A  
HETATM   10  S   UNL     1     -13.342  12.517  72.018  1.00  0.00    -0.290 SA 
HETATM   11  C   UNL     1     -12.690  14.918  71.026  1.00  0.00    -0.412 A  
HETATM   12  C   UNL     1     -12.825  10.885  71.560  1.00  0.00    -0.454 A  
HETATM   13  C   UNL     1     -12.048  15.853  70.223  1.00  0.00    -0.294 A  
HETATM   14  C   UNL     1     -13.421   9.853  72.317  1.00  0.00    -0.397 A  
HETATM   15  C   UNL     1     -13.119   8.523  72.083  1.00  0.00    -0.393 A  
HETATM   16  C   UNL     1     -12.217   8.208  71.084  1.00  0.00    -0.257 A  
HETATM   17  C   UNL     1     -11.624   9.231  70.327  1.00  0.00    -0.151 A  
HETATM   18  C   UNL     1     -11.897  10.605  70.532  1.00  0.00    -0.357 A  
HETATM   19  N   UNL     1     -11.288  11.648  69.768  1.00  0.00    -0.237 NA 
BRANCH  19  20
HETATM   20  C   UNL     1     -10.264  11.284  68.761  1.00  0.00    -0.202 C  
BRANCH  20  21
HETATM   21  C   UNL     1     -10.860  11.012  67.369  1.00  0.00    -0.327 C  
BRANCH  21  22
HETATM   22  C   UNL     1     -10.142  11.792  66.268  1.00  0.00    -0.217 C  
BRANCH  22  23
HETATM   23  N   UNL     1     -10.940  12.003  65.041  1.00  0.00    -0.298 NA 
HETATM   24  C   UNL     1     -12.293  12.488  65.414  1.00  0.00    -0.359 C  
HETATM   25  C   UNL     1     -12.302  13.922  66.005  1.00  0.00    -0.475 C  
HETATM   26  N   UNL     1     -11.639  14.943  65.167  1.00  0.00    -0.350 NA 
HETATM   27  C   UNL     1     -10.335  14.446  64.673  1.00  0.00    -0.182 C  
HETATM   28  C   UNL     1     -12.502  15.335  64.053  1.00  0.00     0.199 C  
HETATM   29  C   UNL     1     -10.356  13.000  64.119  1.00  0.00    -0.321 C  
ENDBRANCH  22  23
ENDBRANCH  21  22
ENDBRANCH  20  21
ENDBRANCH  19  20
ENDBRANCH   4   6
ENDBRANCH   3   4
ENDBRANCH   2   3
TORSDOF 7
ENDMDL
MODEL       30
REMARK 921   NORMALIZED FREE ENERGY PREDICTED BY IDOCK:   -6.01 KCAL/MOL
REMARK 922        TOTAL FREE ENERGY PREDICTED BY IDOCK:   -9.43 KCAL/MOL
REMARK 923 INTER-LIGAND FREE ENERGY PREDICTED BY IDOCK:   -8.62 KCAL/MOL
REMARK 924 INTRA-LIGAND FREE ENERGY PREDICTED BY IDOCK:   -0.81 KCAL/MOL
REMARK 927      BINDING AFFINITY PREDICTED BY RF-SCORE:    0.00 PKD
ROOT
HETATM    1  C   UNL     1     -10.976   6.138  71.809  1.00  0.00    -0.315 C  
HETATM    2  C   UNL     1     -12.065   7.201  71.794  1.00  0.00    -0.363 C  
ENDROOT
BRANCH   2   3
HETATM    3  C   UNL     1     -11.483   8.576  72.109  1.00  0.00    -0.446 C  
BRANCH   3   4
HETATM    4  C   UNL     1     -10.031   8.718  71.684  1.00  0.00    -0.311 C  
HETATM    5  O   UNL     1      -9.089   8.644  72.471  1.00  0.00    -0.322 OA 
BRANCH   4   6
HETATM    6  C   UNL     1      -9.753   8.913  70.228  1.00  0.00    -0.212 A  
HETATM    7  C   UNL     1     -10.526   9.839  69.507  1.00  0.00    -0.250 A  
HETATM    8  C   UNL     1     -10.310  10.126  68.135  1.00  0.00    -0.185 A  
HETATM    9  C   UNL     1      -9.275   9.400  67.516  1.00  0.00    -0.123 A  
HETATM   10  S   UNL     1      -8.804   9.581  65.820  1.00  0.00    -0.174 SA 
HETATM   11  C   UNL     1      -8.512   8.458  68.234  1.00  0.00    -0.135 A  
HETATM   12  C   UNL     1      -9.949  10.798  65.230  1.00  0.00    -0.282 A  
HETATM   13  C   UNL     1      -8.744   8.214  69.582  1.00  0.00    -0.142 A  
HETATM   14  C   UNL     1      -9.799  11.121  63.863  1.00  0.00    -0.354 A  
HETATM   15  C   UNL     1     -10.617  12.056  63.252  1.00  0.00    -0.399 A  
HETATM   16  C   UNL     1     -11.597  12.679  64.002  1.00  0.00    -0.486 A  
HETATM   17  C   UNL     1     -11.750  12.359  65.360  1.00  0.00    -0.452 A  
HETATM   18  C   UNL     1     -10.936  11.413  66.030  1.00  0.00    -0.226 A  
HETATM   19  N   UNL     1     -11.086  11.093  67.415  1.00  0.00    -0.292 NA 
BRANCH  19  20
HETATM   20  C   UNL     1     -12.090  11.837  68.211  1.00  0.00     0.002 C  
BRANCH  20  21
HETATM   21  C   UNL     1     -11.524  13.119  68.845  1.00  0.00    -0.343 C  
BRANCH  21  22
HETATM   22  C   UNL     1     -12.083  13.369  70.246  1.00  0.00    -0.349 C  
BRANCH  22  23
HETATM   23  N   UNL     1     -12.538  14.755  70.489  1.00  0.00    -0.350 NA 
HETATM   24  C   UNL     1     -13.779  14.728  71.303  1.00  0.00    -0.408 C  
HETATM   25  C   UNL     1     -13.561  14.244  72.760  1.00  0.00    -0.435 C  
HETATM   26  N   UNL     1     -12.513  14.971  73.506  1.00  0.00    -0.497 NA 
HETATM   27  C   UNL     1     -11.296  15.127  72.677  1.00  0.00    -0.067 C  
HETATM   28  C   UNL     1     -13.008  16.273  73.952  1.00  0.00    -0.303 C  
HETATM   29  C   UNL     1     -11.553  15.581  71.219  1.00  0.00    -0.404 C  
ENDBRANCH  22  23
ENDBRANCH  21  22
ENDBRANCH  20  21
ENDBRANCH  19  20
ENDBRANCH   4   6
ENDBRANCH   3   4
ENDBRANCH   2   3
TORSDOF 7
ENDMDL
MODEL       31
REMARK 921   NORMALIZED FREE ENERGY PREDICTED BY IDOCK:   -6.00 KCAL/MOL
REMARK 922        TOTAL FREE ENERGY PREDICTED BY IDOCK:   -9.41 KCAL/MOL
REMARK 923 INTER-LIGAND FREE ENERGY PREDICTED BY IDOCK:   -8.59 KCAL/MOL
REMARK 924 INTRA-LIGAND FREE ENERGY PREDICTED BY IDOCK:   -0.83 KCAL/MOL
REMARK 927      BINDING AFFINITY PREDICTED BY RF-SCORE:    0.00 PKD
ROOT
HETATM    1  C   UNL     1      -9.888  20.028  68.059  1.00  0.00    -0.522 C  
HETATM    2  C   UNL     1     -10.839  19.030  67.416  1.00  0.00    -0.496 C  
ENDROOT
BRANCH   2   3
HETATM    3  C   UNL     1     -10.530  18.871  65.929  1.00  0.00    -0.450 C  
BRANCH   3   4
HETATM    4  C   UNL     1     -10.556  17.424  65.468  1.00  0.00    -0.108 C  
HETATM    5  O   UNL     1     -11.256  17.027  64.537  1.00  0.00    -1.091 OA 
BRANCH   4   6
HETATM    6  C   UNL     1      -9.647  16.461  66.161  1.00  0.00    -0.356 A  
HETATM    7  C   UNL     1     -10.166  15.231  66.598  1.00  0.00    -0.275 A  
HETATM    8  C   UNL     1      -9.374  14.234  67.223  1.00  0.00    -0.213 A  
HETATM    9  C   UNL     1      -8.018  14.561  67.409  1.00  0.00    -0.200 A  
HETATM   10  S   UNL     1      -6.825  13.488  68.156  1.00  0.00    -0.140 SA 
HETATM   11  C   UNL     1      -7.501  15.802  66.988  1.00  0.00    -0.242 A  
HETATM   12  C   UNL     1      -7.795  12.064  68.571  1.00  0.00    -0.129 A  
HETATM   13  C   UNL     1      -8.305  16.747  66.365  1.00  0.00    -0.344 A  
HETATM   14  C   UNL     1      -7.070  11.035  69.213  1.00  0.00    -0.123 A  
HETATM   15  C   UNL     1      -7.684   9.857  69.599  1.00  0.00    -0.149 A  
HETATM   16  C   UNL     1      -9.034   9.693  69.349  1.00  0.00    -0.186 A  
HETATM   17  C   UNL     1      -9.758  10.714  68.713  1.00  0.00    -0.193 A  
HETATM   18  C   UNL     1      -9.174  11.934  68.296  1.00  0.00    -0.187 A  
HETATM   19  N   UNL     1      -9.909  12.971  67.641  1.00  0.00    -0.207 NA 
BRANCH  19  20
HETATM   20  C   UNL     1     -11.334  12.732  67.313  1.00  0.00    -0.314 C  
BRANCH  20  21
HETATM   21  C   UNL     1     -12.258  12.841  68.538  1.00  0.00     0.026 C  
BRANCH  21  22
HETATM   22  C   UNL     1     -11.659  13.716  69.640  1.00  0.00    -0.278 C  
BRANCH  22  23
HETATM   23  N   UNL     1     -12.475  14.894  70.001  1.00  0.00    -0.304 NA 
HETATM   24  C   UNL     1     -13.553  14.478  70.934  1.00  0.00    -0.145 C  
HETATM   25  C   UNL     1     -13.039  14.051  72.333  1.00  0.00    -0.443 C  
HETATM   26  N   UNL     1     -12.178  15.045  73.008  1.00  0.00    -0.353 NA 
HETATM   27  C   UNL     1     -11.163  15.577  72.071  1.00  0.00    -0.251 C  
HETATM   28  C   UNL     1     -12.984  16.128  73.571  1.00  0.00    -0.532 C  
HETATM   29  C   UNL     1     -11.704  15.963  70.672  1.00  0.00    -0.384 C  
ENDBRANCH  22  23
ENDBRANCH  21  22
ENDBRANCH  20  21
ENDBRANCH  19  20
ENDBRANCH   4   6
ENDBRANCH   3   4
ENDBRANCH   2   3
TORSDOF 7
ENDMDL
MODEL       32
REMARK 921   NORMALIZED FREE ENERGY PREDICTED BY IDOCK:   -5.94 KCAL/MOL
REMARK 922        TOTAL FREE ENERGY PREDICTED BY IDOCK:   -9.33 KCAL/MOL
REMARK 923 INTER-LIGAND FREE ENERGY PREDICTED BY IDOCK:   -8.29 KCAL/MOL
REMARK 924 INTRA-LIGAND FREE ENERGY PREDICTED BY IDOCK:   -1.04 KCAL/MOL
REMARK 927      BINDING AFFINITY PREDICTED BY RF-SCORE:    0.00 PKD
ROOT
HETATM    1  C   UNL     1     -10.119  19.684  69.036  1.00  0.00    -0.443 C  
HETATM    2  C   UNL     1      -8.851  19.226  68.332  1.00  0.00    -0.395 C  
ENDROOT
BRANCH   2   3
HETATM    3  C   UNL     1      -9.138  18.885  66.872  1.00  0.00    -0.314 C  
BRANCH   3   4
HETATM    4  C   UNL     1      -8.011  18.110  66.210  1.00  0.00    -0.236 C  
HETATM    5  O   UNL     1      -7.282  18.591  65.343  1.00  0.00    -0.530 OA 
BRANCH   4   6
HETATM    6  C   UNL     1      -7.762  16.713  66.681  1.00  0.00    -0.316 A  
HETATM    7  C   UNL     1      -8.767  15.747  66.502  1.00  0.00    -0.354 A  
HETATM    8  C   UNL     1      -8.608  14.388  66.874  1.00  0.00    -0.164 A  
HETATM    9  C   UNL     1      -7.376  14.057  67.467  1.00  0.00    -0.170 A  
HETATM   10  S   UNL     1      -6.932  12.433  68.010  1.00  0.00    -0.111 SA 
HETATM   11  C   UNL     1      -6.375  15.030  67.664  1.00  0.00    -0.156 A  
HETATM   12  C   UNL     1      -8.386  11.492  67.638  1.00  0.00    -0.135 A  
HETATM   13  C   UNL     1      -6.561  16.350  67.273  1.00  0.00    -0.222 A  
HETATM   14  C   UNL     1      -8.303  10.128  67.998  1.00  0.00    -0.117 A  
HETATM   15  C   UNL     1      -9.357   9.259  67.771  1.00  0.00    -0.145 A  
HETATM   16  C   UNL     1     -10.509   9.745  67.182  1.00  0.00    -0.316 A  
HETATM   17  C   UNL     1     -10.596  11.100  66.824  1.00  0.00    -0.311 A  
HETATM   18  C   UNL     1      -9.545  12.026  67.033  1.00  0.00    -0.195 A  
HETATM   19  N   UNL     1      -9.630  13.404  66.662  1.00  0.00    -0.264 NA 
BRANCH  19  20
HETATM   20  C   UNL     1     -10.845  13.876  65.958  1.00  0.00    -0.290 C  
BRANCH  20  21
HETATM   21  C   UNL     1     -12.098  13.868  66.852  1.00  0.00    -0.467 C  
BRANCH  21  22
HETATM   22  C   UNL     1     -11.960  14.807  68.050  1.00  0.00    -0.227 C  
BRANCH  22  23
HETATM   23  N   UNL     1     -11.333  14.196  69.242  1.00  0.00    -0.269 NA 
HETATM   24  C   UNL     1     -10.524  15.221  69.949  1.00  0.00    -0.262 C  
HETATM   25  C   UNL     1     -11.371  16.335  70.617  1.00  0.00    -0.297 C  
HETATM   26  N   UNL     1     -12.432  15.849  71.525  1.00  0.00    -0.451 NA 
HETATM   27  C   UNL     1     -13.184  14.738  70.899  1.00  0.00    -0.356 C  
HETATM   28  C   UNL     1     -11.863  15.434  72.806  1.00  0.00    -0.457 C  
HETATM   29  C   UNL     1     -12.309  13.660  70.214  1.00  0.00    -0.322 C  
ENDBRANCH  22  23
ENDBRANCH  21  22
ENDBRANCH  20  21
ENDBRANCH  19  20
ENDBRANCH   4   6
ENDBRANCH   3   4
ENDBRANCH   2   3
TORSDOF 7
ENDMDL
MODEL       33
REMARK 921   NORMALIZED FREE ENERGY PREDICTED BY IDOCK:   -5.86 KCAL/MOL
REMARK 922        TOTAL FREE ENERGY PREDICTED BY IDOCK:   -9.22 KCAL/MOL
REMARK 923 INTER-LIGAND FREE ENERGY PREDICTED BY IDOCK:   -8.29 KCAL/MOL
REMARK 924 INTRA-LIGAND FREE ENERGY PREDICTED BY IDOCK:   -0.93 KCAL/MOL
REMARK 927      BINDING AFFINITY PREDICTED BY RF-SCORE:    0.00 PKD
ROOT
HETATM    1  C   UNL     1     -13.382   7.076  71.475  1.00  0.00    -0.370 C  
HETATM    2  C   UNL     1     -13.934   8.476  71.697  1.00  0.00    -0.463 C  
ENDROOT
BRANCH   2   3
HETATM    3  C   UNL     1     -12.918   9.348  72.429  1.00  0.00    -0.427 C  
BRANCH   3   4
HETATM    4  C   UNL     1     -11.590   9.453  71.699  1.00  0.00    -0.396 C  
HETATM    5  O   UNL     1     -10.566   8.889  72.080  1.00  0.00    -0.341 OA 
BRANCH   4   6
HETATM    6  C   UNL     1     -11.558  10.250  70.434  1.00  0.00    -0.411 A  
HETATM    7  C   UNL     1     -10.890   9.721  69.316  1.00  0.00    -0.240 A  
HETATM    8  C   UNL     1     -10.844  10.378  68.060  1.00  0.00    -0.270 A  
HETATM    9  C   UNL     1     -11.492  11.626  68.000  1.00  0.00    -0.315 A  
HETATM   10  S   UNL     1     -11.582  12.637  66.551  1.00  0.00    -0.394 SA 
HETATM   11  C   UNL     1     -12.145  12.165  69.127  1.00  0.00    -0.224 A  
HETATM   12  C   UNL     1     -10.667  11.691  65.364  1.00  0.00    -0.287 A  
HETATM   13  C   UNL     1     -12.183  11.484  70.337  1.00  0.00    -0.442 A  
HETATM   14  C   UNL     1     -10.567  12.296  64.092  1.00  0.00    -0.408 A  
HETATM   15  C   UNL     1      -9.886  11.682  63.055  1.00  0.00    -0.331 A  
HETATM   16  C   UNL     1      -9.294  10.453  63.280  1.00  0.00    -0.335 A  
HETATM   17  C   UNL     1      -9.390   9.849  64.544  1.00  0.00    -0.336 A  
HETATM   18  C   UNL     1     -10.078  10.435  65.633  1.00  0.00    -0.269 A  
HETATM   19  N   UNL     1     -10.184   9.817  66.918  1.00  0.00    -0.236 NA 
BRANCH  19  20
HETATM   20  C   UNL     1      -9.609   8.464  67.103  1.00  0.00    -0.179 C  
BRANCH  20  21
HETATM   21  C   UNL     1     -10.664   7.347  67.017  1.00  0.00    -0.389 C  
BRANCH  21  22
HETATM   22  C   UNL     1     -10.091   5.979  67.387  1.00  0.00    -0.163 C  
BRANCH  22  23
HETATM   23  N   UNL     1      -8.958   6.022  68.334  1.00  0.00    -0.115 NA 
HETATM   24  C   UNL     1      -9.453   6.429  69.674  1.00  0.00    -0.147 C  
HETATM   25  C   UNL     1     -10.351   5.367  70.358  1.00  0.00    -0.283 C  
HETATM   26  N   UNL     1      -9.754   4.018  70.456  1.00  0.00    -0.191 NA 
HETATM   27  C   UNL     1      -9.138   3.626  69.168  1.00  0.00    -0.137 C  
HETATM   28  C   UNL     1      -8.771   3.968  71.538  1.00  0.00    -0.106 C  
HETATM   29  C   UNL     1      -8.274   4.722  68.497  1.00  0.00    -0.083 C  
ENDBRANCH  22  23
ENDBRANCH  21  22
ENDBRANCH  20  21
ENDBRANCH  19  20
ENDBRANCH   4   6
ENDBRANCH   3   4
ENDBRANCH   2   3
TORSDOF 7
ENDMDL
MODEL       34
REMARK 921   NORMALIZED FREE ENERGY PREDICTED BY IDOCK:   -5.85 KCAL/MOL
REMARK 922        TOTAL FREE ENERGY PREDICTED BY IDOCK:   -9.20 KCAL/MOL
REMARK 923 INTER-LIGAND FREE ENERGY PREDICTED BY IDOCK:   -8.30 KCAL/MOL
REMARK 924 INTRA-LIGAND FREE ENERGY PREDICTED BY IDOCK:   -0.91 KCAL/MOL
REMARK 927      BINDING AFFINITY PREDICTED BY RF-SCORE:    0.00 PKD
ROOT
HETATM    1  C   UNL     1     -10.841   5.585  72.555  1.00  0.00    -0.302 C  
HETATM    2  C   UNL     1     -11.279   6.930  73.116  1.00  0.00    -0.156 C  
ENDROOT
BRANCH   2   3
HETATM    3  C   UNL     1     -10.405   8.055  72.567  1.00  0.00    -0.374 C  
BRANCH   3   4
HETATM    4  C   UNL     1     -11.116   8.909  71.532  1.00  0.00    -0.326 C  
HETATM    5  O   UNL     1     -12.031   9.683  71.811  1.00  0.00    -0.381 OA 
BRANCH   4   6
HETATM    6  C   UNL     1     -10.636   8.825  70.118  1.00  0.00    -0.237 A  
HETATM    7  C   UNL     1     -10.932   9.878  69.237  1.00  0.00    -0.244 A  
HETATM    8  C   UNL     1     -10.483   9.912  67.892  1.00  0.00    -0.236 A  
HETATM    9  C   UNL     1      -9.732   8.798  67.472  1.00  0.00    -0.167 A  
HETATM   10  S   UNL     1      -9.054   8.605  65.849  1.00  0.00    -0.190 SA 
HETATM   11  C   UNL     1      -9.451   7.733  68.350  1.00  0.00    -0.148 A  
HETATM   12  C   UNL     1      -9.600  10.076  65.026  1.00  0.00    -0.297 A  
HETATM   13  C   UNL     1      -9.895   7.743  69.666  1.00  0.00    -0.182 A  
HETATM   14  C   UNL     1      -9.200  10.168  63.675  1.00  0.00    -0.320 A  
HETATM   15  C   UNL     1      -9.545  11.258  62.895  1.00  0.00    -0.377 A  
HETATM   16  C   UNL     1     -10.298  12.272  63.459  1.00  0.00    -0.443 A  
HETATM   17  C   UNL     1     -10.698  12.183  64.801  1.00  0.00    -0.342 A  
HETATM   18  C   UNL     1     -10.367  11.091  65.639  1.00  0.00    -0.251 A  
HETATM   19  N   UNL     1     -10.768  11.005  67.009  1.00  0.00    -0.257 NA 
BRANCH  19  20
HETATM   20  C   UNL     1     -11.502  12.144  67.606  1.00  0.00    -0.331 C  
BRANCH  20  21
HETATM   21  C   UNL     1     -10.608  13.047  68.474  1.00  0.00    -0.274 C  
BRANCH  21  22
HETATM   22  C   UNL     1      -9.913  14.134  67.654  1.00  0.00    -0.233 C  
BRANCH  22  23
HETATM   23  N   UNL     1     -10.830  15.023  66.908  1.00  0.00    -0.310 NA 
HETATM   24  C   UNL     1     -11.396  16.034  67.837  1.00  0.00    -0.218 C  
HETATM   25  C   UNL     1     -10.357  17.065  68.349  1.00  0.00    -0.351 C  
HETATM   26  N   UNL     1      -9.598  17.760  67.288  1.00  0.00    -0.267 NA 
HETATM   27  C   UNL     1      -9.119  16.795  66.272  1.00  0.00    -0.285 C  
HETATM   28  C   UNL     1     -10.415  18.804  66.669  1.00  0.00    -0.426 C  
HETATM   29  C   UNL     1     -10.173  15.760  65.807  1.00  0.00    -0.370 C  
ENDBRANCH  22  23
ENDBRANCH  21  22
ENDBRANCH  20  21
ENDBRANCH  19  20
ENDBRANCH   4   6
ENDBRANCH   3   4
ENDBRANCH   2   3
TORSDOF 7
ENDMDL
MODEL       35
REMARK 921   NORMALIZED FREE ENERGY PREDICTED BY IDOCK:   -5.84 KCAL/MOL
REMARK 922        TOTAL FREE ENERGY PREDICTED BY IDOCK:   -9.18 KCAL/MOL
REMARK 923 INTER-LIGAND FREE ENERGY PREDICTED BY IDOCK:   -8.39 KCAL/MOL
REMARK 924 INTRA-LIGAND FREE ENERGY PREDICTED BY IDOCK:   -0.79 KCAL/MOL
REMARK 927      BINDING AFFINITY PREDICTED BY RF-SCORE:    0.00 PKD
ROOT
HETATM    1  C   UNL     1     -11.384  15.024  66.303  1.00  0.00    -0.273 C  
HETATM    2  C   UNL     1     -10.685  14.491  65.061  1.00  0.00    -0.444 C  
ENDROOT
BRANCH   2   3
HETATM    3  C   UNL     1     -11.695  13.880  64.093  1.00  0.00    -0.369 C  
BRANCH   3   4
HETATM    4  C   UNL     1     -12.201  12.520  64.542  1.00  0.00    -0.453 C  
HETATM    5  O   UNL     1     -13.323  12.096  64.270  1.00  0.00    -0.761 OA 
BRANCH   4   6
HETATM    6  C   UNL     1     -11.258  11.652  65.311  1.00  0.00    -0.263 A  
HETATM    7  C   UNL     1     -11.485  11.452  66.683  1.00  0.00    -0.124 A  
HETATM    8  C   UNL     1     -10.674  10.611  67.488  1.00  0.00    -0.272 A  
HETATM    9  C   UNL     1      -9.593   9.995  66.830  1.00  0.00    -0.181 A  
HETATM   10  S   UNL     1      -8.444   8.897  67.608  1.00  0.00    -0.121 SA 
HETATM   11  C   UNL     1      -9.354  10.210  65.458  1.00  0.00    -0.260 A  
HETATM   12  C   UNL     1      -9.015   8.869  69.285  1.00  0.00    -0.144 A  
HETATM   13  C   UNL     1     -10.180  11.029  64.699  1.00  0.00    -0.392 A  
HETATM   14  C   UNL     1      -8.242   8.060  70.148  1.00  0.00    -0.120 A  
HETATM   15  C   UNL     1      -8.559   7.931  71.489  1.00  0.00    -0.144 A  
HETATM   16  C   UNL     1      -9.655   8.612  71.985  1.00  0.00    -0.385 A  
HETATM   17  C   UNL     1     -10.425   9.418  71.131  1.00  0.00    -0.392 A  
HETATM   18  C   UNL     1     -10.143   9.579  69.753  1.00  0.00    -0.216 A  
HETATM   19  N   UNL     1     -10.931  10.392  68.881  1.00  0.00    -0.232 NA 
BRANCH  19  20
HETATM   20  C   UNL     1     -12.146  11.043  69.425  1.00  0.00    -0.318 C  
BRANCH  20  21
HETATM   21  C   UNL     1     -11.912  12.509  69.830  1.00  0.00    -0.371 C  
BRANCH  21  22
HETATM   22  C   UNL     1     -12.833  12.949  70.968  1.00  0.00    -0.184 C  
BRANCH  22  23
HETATM   23  N   UNL     1     -13.234  14.371  70.920  1.00  0.00    -0.337 NA 
HETATM   24  C   UNL     1     -13.904  14.736  72.195  1.00  0.00    -0.475 C  
HETATM   25  C   UNL     1     -12.952  14.753  73.419  1.00  0.00    -0.429 C  
HETATM   26  N   UNL     1     -11.744  15.589  73.254  1.00  0.00    -0.387 NA 
HETATM   27  C   UNL     1     -11.115  15.343  71.937  1.00  0.00    -0.160 C  
HETATM   28  C   UNL     1     -12.072  17.005  73.417  1.00  0.00     0.171 C  
HETATM   29  C   UNL     1     -12.098  15.300  70.741  1.00  0.00    -0.351 C  
ENDBRANCH  22  23
ENDBRANCH  21  22
ENDBRANCH  20  21
ENDBRANCH  19  20
ENDBRANCH   4   6
ENDBRANCH   3   4
ENDBRANCH   2   3
TORSDOF 7
ENDMDL
MODEL       36
REMARK 921   NORMALIZED FREE ENERGY PREDICTED BY IDOCK:   -5.82 KCAL/MOL
REMARK 922        TOTAL FREE ENERGY PREDICTED BY IDOCK:   -9.16 KCAL/MOL
REMARK 923 INTER-LIGAND FREE ENERGY PREDICTED BY IDOCK:   -8.33 KCAL/MOL
REMARK 924 INTRA-LIGAND FREE ENERGY PREDICTED BY IDOCK:   -0.83 KCAL/MOL
REMARK 927      BINDING AFFINITY PREDICTED BY RF-SCORE:    0.00 PKD
ROOT
HETATM    1  C   UNL     1      -8.979   9.812  65.210  1.00  0.00    -0.233 C  
HETATM    2  C   UNL     1      -9.803   9.317  66.390  1.00  0.00    -0.347 C  
ENDROOT
BRANCH   2   3
HETATM    3  C   UNL     1     -10.347  10.491  67.200  1.00  0.00    -0.285 C  
BRANCH   3   4
HETATM    4  C   UNL     1      -9.349  11.027  68.212  1.00  0.00    -0.172 C  
HETATM    5  O   UNL     1      -9.000  10.400  69.211  1.00  0.00    -0.176 OA 
BRANCH   4   6
HETATM    6  C   UNL     1      -8.739  12.365  67.940  1.00  0.00    -0.175 A  
HETATM    7  C   UNL     1      -9.583  13.481  67.804  1.00  0.00    -0.219 A  
HETATM    8  C   UNL     1      -9.098  14.797  67.591  1.00  0.00    -0.185 A  
HETATM    9  C   UNL     1      -7.699  14.923  67.494  1.00  0.00    -0.192 A  
HETATM   10  S   UNL     1      -6.850  16.454  67.237  1.00  0.00    -0.203 SA 
HETATM   11  C   UNL     1      -6.854  13.801  67.610  1.00  0.00    -0.187 A  
HETATM   12  C   UNL     1      -8.180  17.618  67.120  1.00  0.00    -0.214 A  
HETATM   13  C   UNL     1      -7.366  12.529  67.835  1.00  0.00    -0.115 A  
HETATM   14  C   UNL     1      -7.768  18.949  66.891  1.00  0.00    -0.250 A  
HETATM   15  C   UNL     1      -8.688  19.977  66.778  1.00  0.00    -0.408 A  
HETATM   16  C   UNL     1     -10.035  19.685  66.891  1.00  0.00    -0.515 A  
HETATM   17  C   UNL     1     -10.448  18.362  67.117  1.00  0.00    -0.434 A  
HETATM   18  C   UNL     1      -9.546  17.278  67.243  1.00  0.00    -0.254 A  
HETATM   19  N   UNL     1      -9.965  15.932  67.482  1.00  0.00    -0.236 NA 
BRANCH  19  20
HETATM   20  C   UNL     1     -11.409  15.665  67.680  1.00  0.00    -0.228 C  
BRANCH  20  21
HETATM   21  C   UNL     1     -11.882  15.952  69.115  1.00  0.00    -0.340 C  
BRANCH  21  22
HETATM   22  C   UNL     1     -12.658  14.779  69.716  1.00  0.00    -0.120 C  
BRANCH  22  23
HETATM   23  N   UNL     1     -12.003  14.137  70.875  1.00  0.00    -0.323 NA 
HETATM   24  C   UNL     1     -11.135  15.128  71.560  1.00  0.00    -0.154 C  
HETATM   25  C   UNL     1     -11.921  16.260  72.272  1.00  0.00    -0.520 C  
HETATM   26  N   UNL     1     -12.959  15.796  73.216  1.00  0.00    -0.516 NA 
HETATM   27  C   UNL     1     -13.769  14.716  72.610  1.00  0.00    -0.442 C  
HETATM   28  C   UNL     1     -12.352  15.350  74.470  1.00  0.00    -0.545 C  
HETATM   29  C   UNL     1     -12.955  13.620  71.880  1.00  0.00    -0.341 C  
ENDBRANCH  22  23
ENDBRANCH  21  22
ENDBRANCH  20  21
ENDBRANCH  19  20
ENDBRANCH   4   6
ENDBRANCH   3   4
ENDBRANCH   2   3
TORSDOF 7
ENDMDL
MODEL       37
REMARK 921   NORMALIZED FREE ENERGY PREDICTED BY IDOCK:   -5.81 KCAL/MOL
REMARK 922        TOTAL FREE ENERGY PREDICTED BY IDOCK:   -9.15 KCAL/MOL
REMARK 923 INTER-LIGAND FREE ENERGY PREDICTED BY IDOCK:   -8.15 KCAL/MOL
REMARK 924 INTRA-LIGAND FREE ENERGY PREDICTED BY IDOCK:   -1.00 KCAL/MOL
REMARK 927      BINDING AFFINITY PREDICTED BY RF-SCORE:    0.00 PKD
ROOT
HETATM    1  C   UNL     1     -11.203   6.024  72.136  1.00  0.00    -0.341 C  
HETATM    2  C   UNL     1     -12.385   6.967  71.967  1.00  0.00    -0.305 C  
ENDROOT
BRANCH   2   3
HETATM    3  C   UNL     1     -11.966   8.411  72.231  1.00  0.00    -0.455 C  
BRANCH   3   4
HETATM    4  C   UNL     1     -13.116   9.396  72.106  1.00  0.00    -0.442 C  
HETATM    5  O   UNL     1     -14.251   9.160  72.515  1.00  0.00    -0.512 OA 
BRANCH   4   6
HETATM    6  C   UNL     1     -12.822  10.729  71.495  1.00  0.00    -0.567 A  
HETATM    7  C   UNL     1     -12.198  10.776  70.237  1.00  0.00    -0.431 A  
HETATM    8  C   UNL     1     -11.919  11.989  69.557  1.00  0.00    -0.283 A  
HETATM    9  C   UNL     1     -12.285  13.166  70.235  1.00  0.00    -0.306 A  
HETATM   10  S   UNL     1     -12.051  14.801  69.597  1.00  0.00    -0.284 SA 
HETATM   11  C   UNL     1     -12.893  13.120  71.505  1.00  0.00    -0.401 A  
HETATM   12  C   UNL     1     -11.268  14.496  68.037  1.00  0.00    -0.292 A  
HETATM   13  C   UNL     1     -13.164  11.911  72.134  1.00  0.00    -0.366 A  
HETATM   14  C   UNL     1     -10.948  15.664  67.310  1.00  0.00    -0.275 A  
HETATM   15  C   UNL     1     -10.335  15.595  66.071  1.00  0.00    -0.351 A  
HETATM   16  C   UNL     1     -10.033  14.354  65.543  1.00  0.00    -0.359 A  
HETATM   17  C   UNL     1     -10.348  13.190  66.263  1.00  0.00    -0.291 A  
HETATM   18  C   UNL     1     -10.978  13.210  67.531  1.00  0.00    -0.263 A  
HETATM   19  N   UNL     1     -11.308  12.025  68.261  1.00  0.00    -0.262 NA 
BRANCH  19  20
HETATM   20  C   UNL     1     -11.046  10.710  67.632  1.00  0.00    -0.319 C  
BRANCH  20  21
HETATM   21  C   UNL     1      -9.567  10.292  67.705  1.00  0.00    -0.173 C  
BRANCH  21  22
HETATM   22  C   UNL     1      -9.307   9.271  68.813  1.00  0.00    -0.139 C  
BRANCH  22  23
HETATM   23  N   UNL     1      -8.636   9.819  70.010  1.00  0.00    -0.206 NA 
HETATM   24  C   UNL     1      -8.542   8.762  71.048  1.00  0.00    -0.192 C  
HETATM   25  C   UNL     1      -7.569   7.611  70.682  1.00  0.00    -0.080 C  
HETATM   26  N   UNL     1      -6.205   8.044  70.314  1.00  0.00    -0.032 NA 
HETATM   27  C   UNL     1      -6.257   9.184  69.371  1.00  0.00    -0.040 C  
HETATM   28  C   UNL     1      -5.435   8.392  71.508  1.00  0.00    -0.035 C  
HETATM   29  C   UNL     1      -7.262  10.300  69.749  1.00  0.00    -0.147 C  
ENDBRANCH  22  23
ENDBRANCH  21  22
ENDBRANCH  20  21
ENDBRANCH  19  20
ENDBRANCH   4   6
ENDBRANCH   3   4
ENDBRANCH   2   3
TORSDOF 7
ENDMDL
MODEL       38
REMARK 921   NORMALIZED FREE ENERGY PREDICTED BY IDOCK:   -5.77 KCAL/MOL
REMARK 922        TOTAL FREE ENERGY PREDICTED BY IDOCK:   -9.08 KCAL/MOL
REMARK 923 INTER-LIGAND FREE ENERGY PREDICTED BY IDOCK:   -8.18 KCAL/MOL
REMARK 924 INTRA-LIGAND FREE ENERGY PREDICTED BY IDOCK:   -0.90 KCAL/MOL
REMARK 927      BINDING AFFINITY PREDICTED BY RF-SCORE:    0.00 PKD
ROOT
HETATM    1  C   UNL     1     -12.119  13.540  65.229  1.00  0.00    -0.439 C  
HETATM    2  C   UNL     1     -12.153  14.076  66.652  1.00  0.00    -0.487 C  
ENDROOT
BRANCH   2   3
HETATM    3  C   UNL     1     -11.324  13.193  67.582  1.00  0.00    -0.335 C  
BRANCH   3   4
HETATM    4  C   UNL     1     -11.696  13.357  69.045  1.00  0.00    -0.323 C  
HETATM    5  O   UNL     1     -11.888  14.451  69.573  1.00  0.00    -0.289 OA 
BRANCH   4   6
HETATM    6  C   UNL     1     -11.879  12.113  69.855  1.00  0.00    -0.392 A  
HETATM    7  C   UNL     1     -11.182  10.951  69.482  1.00  0.00    -0.340 A  
HETATM    8  C   UNL     1     -11.254   9.737  70.212  1.00  0.00    -0.288 A  
HETATM    9  C   UNL     1     -12.098   9.752  71.338  1.00  0.00    -0.400 A  
HETATM   10  S   UNL     1     -12.352   8.370  72.414  1.00  0.00    -0.293 SA 
HETATM   11  C   UNL     1     -12.812  10.911  71.702  1.00  0.00    -0.554 A  
HETATM   12  C   UNL     1     -11.347   7.114  71.672  1.00  0.00    -0.251 A  
HETATM   13  C   UNL     1     -12.704  12.087  70.970  1.00  0.00    -0.337 A  
HETATM   14  C   UNL     1     -11.383   5.871  72.341  1.00  0.00    -0.358 A  
HETATM   15  C   UNL     1     -10.650   4.788  71.887  1.00  0.00    -0.150 A  
HETATM   16  C   UNL     1      -9.871   4.936  70.755  1.00  0.00    -0.285 A  
HETATM   17  C   UNL     1      -9.833   6.170  70.086  1.00  0.00    -0.209 A  
HETATM   18  C   UNL     1     -10.561   7.307  70.514  1.00  0.00    -0.222 A  
HETATM   19  N   UNL     1     -10.517   8.566  69.839  1.00  0.00    -0.215 NA 
BRANCH  19  20
HETATM   20  C   UNL     1      -9.609   8.716  68.677  1.00  0.00    -0.155 C  
BRANCH  20  21
HETATM   21  C   UNL     1     -10.308   8.457  67.331  1.00  0.00    -0.355 C  
BRANCH  21  22
HETATM   22  C   UNL     1      -9.315   8.132  66.215  1.00  0.00    -0.196 C  
BRANCH  22  23
HETATM   23  N   UNL     1      -8.376   9.227  65.890  1.00  0.00    -0.115 NA 
HETATM   24  C   UNL     1      -7.483   8.795  64.784  1.00  0.00    -0.100 C  
HETATM   25  C   UNL     1      -8.209   8.632  63.423  1.00  0.00    -0.155 C  
HETATM   26  N   UNL     1      -8.980   9.814  62.984  1.00  0.00    -0.246 NA 
HETATM   27  C   UNL     1      -9.792  10.350  64.100  1.00  0.00    -0.313 C  
HETATM   28  C   UNL     1      -8.087  10.842  62.450  1.00  0.00    -0.194 C  
HETATM   29  C   UNL     1      -9.046  10.470  65.452  1.00  0.00    -0.187 C  
ENDBRANCH  22  23
ENDBRANCH  21  22
ENDBRANCH  20  21
ENDBRANCH  19  20
ENDBRANCH   4   6
ENDBRANCH   3   4
ENDBRANCH   2   3
TORSDOF 7
ENDMDL
MODEL       39
REMARK 921   NORMALIZED FREE ENERGY PREDICTED BY IDOCK:   -5.75 KCAL/MOL
REMARK 922        TOTAL FREE ENERGY PREDICTED BY IDOCK:   -9.06 KCAL/MOL
REMARK 923 INTER-LIGAND FREE ENERGY PREDICTED BY IDOCK:   -8.08 KCAL/MOL
REMARK 924 INTRA-LIGAND FREE ENERGY PREDICTED BY IDOCK:   -0.98 KCAL/MOL
REMARK 927      BINDING AFFINITY PREDICTED BY RF-SCORE:    0.00 PKD
ROOT
HETATM    1  C   UNL     1      -9.532  10.621  68.927  1.00  0.00    -0.199 C  
HETATM    2  C   UNL     1      -8.150  10.207  69.409  1.00  0.00    -0.163 C  
ENDROOT
BRANCH   2   3
HETATM    3  C   UNL     1      -7.065  11.008  68.693  1.00  0.00    -0.080 C  
BRANCH   3   4
HETATM    4  C   UNL     1      -6.498  12.132  69.543  1.00  0.00    -0.100 C  
HETATM    5  O   UNL     1      -6.023  11.955  70.663  1.00  0.00    -0.287 OA 
BRANCH   4   6
HETATM    6  C   UNL     1      -6.484  13.506  68.952  1.00  0.00    -0.102 A  
HETATM    7  C   UNL     1      -7.634  14.306  69.067  1.00  0.00    -0.084 A  
HETATM    8  C   UNL     1      -7.703  15.637  68.581  1.00  0.00    -0.150 A  
HETATM    9  C   UNL     1      -6.544  16.112  67.941  1.00  0.00    -0.139 A  
HETATM   10  S   UNL     1      -6.375  17.736  67.257  1.00  0.00    -0.160 SA 
HETATM   11  C   UNL     1      -5.397  15.304  67.808  1.00  0.00    -0.087 A  
HETATM   12  C   UNL     1      -7.963  18.454  67.574  1.00  0.00    -0.236 A  
HETATM   13  C   UNL     1      -5.362  14.009  68.311  1.00  0.00    -0.112 A  
HETATM   14  C   UNL     1      -8.107  19.777  67.101  1.00  0.00    -0.327 A  
HETATM   15  C   UNL     1      -9.288  20.478  67.273  1.00  0.00    -0.526 A  
HETATM   16  C   UNL     1     -10.343  19.862  67.921  1.00  0.00    -0.545 A  
HETATM   17  C   UNL     1     -10.204  18.546  68.391  1.00  0.00    -0.409 A  
HETATM   18  C   UNL     1      -9.016  17.791  68.243  1.00  0.00    -0.277 A  
HETATM   19  N   UNL     1      -8.871  16.454  68.729  1.00  0.00    -0.236 NA 
BRANCH  19  20
HETATM   20  C   UNL     1      -9.990  15.852  69.491  1.00  0.00    -0.274 C  
BRANCH  20  21
HETATM   21  C   UNL     1     -10.705  14.728  68.720  1.00  0.00    -0.253 C  
BRANCH  21  22
HETATM   22  C   UNL     1     -11.184  15.185  67.341  1.00  0.00    -0.323 C  
BRANCH  22  23
HETATM   23  N   UNL     1     -10.467  14.566  66.206  1.00  0.00    -0.293 NA 
HETATM   24  C   UNL     1     -10.633  13.092  66.265  1.00  0.00    -0.271 C  
HETATM   25  C   UNL     1     -12.080  12.613  65.980  1.00  0.00    -0.364 C  
HETATM   26  N   UNL     1     -12.661  13.112  64.715  1.00  0.00    -0.700 NA 
HETATM   27  C   UNL     1     -12.407  14.562  64.560  1.00  0.00    -0.414 C  
HETATM   28  C   UNL     1     -12.128  12.366  63.575  1.00  0.00    -0.558 C  
HETATM   29  C   UNL     1     -10.961  15.009  64.884  1.00  0.00    -0.413 C  
ENDBRANCH  22  23
ENDBRANCH  21  22
ENDBRANCH  20  21
ENDBRANCH  19  20
ENDBRANCH   4   6
ENDBRANCH   3   4
ENDBRANCH   2   3
TORSDOF 7
ENDMDL
MODEL       40
REMARK 921   NORMALIZED FREE ENERGY PREDICTED BY IDOCK:   -5.75 KCAL/MOL
REMARK 922        TOTAL FREE ENERGY PREDICTED BY IDOCK:   -9.06 KCAL/MOL
REMARK 923 INTER-LIGAND FREE ENERGY PREDICTED BY IDOCK:   -8.12 KCAL/MOL
REMARK 924 INTRA-LIGAND FREE ENERGY PREDICTED BY IDOCK:   -0.95 KCAL/MOL
REMARK 927      BINDING AFFINITY PREDICTED BY RF-SCORE:    0.00 PKD
ROOT
HETATM    1  C   UNL     1     -10.434  17.475  68.505  1.00  0.00    -0.361 C  
HETATM    2  C   UNL     1     -10.350  16.069  69.080  1.00  0.00    -0.247 C  
ENDROOT
BRANCH   2   3
HETATM    3  C   UNL     1     -11.741  15.542  69.424  1.00  0.00    -0.382 C  
BRANCH   3   4
HETATM    4  C   UNL     1     -11.895  14.054  69.159  1.00  0.00    -0.350 C  
HETATM    5  O   UNL     1     -12.263  13.252  70.016  1.00  0.00    -0.317 OA 
BRANCH   4   6
HETATM    6  C   UNL     1     -11.626  13.567  67.771  1.00  0.00    -0.374 A  
HETATM    7  C   UNL     1     -10.762  12.473  67.591  1.00  0.00    -0.242 A  
HETATM    8  C   UNL     1     -10.481  11.911  66.320  1.00  0.00    -0.239 A  
HETATM    9  C   UNL     1     -11.104  12.537  65.225  1.00  0.00    -0.297 A  
HETATM   10  S   UNL     1     -10.919  12.021  63.542  1.00  0.00    -0.438 SA 
HETATM   11  C   UNL     1     -11.955  13.646  65.403  1.00  0.00    -0.400 A  
HETATM   12  C   UNL     1      -9.801  10.654  63.678  1.00  0.00    -0.333 A  
HETATM   13  C   UNL     1     -12.219  14.159  66.666  1.00  0.00    -0.450 A  
HETATM   14  C   UNL     1      -9.464  10.054  62.445  1.00  0.00    -0.224 A  
HETATM   15  C   UNL     1      -8.602   8.973  62.382  1.00  0.00    -0.220 A  
HETATM   16  C   UNL     1      -8.065   8.478  63.556  1.00  0.00    -0.155 A  
HETATM   17  C   UNL     1      -8.397   9.072  64.784  1.00  0.00    -0.181 A  
HETATM   18  C   UNL     1      -9.275  10.177  64.899  1.00  0.00    -0.232 A  
HETATM   19  N   UNL     1      -9.620  10.777  66.150  1.00  0.00    -0.187 NA 
BRANCH  19  20
HETATM   20  C   UNL     1      -9.093  10.172  67.396  1.00  0.00    -0.137 C  
BRANCH  20  21
HETATM   21  C   UNL     1     -10.018   9.087  67.974  1.00  0.00    -0.213 C  
BRANCH  21  22
HETATM   22  C   UNL     1     -10.482   9.417  69.393  1.00  0.00    -0.220 C  
BRANCH  22  23
HETATM   23  N   UNL     1      -9.942   8.523  70.440  1.00  0.00    -0.181 NA 
HETATM   24  C   UNL     1     -10.649   8.783  71.720  1.00  0.00    -0.347 C  
HETATM   25  C   UNL     1     -12.137   8.344  71.713  1.00  0.00    -0.328 C  
HETATM   26  N   UNL     1     -12.368   6.939  71.313  1.00  0.00    -0.375 NA 
HETATM   27  C   UNL     1     -11.579   6.605  70.106  1.00  0.00    -0.386 C  
HETATM   28  C   UNL     1     -12.044   6.031  72.413  1.00  0.00    -0.115 C  
HETATM   29  C   UNL     1     -10.107   7.086  70.133  1.00  0.00    -0.187 C  
ENDBRANCH  22  23
ENDBRANCH  21  22
ENDBRANCH  20  21
ENDBRANCH  19  20
ENDBRANCH   4   6
ENDBRANCH   3   4
ENDBRANCH   2   3
TORSDOF 7
ENDMDL
MODEL       41
REMARK 921   NORMALIZED FREE ENERGY PREDICTED BY IDOCK:   -5.74 KCAL/MOL
REMARK 922        TOTAL FREE ENERGY PREDICTED BY IDOCK:   -9.05 KCAL/MOL
REMARK 923 INTER-LIGAND FREE ENERGY PREDICTED BY IDOCK:   -8.15 KCAL/MOL
REMARK 924 INTRA-LIGAND FREE ENERGY PREDICTED BY IDOCK:   -0.90 KCAL/MOL
REMARK 927      BINDING AFFINITY PREDICTED BY RF-SCORE:    0.00 PKD
ROOT
HETATM    1  C   UNL     1     -10.869  16.178  68.469  1.00  0.00    -0.313 C  
HETATM    2  C   UNL     1     -10.807  15.235  67.277  1.00  0.00    -0.318 C  
ENDROOT
BRANCH   2   3
HETATM    3  C   UNL     1     -11.978  14.256  67.302  1.00  0.00    -0.439 C  
BRANCH   3   4
HETATM    4  C   UNL     1     -12.322  13.707  65.928  1.00  0.00    -0.471 C  
HETATM    5  O   UNL     1     -13.291  14.089  65.273  1.00  0.00    -0.741 OA 
BRANCH   4   6
HETATM    6  C   UNL     1     -11.402  12.685  65.341  1.00  0.00    -0.348 A  
HETATM    7  C   UNL     1     -11.074  11.549  66.101  1.00  0.00    -0.302 A  
HETATM    8  C   UNL     1     -10.247  10.505  65.614  1.00  0.00    -0.246 A  
HETATM    9  C   UNL     1      -9.740  10.684  64.314  1.00  0.00    -0.314 A  
HETATM   10  S   UNL     1      -8.695   9.524  63.481  1.00  0.00    -0.201 SA 
HETATM   11  C   UNL     1     -10.053  11.832  63.559  1.00  0.00    -0.463 A  
HETATM   12  C   UNL     1      -8.495   8.246  64.692  1.00  0.00    -0.051 A  
HETATM   13  C   UNL     1     -10.880  12.827  64.064  1.00  0.00    -0.458 A  
HETATM   14  C   UNL     1      -7.668   7.179  64.279  1.00  0.00    -0.117 A  
HETATM   15  C   UNL     1      -7.415   6.102  65.110  1.00  0.00    -0.085 A  
HETATM   16  C   UNL     1      -7.987   6.080  66.369  1.00  0.00    -0.105 A  
HETATM   17  C   UNL     1      -8.809   7.140  66.784  1.00  0.00    -0.137 A  
HETATM   18  C   UNL     1      -9.100   8.261  65.969  1.00  0.00    -0.176 A  
HETATM   19  N   UNL     1      -9.943   9.337  66.387  1.00  0.00    -0.277 NA 
BRANCH  19  20
HETATM   20  C   UNL     1     -10.606   9.245  67.709  1.00  0.00    -0.246 C  
BRANCH  20  21
HETATM   21  C   UNL     1      -9.727   9.765  68.860  1.00  0.00    -0.172 C  
BRANCH  21  22
HETATM   22  C   UNL     1     -10.360   9.521  70.229  1.00  0.00    -0.269 C  
BRANCH  22  23
HETATM   23  N   UNL     1      -9.624   8.567  71.086  1.00  0.00    -0.177 NA 
HETATM   24  C   UNL     1     -10.302   8.466  72.404  1.00  0.00    -0.329 C  
HETATM   25  C   UNL     1     -11.689   7.776  72.341  1.00  0.00    -0.341 C  
HETATM   26  N   UNL     1     -11.693   6.446  71.696  1.00  0.00    -0.312 NA 
HETATM   27  C   UNL     1     -10.918   6.477  70.435  1.00  0.00    -0.298 C  
HETATM   28  C   UNL     1     -11.165   5.431  72.606  1.00  0.00    -0.275 C  
HETATM   29  C   UNL     1      -9.553   7.201  70.525  1.00  0.00    -0.169 C  
ENDBRANCH  22  23
ENDBRANCH  21  22
ENDBRANCH  20  21
ENDBRANCH  19  20
ENDBRANCH   4   6
ENDBRANCH   3   4
ENDBRANCH   2   3
TORSDOF 7
ENDMDL
MODEL       42
REMARK 921   NORMALIZED FREE ENERGY PREDICTED BY IDOCK:   -5.73 KCAL/MOL
REMARK 922        TOTAL FREE ENERGY PREDICTED BY IDOCK:   -9.03 KCAL/MOL
REMARK 923 INTER-LIGAND FREE ENERGY PREDICTED BY IDOCK:   -8.07 KCAL/MOL
REMARK 924 INTRA-LIGAND FREE ENERGY PREDICTED BY IDOCK:   -0.96 KCAL/MOL
REMARK 927      BINDING AFFINITY PREDICTED BY RF-SCORE:    0.00 PKD
ROOT
HETATM    1  C   UNL     1     -10.672  10.188  69.853  1.00  0.00    -0.340 C  
HETATM    2  C   UNL     1      -9.599   9.371  69.148  1.00  0.00    -0.163 C  
ENDROOT
BRANCH   2   3
HETATM    3  C   UNL     1      -8.306  10.173  69.022  1.00  0.00    -0.138 C  
BRANCH   3   4
HETATM    4  C   UNL     1      -8.304  11.112  67.828  1.00  0.00    -0.123 C  
HETATM    5  O   UNL     1      -8.540  10.741  66.679  1.00  0.00    -0.135 OA 
BRANCH   4   6
HETATM    6  C   UNL     1      -8.044  12.562  68.089  1.00  0.00    -0.167 A  
HETATM    7  C   UNL     1      -8.923  13.516  67.549  1.00  0.00    -0.210 A  
HETATM    8  C   UNL     1      -8.788  14.910  67.778  1.00  0.00    -0.173 A  
HETATM    9  C   UNL     1      -7.689  15.294  68.569  1.00  0.00    -0.128 A  
HETATM   10  S   UNL     1      -7.307  16.966  69.003  1.00  0.00    -0.201 SA 
HETATM   11  C   UNL     1      -6.796  14.338  69.094  1.00  0.00    -0.120 A  
HETATM   12  C   UNL     1      -8.585  17.879  68.183  1.00  0.00    -0.264 A  
HETATM   13  C   UNL     1      -6.971  12.980  68.861  1.00  0.00    -0.088 A  
HETATM   14  C   UNL     1      -8.502  19.278  68.356  1.00  0.00    -0.386 A  
HETATM   15  C   UNL     1      -9.428  20.130  67.781  1.00  0.00    -0.479 A  
HETATM   16  C   UNL     1     -10.450  19.592  67.022  1.00  0.00    -0.587 A  
HETATM   17  C   UNL     1     -10.536  18.201  66.846  1.00  0.00    -0.372 A  
HETATM   18  C   UNL     1      -9.615  17.290  67.417  1.00  0.00    -0.252 A  
HETATM   19  N   UNL     1      -9.706  15.873  67.246  1.00  0.00    -0.222 NA 
BRANCH  19  20
HETATM   20  C   UNL     1     -10.859  15.322  66.496  1.00  0.00    -0.311 C  
BRANCH  20  21
HETATM   21  C   UNL     1     -11.888  14.626  67.404  1.00  0.00    -0.374 C  
BRANCH  21  22
HETATM   22  C   UNL     1     -12.007  15.302  68.770  1.00  0.00    -0.251 C  
BRANCH  22  23
HETATM   23  N   UNL     1     -11.672  14.433  69.918  1.00  0.00    -0.287 NA 
HETATM   24  C   UNL     1     -10.943  15.227  70.939  1.00  0.00    -0.246 C  
HETATM   25  C   UNL     1     -11.819  16.296  71.642  1.00  0.00    -0.416 C  
HETATM   26  N   UNL     1     -13.070  15.781  72.237  1.00  0.00    -0.451 NA 
HETATM   27  C   UNL     1     -13.767  14.882  71.289  1.00  0.00    -0.435 C  
HETATM   28  C   UNL     1     -12.795  15.094  73.499  1.00  0.00    -0.526 C  
HETATM   29  C   UNL     1     -12.857  13.848  70.581  1.00  0.00    -0.222 C  
ENDBRANCH  22  23
ENDBRANCH  21  22
ENDBRANCH  20  21
ENDBRANCH  19  20
ENDBRANCH   4   6
ENDBRANCH   3   4
ENDBRANCH   2   3
TORSDOF 7
ENDMDL
MODEL       43
REMARK 921   NORMALIZED FREE ENERGY PREDICTED BY IDOCK:   -5.73 KCAL/MOL
REMARK 922        TOTAL FREE ENERGY PREDICTED BY IDOCK:   -9.02 KCAL/MOL
REMARK 923 INTER-LIGAND FREE ENERGY PREDICTED BY IDOCK:   -8.13 KCAL/MOL
REMARK 924 INTRA-LIGAND FREE ENERGY PREDICTED BY IDOCK:   -0.90 KCAL/MOL
REMARK 927      BINDING AFFINITY PREDICTED BY RF-SCORE:    0.00 PKD
ROOT
HETATM    1  C   UNL     1     -10.005  19.630  66.781  1.00  0.00    -0.521 C  
HETATM    2  C   UNL     1     -10.713  18.520  67.543  1.00  0.00    -0.419 C  
ENDROOT
BRANCH   2   3
HETATM    3  C   UNL     1      -9.833  17.996  68.675  1.00  0.00    -0.383 C  
BRANCH   3   4
HETATM    4  C   UNL     1     -10.286  16.646  69.204  1.00  0.00    -0.309 C  
HETATM    5  O   UNL     1     -11.188  16.515  70.029  1.00  0.00    -0.314 OA 
BRANCH   4   6
HETATM    6  C   UNL     1      -9.622  15.427  68.647  1.00  0.00    -0.204 A  
HETATM    7  C   UNL     1     -10.312  14.203  68.681  1.00  0.00    -0.243 A  
HETATM    8  C   UNL     1      -9.786  13.003  68.138  1.00  0.00    -0.228 A  
HETATM    9  C   UNL     1      -8.499  13.101  67.577  1.00  0.00    -0.198 A  
HETATM   10  S   UNL     1      -7.630  11.751  66.831  1.00  0.00    -0.077 SA 
HETATM   11  C   UNL     1      -7.800  14.324  67.560  1.00  0.00    -0.209 A  
HETATM   12  C   UNL     1      -8.762  10.404  67.037  1.00  0.00    -0.130 A  
HETATM   13  C   UNL     1      -8.354  15.482  68.088  1.00  0.00    -0.145 A  
HETATM   14  C   UNL     1      -8.294   9.171  66.531  1.00  0.00    -0.119 A  
HETATM   15  C   UNL     1      -9.061   8.022  66.614  1.00  0.00    -0.199 A  
HETATM   16  C   UNL     1     -10.309   8.093  67.205  1.00  0.00    -0.373 A  
HETATM   17  C   UNL     1     -10.777   9.316  67.711  1.00  0.00    -0.270 A  
HETATM   18  C   UNL     1     -10.031  10.518  67.647  1.00  0.00    -0.173 A  
HETATM   19  N   UNL     1     -10.510  11.766  68.153  1.00  0.00    -0.194 NA 
BRANCH  19  20
HETATM   20  C   UNL     1     -11.883  11.826  68.707  1.00  0.00    -0.320 C  
BRANCH  20  21
HETATM   21  C   UNL     1     -11.922  11.654  70.235  1.00  0.00    -0.445 C  
BRANCH  21  22
HETATM   22  C   UNL     1     -12.764  10.451  70.661  1.00  0.00    -0.333 C  
BRANCH  22  23
HETATM   23  N   UNL     1     -12.328   9.808  71.919  1.00  0.00    -0.368 NA 
HETATM   24  C   UNL     1     -13.346   8.813  72.340  1.00  0.00    -0.399 C  
HETATM   25  C   UNL     1     -13.435   7.576  71.409  1.00  0.00    -0.317 C  
HETATM   26  N   UNL     1     -12.151   6.881  71.175  1.00  0.00    -0.366 NA 
HETATM   27  C   UNL     1     -11.079   7.856  70.871  1.00  0.00    -0.255 C  
HETATM   28  C   UNL     1     -11.794   6.058  72.329  1.00  0.00    -0.250 C  
HETATM   29  C   UNL     1     -11.039   9.093  71.801  1.00  0.00    -0.367 C  
ENDBRANCH  22  23
ENDBRANCH  21  22
ENDBRANCH  20  21
ENDBRANCH  19  20
ENDBRANCH   4   6
ENDBRANCH   3   4
ENDBRANCH   2   3
TORSDOF 7
ENDMDL
MODEL       44
REMARK 921   NORMALIZED FREE ENERGY PREDICTED BY IDOCK:   -5.72 KCAL/MOL
REMARK 922        TOTAL FREE ENERGY PREDICTED BY IDOCK:   -9.02 KCAL/MOL
REMARK 923 INTER-LIGAND FREE ENERGY PREDICTED BY IDOCK:   -7.89 KCAL/MOL
REMARK 924 INTRA-LIGAND FREE ENERGY PREDICTED BY IDOCK:   -1.13 KCAL/MOL
REMARK 927      BINDING AFFINITY PREDICTED BY RF-SCORE:    0.00 PKD
ROOT
HETATM    1  C   UNL     1     -11.491   6.136  71.336  1.00  0.00    -0.317 C  
HETATM    2  C   UNL     1     -12.669   7.085  71.491  1.00  0.00    -0.425 C  
ENDROOT
BRANCH   2   3
HETATM    3  C   UNL     1     -12.275   8.304  72.323  1.00  0.00    -0.428 C  
BRANCH   3   4
HETATM    4  C   UNL     1     -11.020   8.990  71.814  1.00  0.00    -0.372 C  
HETATM    5  O   UNL     1      -9.912   8.833  72.325  1.00  0.00    -0.308 OA 
BRANCH   4   6
HETATM    6  C   UNL     1     -11.148   9.858  70.603  1.00  0.00    -0.409 A  
HETATM    7  C   UNL     1     -10.563   9.434  69.398  1.00  0.00    -0.235 A  
HETATM    8  C   UNL     1     -10.669  10.165  68.187  1.00  0.00    -0.244 A  
HETATM    9  C   UNL     1     -11.384  11.374  68.265  1.00  0.00    -0.286 A  
HETATM   10  S   UNL     1     -11.663  12.460  66.896  1.00  0.00    -0.313 SA 
HETATM   11  C   UNL     1     -11.955  11.809  69.477  1.00  0.00    -0.364 A  
HETATM   12  C   UNL     1     -10.816  11.638  65.574  1.00  0.00    -0.279 A  
HETATM   13  C   UNL     1     -11.843  11.058  70.641  1.00  0.00    -0.434 A  
HETATM   14  C   UNL     1     -10.869  12.320  64.338  1.00  0.00    -0.370 A  
HETATM   15  C   UNL     1     -10.257  11.807  63.207  1.00  0.00    -0.452 A  
HETATM   16  C   UNL     1      -9.584  10.604  63.299  1.00  0.00    -0.382 A  
HETATM   17  C   UNL     1      -9.528   9.923  64.526  1.00  0.00    -0.328 A  
HETATM   18  C   UNL     1     -10.140  10.405  65.709  1.00  0.00    -0.262 A  
HETATM   19  N   UNL     1     -10.091   9.709  66.956  1.00  0.00    -0.200 NA 
BRANCH  19  20
HETATM   20  C   UNL     1      -9.433   8.383  67.003  1.00  0.00    -0.174 C  
BRANCH  20  21
HETATM   21  C   UNL     1     -10.415   7.217  66.798  1.00  0.00    -0.300 C  
BRANCH  21  22
HETATM   22  C   UNL     1     -10.221   6.107  67.831  1.00  0.00    -0.175 C  
BRANCH  22  23
HETATM   23  N   UNL     1      -8.855   5.542  67.877  1.00  0.00    -0.106 NA 
HETATM   24  C   UNL     1      -8.658   4.840  69.171  1.00  0.00    -0.080 C  
HETATM   25  C   UNL     1      -9.503   3.547  69.316  1.00  0.00    -0.163 C  
HETATM   26  N   UNL     1      -9.346   2.576  68.213  1.00  0.00    -0.204 NA 
HETATM   27  C   UNL     1      -9.413   3.260  66.902  1.00  0.00    -0.115 C  
HETATM   28  C   UNL     1      -8.090   1.839  68.351  1.00  0.00    -0.056 C  
HETATM   29  C   UNL     1      -8.584   4.564  66.802  1.00  0.00    -0.104 C  
ENDBRANCH  22  23
ENDBRANCH  21  22
ENDBRANCH  20  21
ENDBRANCH  19  20
ENDBRANCH   4   6
ENDBRANCH   3   4
ENDBRANCH   2   3
TORSDOF 7
ENDMDL
MODEL       45
REMARK 921   NORMALIZED FREE ENERGY PREDICTED BY IDOCK:   -5.72 KCAL/MOL
REMARK 922        TOTAL FREE ENERGY PREDICTED BY IDOCK:   -9.01 KCAL/MOL
REMARK 923 INTER-LIGAND FREE ENERGY PREDICTED BY IDOCK:   -7.98 KCAL/MOL
REMARK 924 INTRA-LIGAND FREE ENERGY PREDICTED BY IDOCK:   -1.03 KCAL/MOL
REMARK 927      BINDING AFFINITY PREDICTED BY RF-SCORE:    0.00 PKD
ROOT
HETATM    1  C   UNL     1     -12.281  13.979  64.578  1.00  0.00    -0.463 C  
HETATM    2  C   UNL     1     -10.792  14.266  64.455  1.00  0.00    -0.305 C  
ENDROOT
BRANCH   2   3
HETATM    3  C   UNL     1     -10.394  15.439  65.348  1.00  0.00    -0.422 C  
BRANCH   3   4
HETATM    4  C   UNL     1      -9.668  15.005  66.610  1.00  0.00    -0.258 C  
HETATM    5  O   UNL     1      -8.461  15.167  66.782  1.00  0.00    -0.242 OA 
BRANCH   4   6
HETATM    6  C   UNL     1     -10.486  14.396  67.703  1.00  0.00    -0.245 A  
HETATM    7  C   UNL     1     -10.350  13.023  67.968  1.00  0.00    -0.237 A  
HETATM    8  C   UNL     1     -11.047  12.363  69.012  1.00  0.00    -0.235 A  
HETATM    9  C   UNL     1     -11.920  13.169  69.767  1.00  0.00    -0.314 A  
HETATM   10  S   UNL     1     -12.896  12.587  71.124  1.00  0.00    -0.108 SA 
HETATM   11  C   UNL     1     -12.072  14.542  69.489  1.00  0.00    -0.348 A  
HETATM   12  C   UNL     1     -12.486  10.864  71.181  1.00  0.00    -0.405 A  
HETATM   13  C   UNL     1     -11.359  15.156  68.467  1.00  0.00    -0.321 A  
HETATM   14  C   UNL     1     -13.158  10.141  72.191  1.00  0.00    -0.463 A  
HETATM   15  C   UNL     1     -12.945   8.785  72.368  1.00  0.00    -0.442 A  
HETATM   16  C   UNL     1     -12.055   8.134  71.534  1.00  0.00    -0.332 A  
HETATM   17  C   UNL     1     -11.385   8.849  70.528  1.00  0.00    -0.268 A  
HETATM   18  C   UNL     1     -11.567  10.236  70.311  1.00  0.00    -0.316 A  
HETATM   19  N   UNL     1     -10.880  10.967  69.292  1.00  0.00    -0.230 NA 
BRANCH  19  20
HETATM   20  C   UNL     1      -9.872  10.259  68.469  1.00  0.00    -0.164 C  
BRANCH  20  21
HETATM   21  C   UNL     1     -10.488   9.531  67.261  1.00  0.00    -0.328 C  
BRANCH  21  22
HETATM   22  C   UNL     1      -9.726   8.254  66.904  1.00  0.00    -0.225 C  
BRANCH  22  23
HETATM   23  N   UNL     1      -9.661   7.252  67.989  1.00  0.00    -0.138 NA 
HETATM   24  C   UNL     1     -10.769   6.278  67.823  1.00  0.00    -0.306 C  
HETATM   25  C   UNL     1     -10.614   5.360  66.583  1.00  0.00    -0.294 C  
HETATM   26  N   UNL     1      -9.325   4.641  66.498  1.00  0.00    -0.138 NA 
HETATM   27  C   UNL     1      -8.198   5.558  66.781  1.00  0.00    -0.105 C  
HETATM   28  C   UNL     1      -9.311   3.501  67.415  1.00  0.00    -0.206 C  
HETATM   29  C   UNL     1      -8.399   6.482  68.007  1.00  0.00    -0.116 C  
ENDBRANCH  22  23
ENDBRANCH  21  22
ENDBRANCH  20  21
ENDBRANCH  19  20
ENDBRANCH   4   6
ENDBRANCH   3   4
ENDBRANCH   2   3
TORSDOF 7
ENDMDL
MODEL       46
REMARK 921   NORMALIZED FREE ENERGY PREDICTED BY IDOCK:   -5.70 KCAL/MOL
REMARK 922        TOTAL FREE ENERGY PREDICTED BY IDOCK:   -8.98 KCAL/MOL
REMARK 923 INTER-LIGAND FREE ENERGY PREDICTED BY IDOCK:   -7.98 KCAL/MOL
REMARK 924 INTRA-LIGAND FREE ENERGY PREDICTED BY IDOCK:   -1.00 KCAL/MOL
REMARK 927      BINDING AFFINITY PREDICTED BY RF-SCORE:    0.00 PKD
ROOT
HETATM    1  C   UNL     1     -11.515  14.493  69.355  1.00  0.00    -0.323 C  
HETATM    2  C   UNL     1     -12.193  13.504  70.292  1.00  0.00    -0.417 C  
ENDROOT
BRANCH   2   3
HETATM    3  C   UNL     1     -12.095  12.084  69.741  1.00  0.00    -0.317 C  
BRANCH   3   4
HETATM    4  C   UNL     1     -12.250  11.019  70.812  1.00  0.00    -0.380 C  
HETATM    5  O   UNL     1     -13.042  11.116  71.749  1.00  0.00    -0.467 OA 
BRANCH   4   6
HETATM    6  C   UNL     1     -11.424   9.779  70.680  1.00  0.00    -0.397 A  
HETATM    7  C   UNL     1     -11.156   9.275  69.396  1.00  0.00    -0.063 A  
HETATM    8  C   UNL     1     -10.347   8.134  69.165  1.00  0.00    -0.220 A  
HETATM    9  C   UNL     1      -9.837   7.505  70.316  1.00  0.00    -0.183 A  
HETATM   10  S   UNL     1      -8.798   6.073  70.295  1.00  0.00    -0.145 SA 
HETATM   11  C   UNL     1     -10.121   7.999  71.605  1.00  0.00    -0.238 A  
HETATM   12  C   UNL     1      -8.664   5.720  68.564  1.00  0.00    -0.111 A  
HETATM   13  C   UNL     1     -10.906   9.130  71.791  1.00  0.00    -0.416 A  
HETATM   14  C   UNL     1      -7.882   4.583  68.263  1.00  0.00    -0.080 A  
HETATM   15  C   UNL     1      -7.679   4.177  66.955  1.00  0.00    -0.092 A  
HETATM   16  C   UNL     1      -8.258   4.903  65.931  1.00  0.00    -0.113 A  
HETATM   17  C   UNL     1      -9.037   6.033  66.227  1.00  0.00    -0.160 A  
HETATM   18  C   UNL     1      -9.271   6.490  67.547  1.00  0.00    -0.113 A  
HETATM   19  N   UNL     1     -10.057   7.645  67.849  1.00  0.00    -0.176 NA 
BRANCH  19  20
HETATM   20  C   UNL     1     -10.596   8.449  66.727  1.00  0.00    -0.156 C  
BRANCH  20  21
HETATM   21  C   UNL     1      -9.624   9.543  66.252  1.00  0.00    -0.287 C  
BRANCH  21  22
HETATM   22  C   UNL     1     -10.149  10.292  65.027  1.00  0.00    -0.283 C  
BRANCH  22  23
HETATM   23  N   UNL     1      -9.804  11.729  64.990  1.00  0.00    -0.246 NA 
HETATM   24  C   UNL     1     -10.264  12.311  63.703  1.00  0.00    -0.403 C  
HETATM   25  C   UNL     1     -11.807  12.388  63.568  1.00  0.00    -0.521 C  
HETATM   26  N   UNL     1     -12.494  13.077  64.681  1.00  0.00    -0.585 NA 
HETATM   27  C   UNL     1     -11.972  12.611  65.985  1.00  0.00    -0.417 C  
HETATM   28  C   UNL     1     -12.353  14.528  64.554  1.00  0.00    -0.414 C  
HETATM   29  C   UNL     1     -10.429  12.515  66.075  1.00  0.00    -0.258 C  
ENDBRANCH  22  23
ENDBRANCH  21  22
ENDBRANCH  20  21
ENDBRANCH  19  20
ENDBRANCH   4   6
ENDBRANCH   3   4
ENDBRANCH   2   3
TORSDOF 7
ENDMDL
MODEL       47
REMARK 921   NORMALIZED FREE ENERGY PREDICTED BY IDOCK:   -5.68 KCAL/MOL
REMARK 922        TOTAL FREE ENERGY PREDICTED BY IDOCK:   -8.97 KCAL/MOL
REMARK 923 INTER-LIGAND FREE ENERGY PREDICTED BY IDOCK:   -8.18 KCAL/MOL
REMARK 924 INTRA-LIGAND FREE ENERGY PREDICTED BY IDOCK:   -0.78 KCAL/MOL
REMARK 927      BINDING AFFINITY PREDICTED BY RF-SCORE:    0.00 PKD
ROOT
HETATM    1  C   UNL     1     -12.163  16.082  73.131  1.00  0.00    -0.636 C  
HETATM    2  C   UNL     1     -12.855  14.731  73.227  1.00  0.00    -0.621 C  
ENDROOT
BRANCH   2   3
HETATM    3  C   UNL     1     -13.532  14.376  71.906  1.00  0.00    -0.479 C  
BRANCH   3   4
HETATM    4  C   UNL     1     -12.621  13.616  70.957  1.00  0.00    -0.363 C  
HETATM    5  O   UNL     1     -11.917  14.167  70.113  1.00  0.00    -0.292 OA 
BRANCH   4   6
HETATM    6  C   UNL     1     -12.557  12.129  71.103  1.00  0.00    -0.360 A  
HETATM    7  C   UNL     1     -11.662  11.405  70.297  1.00  0.00    -0.397 A  
HETATM    8  C   UNL     1     -11.496  10.000  70.394  1.00  0.00    -0.314 A  
HETATM    9  C   UNL     1     -12.312   9.353  71.340  1.00  0.00    -0.357 A  
HETATM   10  S   UNL     1     -12.288   7.612  71.655  1.00  0.00    -0.337 SA 
HETATM   11  C   UNL     1     -13.224  10.075  72.135  1.00  0.00    -0.489 A  
HETATM   12  C   UNL     1     -11.077   7.028  70.501  1.00  0.00    -0.280 A  
HETATM   13  C   UNL     1     -13.347  11.455  72.022  1.00  0.00    -0.388 A  
HETATM   14  C   UNL     1     -10.872   5.631  70.532  1.00  0.00    -0.315 A  
HETATM   15  C   UNL     1      -9.956   5.020  69.693  1.00  0.00    -0.311 A  
HETATM   16  C   UNL     1      -9.234   5.801  68.809  1.00  0.00    -0.128 A  
HETATM   17  C   UNL     1      -9.436   7.190  68.775  1.00  0.00    -0.141 A  
HETATM   18  C   UNL     1     -10.358   7.860  69.615  1.00  0.00    -0.216 A  
HETATM   19  N   UNL     1     -10.559   9.275  69.586  1.00  0.00    -0.224 NA 
BRANCH  19  20
HETATM   20  C   UNL     1      -9.711  10.093  68.687  1.00  0.00    -0.163 C  
BRANCH  20  21
HETATM   21  C   UNL     1     -10.350  10.326  67.307  1.00  0.00    -0.284 C  
BRANCH  21  22
HETATM   22  C   UNL     1      -9.306  10.424  66.194  1.00  0.00    -0.172 C  
BRANCH  22  23
HETATM   23  N   UNL     1      -9.398   9.363  65.169  1.00  0.00    -0.248 NA 
HETATM   24  C   UNL     1      -8.758   9.835  63.915  1.00  0.00    -0.218 C  
HETATM   25  C   UNL     1      -7.219   9.992  64.020  1.00  0.00    -0.129 C  
HETATM   26  N   UNL     1      -6.503   8.793  64.503  1.00  0.00    -0.067 NA 
HETATM   27  C   UNL     1      -7.186   8.219  65.684  1.00  0.00    -0.071 C  
HETATM   28  C   UNL     1      -6.386   7.798  63.437  1.00  0.00    -0.063 C  
HETATM   29  C   UNL     1      -8.725   8.105  65.558  1.00  0.00    -0.120 C  
ENDBRANCH  22  23
ENDBRANCH  21  22
ENDBRANCH  20  21
ENDBRANCH  19  20
ENDBRANCH   4   6
ENDBRANCH   3   4
ENDBRANCH   2   3
TORSDOF 7
ENDMDL
MODEL       48
REMARK 921   NORMALIZED FREE ENERGY PREDICTED BY IDOCK:   -5.68 KCAL/MOL
REMARK 922        TOTAL FREE ENERGY PREDICTED BY IDOCK:   -8.97 KCAL/MOL
REMARK 923 INTER-LIGAND FREE ENERGY PREDICTED BY IDOCK:   -8.10 KCAL/MOL
REMARK 924 INTRA-LIGAND FREE ENERGY PREDICTED BY IDOCK:   -0.87 KCAL/MOL
REMARK 927      BINDING AFFINITY PREDICTED BY RF-SCORE:    0.00 PKD
ROOT
HETATM    1  C   UNL     1     -10.058   4.633  65.624  1.00  0.00    -0.238 C  
HETATM    2  C   UNL     1      -8.679   4.094  65.974  1.00  0.00    -0.115 C  
ENDROOT
BRANCH   2   3
HETATM    3  C   UNL     1      -7.823   5.180  66.622  1.00  0.00    -0.100 C  
BRANCH   3   4
HETATM    4  C   UNL     1      -7.680   5.006  68.124  1.00  0.00    -0.083 C  
HETATM    5  O   UNL     1      -6.709   4.464  68.650  1.00  0.00    -0.044 OA 
BRANCH   4   6
HETATM    6  C   UNL     1      -8.760   5.568  68.992  1.00  0.00    -0.102 A  
HETATM    7  C   UNL     1      -9.026   6.947  68.937  1.00  0.00    -0.131 A  
HETATM    8  C   UNL     1     -10.059   7.567  69.686  1.00  0.00    -0.189 A  
HETATM    9  C   UNL     1     -10.801   6.713  70.523  1.00  0.00    -0.261 A  
HETATM   10  S   UNL     1     -12.143   7.239  71.550  1.00  0.00    -0.350 SA 
HETATM   11  C   UNL     1     -10.523   5.333  70.592  1.00  0.00    -0.306 A  
HETATM   12  C   UNL     1     -12.205   8.982  71.238  1.00  0.00    -0.312 A  
HETATM   13  C   UNL     1      -9.512   4.760  69.831  1.00  0.00    -0.231 A  
HETATM   14  C   UNL     1     -13.204   9.667  71.965  1.00  0.00    -0.546 A  
HETATM   15  C   UNL     1     -13.383  11.033  71.832  1.00  0.00    -0.423 A  
HETATM   16  C   UNL     1     -12.561  11.733  70.968  1.00  0.00    -0.409 A  
HETATM   17  C   UNL     1     -11.566  11.056  70.244  1.00  0.00    -0.414 A  
HETATM   18  C   UNL     1     -11.348   9.661  70.344  1.00  0.00    -0.277 A  
HETATM   19  N   UNL     1     -10.340   8.970  69.602  1.00  0.00    -0.206 NA 
BRANCH  19  20
HETATM   20  C   UNL     1      -9.531   9.734  68.624  1.00  0.00    -0.151 C  
BRANCH  20  21
HETATM   21  C   UNL     1     -10.115   9.695  67.201  1.00  0.00    -0.276 C  
BRANCH  21  22
HETATM   22  C   UNL     1     -11.024  10.891  66.914  1.00  0.00    -0.223 C  
BRANCH  22  23
HETATM   23  N   UNL     1     -10.379  11.987  66.160  1.00  0.00    -0.219 NA 
HETATM   24  C   UNL     1     -10.804  11.921  64.739  1.00  0.00    -0.307 C  
HETATM   25  C   UNL     1     -12.300  12.268  64.517  1.00  0.00    -0.384 C  
HETATM   26  N   UNL     1     -12.728  13.563  65.088  1.00  0.00    -0.682 NA 
HETATM   27  C   UNL     1     -12.215  13.719  66.468  1.00  0.00    -0.430 C  
HETATM   28  C   UNL     1     -12.285  14.670  64.241  1.00  0.00    -0.408 C  
HETATM   29  C   UNL     1     -10.728  13.334  66.660  1.00  0.00    -0.280 C  
ENDBRANCH  22  23
ENDBRANCH  21  22
ENDBRANCH  20  21
ENDBRANCH  19  20
ENDBRANCH   4   6
ENDBRANCH   3   4
ENDBRANCH   2   3
TORSDOF 7
ENDMDL
MODEL       49
REMARK 921   NORMALIZED FREE ENERGY PREDICTED BY IDOCK:   -5.63 KCAL/MOL
REMARK 922        TOTAL FREE ENERGY PREDICTED BY IDOCK:   -8.89 KCAL/MOL
REMARK 923 INTER-LIGAND FREE ENERGY PREDICTED BY IDOCK:   -7.87 KCAL/MOL
REMARK 924 INTRA-LIGAND FREE ENERGY PREDICTED BY IDOCK:   -1.02 KCAL/MOL
REMARK 927      BINDING AFFINITY PREDICTED BY RF-SCORE:    0.00 PKD
ROOT
HETATM    1  C   UNL     1     -12.019  14.392  64.622  1.00  0.00    -0.475 C  
HETATM    2  C   UNL     1     -11.203  15.670  64.749  1.00  0.00    -0.391 C  
ENDROOT
BRANCH   2   3
HETATM    3  C   UNL     1      -9.991  15.449  65.651  1.00  0.00    -0.396 C  
BRANCH   3   4
HETATM    4  C   UNL     1     -10.133  16.113  67.010  1.00  0.00    -0.270 C  
HETATM    5  O   UNL     1      -9.707  17.240  67.256  1.00  0.00    -0.252 OA 
BRANCH   4   6
HETATM    6  C   UNL     1     -10.869  15.362  68.073  1.00  0.00    -0.292 A  
HETATM    7  C   UNL     1     -10.722  13.966  68.144  1.00  0.00    -0.260 A  
HETATM    8  C   UNL     1     -11.341  13.173  69.143  1.00  0.00    -0.281 A  
HETATM    9  C   UNL     1     -12.149  13.869  70.061  1.00  0.00    -0.345 A  
HETATM   10  S   UNL     1     -13.021  13.109  71.401  1.00  0.00    -0.225 SA 
HETATM   11  C   UNL     1     -12.312  15.266  69.979  1.00  0.00    -0.366 A  
HETATM   12  C   UNL     1     -12.619  11.396  71.200  1.00  0.00    -0.386 A  
HETATM   13  C   UNL     1     -11.676  16.012  68.995  1.00  0.00    -0.322 A  
HETATM   14  C   UNL     1     -13.217  10.543  72.154  1.00  0.00    -0.398 A  
HETATM   15  C   UNL     1     -13.000   9.177  72.134  1.00  0.00    -0.498 A  
HETATM   16  C   UNL     1     -12.180   8.644  71.156  1.00  0.00    -0.272 A  
HETATM   17  C   UNL     1     -11.585   9.488  70.204  1.00  0.00    -0.156 A  
HETATM   18  C   UNL     1     -11.774  10.891  70.186  1.00  0.00    -0.347 A  
HETATM   19  N   UNL     1     -11.163  11.752  69.223  1.00  0.00    -0.258 NA 
BRANCH  19  20
HETATM   20  C   UNL     1     -10.226  11.162  68.238  1.00  0.00    -0.182 C  
BRANCH  20  21
HETATM   21  C   UNL     1     -10.942  10.506  67.045  1.00  0.00    -0.247 C  
BRANCH  21  22
HETATM   22  C   UNL     1     -10.083   9.437  66.369  1.00  0.00    -0.262 C  
BRANCH  22  23
HETATM   23  N   UNL     1      -8.682   9.839  66.123  1.00  0.00    -0.134 NA 
HETATM   24  C   UNL     1      -7.820   8.630  66.112  1.00  0.00    -0.098 C  
HETATM   25  C   UNL     1      -8.064   7.699  64.897  1.00  0.00    -0.128 C  
HETATM   26  N   UNL     1      -7.978   8.362  63.578  1.00  0.00    -0.156 NA 
HETATM   27  C   UNL     1      -8.727   9.639  63.588  1.00  0.00    -0.224 C  
HETATM   28  C   UNL     1      -6.581   8.582  63.203  1.00  0.00    -0.090 C  
HETATM   29  C   UNL     1      -8.484  10.530  64.831  1.00  0.00    -0.158 C  
ENDBRANCH  22  23
ENDBRANCH  21  22
ENDBRANCH  20  21
ENDBRANCH  19  20
ENDBRANCH   4   6
ENDBRANCH   3   4
ENDBRANCH   2   3
TORSDOF 7
ENDMDL
MODEL       50
REMARK 921   NORMALIZED FREE ENERGY PREDICTED BY IDOCK:   -5.60 KCAL/MOL
REMARK 922        TOTAL FREE ENERGY PREDICTED BY IDOCK:   -8.85 KCAL/MOL
REMARK 923 INTER-LIGAND FREE ENERGY PREDICTED BY IDOCK:   -8.12 KCAL/MOL
REMARK 924 INTRA-LIGAND FREE ENERGY PREDICTED BY IDOCK:   -0.74 KCAL/MOL
REMARK 927      BINDING AFFINITY PREDICTED BY RF-SCORE:    0.00 PKD
ROOT
HETATM    1  C   UNL     1     -12.339  13.285  63.635  1.00  0.00    -0.456 C  
HETATM    2  C   UNL     1     -11.457  12.116  63.220  1.00  0.00    -0.410 C  
ENDROOT
BRANCH   2   3
HETATM    3  C   UNL     1     -10.152  12.117  64.012  1.00  0.00    -0.357 C  
BRANCH   3   4
HETATM    4  C   UNL     1      -9.527  10.737  64.129  1.00  0.00    -0.268 C  
HETATM    5  O   UNL     1      -8.840  10.232  63.243  1.00  0.00    -0.179 OA 
BRANCH   4   6
HETATM    6  C   UNL     1      -9.733   9.992  65.409  1.00  0.00    -0.368 A  
HETATM    7  C   UNL     1     -10.488  10.592  66.430  1.00  0.00    -0.276 A  
HETATM    8  C   UNL     1     -10.776   9.948  67.661  1.00  0.00    -0.281 A  
HETATM    9  C   UNL     1     -10.231   8.660  67.817  1.00  0.00    -0.225 A  
HETATM   10  S   UNL     1     -10.452   7.649  69.252  1.00  0.00    -0.202 SA 
HETATM   11  C   UNL     1      -9.458   8.065  66.800  1.00  0.00    -0.259 A  
HETATM   12  C   UNL     1     -11.430   8.685  70.306  1.00  0.00    -0.076 A  
HETATM   13  C   UNL     1      -9.210   8.722  65.601  1.00  0.00    -0.244 A  
HETATM   14  C   UNL     1     -11.741   8.110  71.558  1.00  0.00    -0.325 A  
HETATM   15  C   UNL     1     -12.500   8.792  72.494  1.00  0.00    -0.368 A  
HETATM   16  C   UNL     1     -12.957  10.061  72.187  1.00  0.00    -0.460 A  
HETATM   17  C   UNL     1     -12.648  10.636  70.944  1.00  0.00    -0.503 A  
HETATM   18  C   UNL     1     -11.879   9.977  69.955  1.00  0.00    -0.074 A  
HETATM   19  N   UNL     1     -11.571  10.559  68.686  1.00  0.00    -0.267 NA 
BRANCH  19  20
HETATM   20  C   UNL     1     -12.143  11.885  68.356  1.00  0.00    -0.020 C  
BRANCH  20  21
HETATM   21  C   UNL     1     -11.194  13.049  68.690  1.00  0.00    -0.316 C  
BRANCH  21  22
HETATM   22  C   UNL     1     -11.383  13.559  70.119  1.00  0.00     0.109 C  
BRANCH  22  23
HETATM   23  N   UNL     1     -12.100  14.847  70.222  1.00  0.00    -0.303 NA 
HETATM   24  C   UNL     1     -13.477  14.604  70.721  1.00  0.00    -0.148 C  
HETATM   25  C   UNL     1     -13.534  14.131  72.196  1.00  0.00    -0.454 C  
HETATM   26  N   UNL     1     -12.823  15.002  73.156  1.00  0.00    -0.469 NA 
HETATM   27  C   UNL     1     -11.487  15.370  72.635  1.00  0.00    -0.299 C  
HETATM   28  C   UNL     1     -13.613  16.198  73.448  1.00  0.00    -0.203 C  
HETATM   29  C   UNL     1     -11.462  15.806  71.149  1.00  0.00    -0.414 C  
ENDBRANCH  22  23
ENDBRANCH  21  22
ENDBRANCH  20  21
ENDBRANCH  19  20
ENDBRANCH   4   6
ENDBRANCH   3   4
ENDBRANCH   2   3
TORSDOF 7
ENDMDL
MODEL       51
REMARK 921   NORMALIZED FREE ENERGY PREDICTED BY IDOCK:   -5.57 KCAL/MOL
REMARK 922        TOTAL FREE ENERGY PREDICTED BY IDOCK:   -8.81 KCAL/MOL
REMARK 923 INTER-LIGAND FREE ENERGY PREDICTED BY IDOCK:   -7.80 KCAL/MOL
REMARK 924 INTRA-LIGAND FREE ENERGY PREDICTED BY IDOCK:   -1.01 KCAL/MOL
REMARK 927      BINDING AFFINITY PREDICTED BY RF-SCORE:    0.00 PKD
ROOT
HETATM    1  C   UNL     1      -5.896  10.288  64.443  1.00  0.00    -0.139 C  
HETATM    2  C   UNL     1      -6.568   9.918  63.129  1.00  0.00    -0.126 C  
ENDROOT
BRANCH   2   3
HETATM    3  C   UNL     1      -7.892   9.201  63.382  1.00  0.00    -0.132 C  
BRANCH   3   4
HETATM    4  C   UNL     1      -8.854  10.012  64.232  1.00  0.00    -0.220 C  
HETATM    5  O   UNL     1      -9.339  11.082  63.866  1.00  0.00    -0.214 OA 
BRANCH   4   6
HETATM    6  C   UNL     1      -9.255   9.445  65.556  1.00  0.00    -0.292 A  
HETATM    7  C   UNL     1     -10.011  10.239  66.435  1.00  0.00    -0.287 A  
HETATM    8  C   UNL     1     -10.477   9.775  67.691  1.00  0.00    -0.251 A  
HETATM    9  C   UNL     1     -10.111   8.458  68.029  1.00  0.00    -0.199 A  
HETATM   10  S   UNL     1     -10.573   7.648  69.533  1.00  0.00    -0.205 SA 
HETATM   11  C   UNL     1      -9.336   7.668  67.157  1.00  0.00    -0.180 A  
HETATM   12  C   UNL     1     -11.498   8.901  70.377  1.00  0.00    -0.157 A  
HETATM   13  C   UNL     1      -8.911   8.153  65.926  1.00  0.00    -0.194 A  
HETATM   14  C   UNL     1     -11.980   8.510  71.646  1.00  0.00    -0.372 A  
HETATM   15  C   UNL     1     -12.723   9.375  72.430  1.00  0.00    -0.350 A  
HETATM   16  C   UNL     1     -12.993  10.645  71.954  1.00  0.00    -0.542 A  
HETATM   17  C   UNL     1     -12.514  11.038  70.694  1.00  0.00    -0.465 A  
HETATM   18  C   UNL     1     -11.753  10.188  69.854  1.00  0.00    -0.179 A  
HETATM   19  N   UNL     1     -11.272  10.584  68.568  1.00  0.00    -0.273 NA 
BRANCH  19  20
HETATM   20  C   UNL     1     -11.647  11.921  68.051  1.00  0.00    -0.332 C  
BRANCH  20  21
HETATM   21  C   UNL     1     -10.721  13.041  68.557  1.00  0.00    -0.275 C  
BRANCH  21  22
HETATM   22  C   UNL     1     -10.255  13.962  67.429  1.00  0.00    -0.252 C  
BRANCH  22  23
HETATM   23  N   UNL     1     -11.242  14.983  67.021  1.00  0.00    -0.336 NA 
HETATM   24  C   UNL     1     -11.487  15.911  68.154  1.00  0.00    -0.281 C  
HETATM   25  C   UNL     1     -10.273  16.813  68.496  1.00  0.00    -0.298 C  
HETATM   26  N   UNL     1      -9.729  17.581  67.355  1.00  0.00    -0.268 NA 
HETATM   27  C   UNL     1      -9.587  16.713  66.164  1.00  0.00    -0.294 C  
HETATM   28  C   UNL     1     -10.577  18.735  67.060  1.00  0.00    -0.420 C  
HETATM   29  C   UNL     1     -10.804  15.802  65.871  1.00  0.00    -0.268 C  
ENDBRANCH  22  23
ENDBRANCH  21  22
ENDBRANCH  20  21
ENDBRANCH  19  20
ENDBRANCH   4   6
ENDBRANCH   3   4
ENDBRANCH   2   3
TORSDOF 7
ENDMDL
MODEL       52
REMARK 921   NORMALIZED FREE ENERGY PREDICTED BY IDOCK:   -5.57 KCAL/MOL
REMARK 922        TOTAL FREE ENERGY PREDICTED BY IDOCK:   -8.80 KCAL/MOL
REMARK 923 INTER-LIGAND FREE ENERGY PREDICTED BY IDOCK:   -7.76 KCAL/MOL
REMARK 924 INTRA-LIGAND FREE ENERGY PREDICTED BY IDOCK:   -1.05 KCAL/MOL
REMARK 927      BINDING AFFINITY PREDICTED BY RF-SCORE:    0.00 PKD
ROOT
HETATM    1  C   UNL     1      -7.931  10.724  68.733  1.00  0.00    -0.136 C  
HETATM    2  C   UNL     1      -8.817   9.663  68.096  1.00  0.00    -0.119 C  
ENDROOT
BRANCH   2   3
HETATM    3  C   UNL     1     -10.126  10.276  67.606  1.00  0.00    -0.229 C  
BRANCH   3   4
HETATM    4  C   UNL     1     -10.073  10.704  66.150  1.00  0.00    -0.249 C  
HETATM    5  O   UNL     1      -9.782   9.938  65.232  1.00  0.00    -0.281 OA 
BRANCH   4   6
HETATM    6  C   UNL     1     -10.440  12.119  65.831  1.00  0.00    -0.288 A  
HETATM    7  C   UNL     1      -9.825  13.158  66.551  1.00  0.00    -0.265 A  
HETATM    8  C   UNL     1     -10.073  14.530  66.291  1.00  0.00    -0.295 A  
HETATM    9  C   UNL     1     -11.005  14.800  65.272  1.00  0.00    -0.374 A  
HETATM   10  S   UNL     1     -11.478  16.425  64.756  1.00  0.00     0.144 SA 
HETATM   11  C   UNL     1     -11.635  13.758  64.564  1.00  0.00    -0.413 A  
HETATM   12  C   UNL     1     -10.535  17.463  65.839  1.00  0.00    -0.252 A  
HETATM   13  C   UNL     1     -11.356  12.425  64.836  1.00  0.00    -0.361 A  
HETATM   14  C   UNL     1     -10.745  18.846  65.646  1.00  0.00    -0.214 A  
HETATM   15  C   UNL     1     -10.080  19.788  66.412  1.00  0.00    -0.600 A  
HETATM   16  C   UNL     1      -9.196  19.357  67.383  1.00  0.00    -0.371 A  
HETATM   17  C   UNL     1      -8.986  17.983  67.579  1.00  0.00    -0.249 A  
HETATM   18  C   UNL     1      -9.639  16.982  66.819  1.00  0.00    -0.264 A  
HETATM   19  N   UNL     1      -9.419  15.583  67.013  1.00  0.00    -0.220 NA 
BRANCH  19  20
HETATM   20  C   UNL     1      -8.406  15.155  68.005  1.00  0.00    -0.147 C  
BRANCH  20  21
HETATM   21  C   UNL     1      -8.768  15.556  69.445  1.00  0.00    -0.258 C  
BRANCH  21  22
HETATM   22  C   UNL     1      -9.927  14.730  70.003  1.00  0.00     0.302 C  
BRANCH  22  23
HETATM   23  N   UNL     1     -11.259  15.352  69.844  1.00  0.00    -0.273 NA 
HETATM   24  C   UNL     1     -12.263  14.296  69.557  1.00  0.00    -0.297 C  
HETATM   25  C   UNL     1     -12.535  13.350  70.755  1.00  0.00    -0.341 C  
HETATM   26  N   UNL     1     -12.902  14.033  72.015  1.00  0.00    -0.336 NA 
HETATM   27  C   UNL     1     -11.994  15.173  72.272  1.00  0.00    -0.396 C  
HETATM   28  C   UNL     1     -14.295  14.476  71.973  1.00  0.00    -0.558 C  
HETATM   29  C   UNL     1     -11.719  16.079  71.046  1.00  0.00    -0.417 C  
ENDBRANCH  22  23
ENDBRANCH  21  22
ENDBRANCH  20  21
ENDBRANCH  19  20
ENDBRANCH   4   6
ENDBRANCH   3   4
ENDBRANCH   2   3
TORSDOF 7
ENDMDL
MODEL       53
REMARK 921   NORMALIZED FREE ENERGY PREDICTED BY IDOCK:   -5.57 KCAL/MOL
REMARK 922        TOTAL FREE ENERGY PREDICTED BY IDOCK:   -8.80 KCAL/MOL
REMARK 923 INTER-LIGAND FREE ENERGY PREDICTED BY IDOCK:   -7.75 KCAL/MOL
REMARK 924 INTRA-LIGAND FREE ENERGY PREDICTED BY IDOCK:   -1.05 KCAL/MOL
REMARK 927      BINDING AFFINITY PREDICTED BY RF-SCORE:    0.00 PKD
ROOT
HETATM    1  C   UNL     1      -9.855  16.389  65.832  1.00  0.00    -0.344 C  
HETATM    2  C   UNL     1      -9.211  15.044  66.129  1.00  0.00    -0.294 C  
ENDROOT
BRANCH   2   3
HETATM    3  C   UNL     1      -9.862  14.391  67.346  1.00  0.00    -0.224 C  
BRANCH   3   4
HETATM    4  C   UNL     1     -11.039  13.501  66.985  1.00  0.00    -0.296 C  
HETATM    5  O   UNL     1     -12.128  13.941  66.618  1.00  0.00    -0.423 OA 
BRANCH   4   6
HETATM    6  C   UNL     1     -10.831  12.022  67.041  1.00  0.00    -0.297 A  
HETATM    7  C   UNL     1     -10.897  11.374  68.287  1.00  0.00    -0.253 A  
HETATM    8  C   UNL     1     -10.759   9.970  68.437  1.00  0.00    -0.234 A  
HETATM    9  C   UNL     1     -10.520   9.250  67.252  1.00  0.00    -0.264 A  
HETATM   10  S   UNL     1     -10.318   7.494  67.173  1.00  0.00    -0.338 SA 
HETATM   11  C   UNL     1     -10.434   9.902  66.005  1.00  0.00    -0.112 A  
HETATM   12  C   UNL     1     -10.462   7.013  68.872  1.00  0.00    -0.203 A  
HETATM   13  C   UNL     1     -10.590  11.278  65.896  1.00  0.00    -0.309 A  
HETATM   14  C   UNL     1     -10.318   5.626  69.097  1.00  0.00    -0.328 A  
HETATM   15  C   UNL     1     -10.407   5.091  70.371  1.00  0.00    -0.297 A  
HETATM   16  C   UNL     1     -10.640   5.940  71.437  1.00  0.00    -0.309 A  
HETATM   17  C   UNL     1     -10.782   7.319  71.218  1.00  0.00    -0.243 A  
HETATM   18  C   UNL     1     -10.703   7.912  69.934  1.00  0.00    -0.244 A  
HETATM   19  N   UNL     1     -10.856   9.316  69.709  1.00  0.00    -0.232 NA 
BRANCH  19  20
HETATM   20  C   UNL     1     -11.186  10.187  70.861  1.00  0.00    -0.307 C  
BRANCH  20  21
HETATM   21  C   UNL     1     -12.685  10.525  70.948  1.00  0.00    -0.495 C  
BRANCH  21  22
HETATM   22  C   UNL     1     -12.976  11.605  71.990  1.00  0.00    -0.260 C  
BRANCH  22  23
HETATM   23  N   UNL     1     -13.651  12.808  71.456  1.00  0.00    -0.009 NA 
HETATM   24  C   UNL     1     -13.888  13.769  72.563  1.00  0.00    -0.521 C  
HETATM   25  C   UNL     1     -12.591  14.402  73.131  1.00  0.00    -0.266 C  
HETATM   26  N   UNL     1     -11.717  15.037  72.122  1.00  0.00    -0.377 NA 
HETATM   27  C   UNL     1     -11.556  14.157  70.943  1.00  0.00    -0.005 C  
HETATM   28  C   UNL     1     -12.250  16.341  71.728  1.00  0.00    -0.270 C  
HETATM   29  C   UNL     1     -12.866  13.516  70.423  1.00  0.00     0.004 C  
ENDBRANCH  22  23
ENDBRANCH  21  22
ENDBRANCH  20  21
ENDBRANCH  19  20
ENDBRANCH   4   6
ENDBRANCH   3   4
ENDBRANCH   2   3
TORSDOF 7
ENDMDL
MODEL       54
REMARK 921   NORMALIZED FREE ENERGY PREDICTED BY IDOCK:   -5.56 KCAL/MOL
REMARK 922        TOTAL FREE ENERGY PREDICTED BY IDOCK:   -8.79 KCAL/MOL
REMARK 923 INTER-LIGAND FREE ENERGY PREDICTED BY IDOCK:   -7.90 KCAL/MOL
REMARK 924 INTRA-LIGAND FREE ENERGY PREDICTED BY IDOCK:   -0.89 KCAL/MOL
REMARK 927      BINDING AFFINITY PREDICTED BY RF-SCORE:    0.00 PKD
ROOT
HETATM    1  C   UNL     1     -11.669  15.653  69.426  1.00  0.00    -0.395 C  
HETATM    2  C   UNL     1     -11.498  14.365  70.217  1.00  0.00    -0.255 C  
ENDROOT
BRANCH   2   3
HETATM    3  C   UNL     1     -12.780  13.536  70.183  1.00  0.00    -0.066 C  
BRANCH   3   4
HETATM    4  C   UNL     1     -12.972  12.688  71.429  1.00  0.00    -0.258 C  
HETATM    5  O   UNL     1     -13.395  13.139  72.492  1.00  0.00    -0.534 OA 
BRANCH   4   6
HETATM    6  C   UNL     1     -12.670  11.227  71.324  1.00  0.00    -0.510 A  
HETATM    7  C   UNL     1     -11.520  10.819  70.627  1.00  0.00    -0.314 A  
HETATM    8  C   UNL     1     -11.125   9.462  70.511  1.00  0.00    -0.273 A  
HETATM    9  C   UNL     1     -11.978   8.525  71.122  1.00  0.00    -0.272 A  
HETATM   10  S   UNL     1     -11.703   6.777  71.126  1.00  0.00    -0.361 SA 
HETATM   11  C   UNL     1     -13.142   8.931  71.805  1.00  0.00    -0.423 A  
HETATM   12  C   UNL     1     -10.206   6.621  70.191  1.00  0.00    -0.187 A  
HETATM   13  C   UNL     1     -13.488  10.272  71.910  1.00  0.00    -0.403 A  
HETATM   14  C   UNL     1      -9.762   5.291  70.023  1.00  0.00    -0.263 A  
HETATM   15  C   UNL     1      -8.607   5.001  69.318  1.00  0.00    -0.096 A  
HETATM   16  C   UNL     1      -7.880   6.042  68.770  1.00  0.00    -0.100 A  
HETATM   17  C   UNL     1      -8.319   7.366  68.933  1.00  0.00    -0.129 A  
HETATM   18  C   UNL     1      -9.491   7.712  69.648  1.00  0.00    -0.156 A  
HETATM   19  N   UNL     1      -9.934   9.060  69.822  1.00  0.00    -0.189 NA 
BRANCH  19  20
HETATM   20  C   UNL     1      -9.091  10.157  69.293  1.00  0.00    -0.198 C  
BRANCH  20  21
HETATM   21  C   UNL     1      -9.158  10.281  67.761  1.00  0.00    -0.138 C  
BRANCH  21  22
HETATM   22  C   UNL     1      -9.859  11.564  67.313  1.00  0.00    -0.190 C  
BRANCH  22  23
HETATM   23  N   UNL     1     -11.107  11.350  66.551  1.00  0.00    -0.281 NA 
HETATM   24  C   UNL     1     -11.868  12.623  66.488  1.00  0.00    -0.396 C  
HETATM   25  C   UNL     1     -11.191  13.714  65.618  1.00  0.00    -0.297 C  
HETATM   26  N   UNL     1     -10.850  13.289  64.244  1.00  0.00    -0.400 NA 
HETATM   27  C   UNL     1     -10.197  11.961  64.256  1.00  0.00    -0.311 C  
HETATM   28  C   UNL     1     -12.043  13.275  63.399  1.00  0.00    -0.439 C  
HETATM   29  C   UNL     1     -10.881  10.905  65.160  1.00  0.00    -0.063 C  
ENDBRANCH  22  23
ENDBRANCH  21  22
ENDBRANCH  20  21
ENDBRANCH  19  20
ENDBRANCH   4   6
ENDBRANCH   3   4
ENDBRANCH   2   3
TORSDOF 7
ENDMDL
MODEL       55
REMARK 921   NORMALIZED FREE ENERGY PREDICTED BY IDOCK:   -5.54 KCAL/MOL
REMARK 922        TOTAL FREE ENERGY PREDICTED BY IDOCK:   -8.77 KCAL/MOL
REMARK 923 INTER-LIGAND FREE ENERGY PREDICTED BY IDOCK:   -7.90 KCAL/MOL
REMARK 924 INTRA-LIGAND FREE ENERGY PREDICTED BY IDOCK:   -0.87 KCAL/MOL
REMARK 927      BINDING AFFINITY PREDICTED BY RF-SCORE:    0.00 PKD
ROOT
HETATM    1  C   UNL     1      -9.656  20.213  67.028  1.00  0.00    -0.558 C  
HETATM    2  C   UNL     1     -10.508  19.259  67.852  1.00  0.00    -0.514 C  
ENDROOT
BRANCH   2   3
HETATM    3  C   UNL     1      -9.721  18.000  68.205  1.00  0.00    -0.332 C  
BRANCH   3   4
HETATM    4  C   UNL     1     -10.330  16.735  67.624  1.00  0.00    -0.309 C  
HETATM    5  O   UNL     1     -10.220  16.417  66.442  1.00  0.00    -0.291 OA 
BRANCH   4   6
HETATM    6  C   UNL     1     -11.057  15.825  68.561  1.00  0.00    -0.335 A  
HETATM    7  C   UNL     1     -10.747  14.454  68.553  1.00  0.00    -0.258 A  
HETATM    8  C   UNL     1     -11.348  13.519  69.434  1.00  0.00    -0.233 A  
HETATM    9  C   UNL     1     -12.310  14.044  70.317  1.00  0.00    -0.358 A  
HETATM   10  S   UNL     1     -13.194  13.088  71.515  1.00  0.00    -0.188 SA 
HETATM   11  C   UNL     1     -12.635  15.415  70.313  1.00  0.00    -0.377 A  
HETATM   12  C   UNL     1     -12.569  11.453  71.240  1.00  0.00    -0.374 A  
HETATM   13  C   UNL     1     -12.013  16.304  69.444  1.00  0.00     0.072 A  
HETATM   14  C   UNL     1     -13.138  10.466  72.075  1.00  0.00    -0.521 A  
HETATM   15  C   UNL     1     -12.754   9.139  71.985  1.00  0.00    -0.473 A  
HETATM   16  C   UNL     1     -11.795   8.782  71.054  1.00  0.00    -0.315 A  
HETATM   17  C   UNL     1     -11.229   9.760  70.221  1.00  0.00    -0.347 A  
HETATM   18  C   UNL     1     -11.586  11.129  70.278  1.00  0.00    -0.296 A  
HETATM   19  N   UNL     1     -11.004  12.127  69.436  1.00  0.00    -0.114 NA 
BRANCH  19  20
HETATM   20  C   UNL     1      -9.921  11.727  68.508  1.00  0.00    -0.199 C  
BRANCH  20  21
HETATM   21  C   UNL     1     -10.448  11.210  67.158  1.00  0.00    -0.270 C  
BRANCH  21  22
HETATM   22  C   UNL     1      -9.344  10.580  66.307  1.00  0.00    -0.170 C  
BRANCH  22  23
HETATM   23  N   UNL     1      -9.710   9.293  65.680  1.00  0.00    -0.275 NA 
HETATM   24  C   UNL     1      -8.499   8.678  65.079  1.00  0.00    -0.173 C  
HETATM   25  C   UNL     1      -7.458   8.197  66.123  1.00  0.00    -0.078 C  
HETATM   26  N   UNL     1      -7.993   7.291  67.161  1.00  0.00    -0.109 NA 
HETATM   27  C   UNL     1      -9.270   7.810  67.699  1.00  0.00    -0.136 C  
HETATM   28  C   UNL     1      -8.165   5.940  66.626  1.00  0.00    -0.106 C  
HETATM   29  C   UNL     1     -10.273   8.311  66.631  1.00  0.00    -0.263 C  
ENDBRANCH  22  23
ENDBRANCH  21  22
ENDBRANCH  20  21
ENDBRANCH  19  20
ENDBRANCH   4   6
ENDBRANCH   3   4
ENDBRANCH   2   3
TORSDOF 7
ENDMDL
MODEL       56
REMARK 921   NORMALIZED FREE ENERGY PREDICTED BY IDOCK:   -5.50 KCAL/MOL
REMARK 922        TOTAL FREE ENERGY PREDICTED BY IDOCK:   -8.71 KCAL/MOL
REMARK 923 INTER-LIGAND FREE ENERGY PREDICTED BY IDOCK:   -7.91 KCAL/MOL
REMARK 924 INTRA-LIGAND FREE ENERGY PREDICTED BY IDOCK:   -0.80 KCAL/MOL
REMARK 927      BINDING AFFINITY PREDICTED BY RF-SCORE:    0.00 PKD
ROOT
HETATM    1  C   UNL     1     -12.518  12.737  65.121  1.00  0.00    -0.565 C  
HETATM    2  C   UNL     1     -11.948  13.593  66.242  1.00  0.00    -0.461 C  
ENDROOT
BRANCH   2   3
HETATM    3  C   UNL     1     -11.245  12.723  67.282  1.00  0.00    -0.339 C  
BRANCH   3   4
HETATM    4  C   UNL     1     -11.739  12.972  68.696  1.00  0.00    -0.323 C  
HETATM    5  O   UNL     1     -12.065  14.084  69.110  1.00  0.00    -0.346 OA 
BRANCH   4   6
HETATM    6  C   UNL     1     -11.870  11.789  69.601  1.00  0.00    -0.407 A  
HETATM    7  C   UNL     1     -11.163  10.615  69.291  1.00  0.00    -0.332 A  
HETATM    8  C   UNL     1     -11.186   9.457  70.110  1.00  0.00    -0.219 A  
HETATM    9  C   UNL     1     -11.994   9.540  71.260  1.00  0.00    -0.365 A  
HETATM   10  S   UNL     1     -12.185   8.238  72.442  1.00  0.00    -0.302 SA 
HETATM   11  C   UNL     1     -12.718  10.711  71.561  1.00  0.00    -0.549 A  
HETATM   12  C   UNL     1     -11.180   6.948  71.761  1.00  0.00    -0.252 A  
HETATM   13  C   UNL     1     -12.658  11.831  70.742  1.00  0.00    -0.344 A  
HETATM   14  C   UNL     1     -11.170   5.757  72.520  1.00  0.00    -0.347 A  
HETATM   15  C   UNL     1     -10.430   4.657  72.122  1.00  0.00    -0.219 A  
HETATM   16  C   UNL     1      -9.691   4.734  70.957  1.00  0.00    -0.257 A  
HETATM   17  C   UNL     1      -9.699   5.916  70.198  1.00  0.00    -0.211 A  
HETATM   18  C   UNL     1     -10.436   7.068  70.566  1.00  0.00    -0.208 A  
HETATM   19  N   UNL     1     -10.439   8.274  69.799  1.00  0.00    -0.218 NA 
BRANCH  19  20
HETATM   20  C   UNL     1      -9.572   8.354  68.600  1.00  0.00    -0.149 C  
BRANCH  20  21
HETATM   21  C   UNL     1     -10.315   8.008  67.298  1.00  0.00    -0.371 C  
BRANCH  21  22
HETATM   22  C   UNL     1      -9.399   7.353  66.264  1.00  0.00    -0.111 C  
BRANCH  22  23
HETATM   23  N   UNL     1      -8.854   6.040  66.668  1.00  0.00    -0.122 NA 
HETATM   24  C   UNL     1      -9.973   5.085  66.869  1.00  0.00    -0.212 C  
HETATM   25  C   UNL     1     -10.704   4.694  65.559  1.00  0.00    -0.134 C  
HETATM   26  N   UNL     1      -9.825   4.186  64.485  1.00  0.00    -0.174 NA 
HETATM   27  C   UNL     1      -8.630   5.047  64.338  1.00  0.00    -0.135 C  
HETATM   28  C   UNL     1      -9.438   2.800  64.749  1.00  0.00    -0.128 C  
HETATM   29  C   UNL     1      -7.944   5.444  65.667  1.00  0.00    -0.107 C  
ENDBRANCH  22  23
ENDBRANCH  21  22
ENDBRANCH  20  21
ENDBRANCH  19  20
ENDBRANCH   4   6
ENDBRANCH   3   4
ENDBRANCH   2   3
TORSDOF 7
ENDMDL
MODEL       57
REMARK 921   NORMALIZED FREE ENERGY PREDICTED BY IDOCK:   -5.49 KCAL/MOL
REMARK 922        TOTAL FREE ENERGY PREDICTED BY IDOCK:   -8.69 KCAL/MOL
REMARK 923 INTER-LIGAND FREE ENERGY PREDICTED BY IDOCK:   -7.85 KCAL/MOL
REMARK 924 INTRA-LIGAND FREE ENERGY PREDICTED BY IDOCK:   -0.84 KCAL/MOL
REMARK 927      BINDING AFFINITY PREDICTED BY RF-SCORE:    0.00 PKD
ROOT
HETATM    1  C   UNL     1      -5.734   7.880  65.461  1.00  0.00    -0.037 C  
HETATM    2  C   UNL     1      -6.284   8.750  64.340  1.00  0.00    -0.067 C  
ENDROOT
BRANCH   2   3
HETATM    3  C   UNL     1      -7.036   9.951  64.909  1.00  0.00    -0.132 C  
BRANCH   3   4
HETATM    4  C   UNL     1      -8.545   9.786  64.854  1.00  0.00    -0.167 C  
HETATM    5  O   UNL     1      -9.167   9.618  63.806  1.00  0.00    -0.248 OA 
BRANCH   4   6
HETATM    6  C   UNL     1      -9.288   9.785  66.152  1.00  0.00    -0.243 A  
HETATM    7  C   UNL     1      -9.739  11.008  66.678  1.00  0.00    -0.226 A  
HETATM    8  C   UNL     1     -10.490  11.105  67.877  1.00  0.00    -0.190 A  
HETATM    9  C   UNL     1     -10.741   9.889  68.539  1.00  0.00    -0.226 A  
HETATM   10  S   UNL     1     -11.659   9.743  70.045  1.00  0.00    -0.068 SA 
HETATM   11  C   UNL     1     -10.273   8.665  68.023  1.00  0.00    -0.261 A  
HETATM   12  C   UNL     1     -12.069  11.427  70.411  1.00  0.00    -0.384 A  
HETATM   13  C   UNL     1      -9.553   8.608  66.836  1.00  0.00    -0.254 A  
HETATM   14  C   UNL     1     -12.806  11.600  71.604  1.00  0.00    -0.454 A  
HETATM   15  C   UNL     1     -13.205  12.855  72.027  1.00  0.00    -0.549 A  
HETATM   16  C   UNL     1     -12.870  13.957  71.262  1.00  0.00    -0.435 A  
HETATM   17  C   UNL     1     -12.137  13.790  70.076  1.00  0.00    -0.416 A  
HETATM   18  C   UNL     1     -11.709  12.527  69.600  1.00  0.00    -0.302 A  
HETATM   19  N   UNL     1     -10.969  12.355  68.389  1.00  0.00    -0.227 NA 
BRANCH  19  20
HETATM   20  C   UNL     1     -10.697  13.545  67.550  1.00  0.00    -0.259 C  
BRANCH  20  21
HETATM   21  C   UNL     1      -9.298  14.139  67.786  1.00  0.00    -0.200 C  
BRANCH  21  22
HETATM   22  C   UNL     1      -8.999  15.308  66.847  1.00  0.00    -0.249 C  
BRANCH  22  23
HETATM   23  N   UNL     1      -8.368  16.475  67.499  1.00  0.00    -0.163 NA 
HETATM   24  C   UNL     1      -8.433  17.643  66.584  1.00  0.00    -0.259 C  
HETATM   25  C   UNL     1      -9.870  18.185  66.364  1.00  0.00    -0.353 C  
HETATM   26  N   UNL     1     -10.611  18.503  67.603  1.00  0.00    -0.424 NA 
HETATM   27  C   UNL     1     -10.466  17.411  68.591  1.00  0.00    -0.355 C  
HETATM   28  C   UNL     1     -10.155  19.775  68.163  1.00  0.00    -0.452 C  
HETATM   29  C   UNL     1      -9.025  16.872  68.763  1.00  0.00    -0.256 C  
ENDBRANCH  22  23
ENDBRANCH  21  22
ENDBRANCH  20  21
ENDBRANCH  19  20
ENDBRANCH   4   6
ENDBRANCH   3   4
ENDBRANCH   2   3
TORSDOF 7
ENDMDL
MODEL       58
REMARK 921   NORMALIZED FREE ENERGY PREDICTED BY IDOCK:   -5.46 KCAL/MOL
REMARK 922        TOTAL FREE ENERGY PREDICTED BY IDOCK:   -8.65 KCAL/MOL
REMARK 923 INTER-LIGAND FREE ENERGY PREDICTED BY IDOCK:   -7.36 KCAL/MOL
REMARK 924 INTRA-LIGAND FREE ENERGY PREDICTED BY IDOCK:   -1.29 KCAL/MOL
REMARK 927      BINDING AFFINITY PREDICTED BY RF-SCORE:    0.00 PKD
ROOT
HETATM    1  C   UNL     1      -8.441   8.135  72.252  1.00  0.00    -0.227 C  
HETATM    2  C   UNL     1      -9.703   7.292  72.349  1.00  0.00    -0.186 C  
ENDROOT
BRANCH   2   3
HETATM    3  C   UNL     1     -10.907   8.161  72.707  1.00  0.00    -0.390 C  
BRANCH   3   4
HETATM    4  C   UNL     1     -11.884   8.325  71.556  1.00  0.00    -0.293 C  
HETATM    5  O   UNL     1     -12.693   7.458  71.231  1.00  0.00    -0.349 OA 
BRANCH   4   6
HETATM    6  C   UNL     1     -11.878   9.629  70.824  1.00  0.00    -0.378 A  
HETATM    7  C   UNL     1     -11.466   9.652  69.481  1.00  0.00     0.002 A  
HETATM    8  C   UNL     1     -11.469  10.830  68.690  1.00  0.00    -0.295 A  
HETATM    9  C   UNL     1     -11.889  12.002  69.345  1.00  0.00    -0.324 A  
HETATM   10  S   UNL     1     -11.987  13.594  68.578  1.00  0.00    -0.306 SA 
HETATM   11  C   UNL     1     -12.283  11.984  70.698  1.00  0.00    -0.409 A  
HETATM   12  C   UNL     1     -11.417  13.265  66.933  1.00  0.00    -0.338 A  
HETATM   13  C   UNL     1     -12.282  10.807  71.436  1.00  0.00    -0.374 A  
HETATM   14  C   UNL     1     -11.379  14.400  66.093  1.00  0.00    -0.350 A  
HETATM   15  C   UNL     1     -10.959  14.308  64.778  1.00  0.00    -0.408 A  
HETATM   16  C   UNL     1     -10.570  13.076  64.285  1.00  0.00    -0.434 A  
HETATM   17  C   UNL     1     -10.604  11.945  65.117  1.00  0.00    -0.333 A  
HETATM   18  C   UNL     1     -11.030  11.988  66.467  1.00  0.00    -0.295 A  
HETATM   19  N   UNL     1     -11.073  10.837  67.312  1.00  0.00    -0.305 NA 
BRANCH  19  20
HETATM   20  C   UNL     1     -10.728   9.518  66.732  1.00  0.00    -0.066 C  
BRANCH  20  21
HETATM   21  C   UNL     1      -9.224   9.205  66.804  1.00  0.00    -0.195 C  
BRANCH  21  22
HETATM   22  C   UNL     1      -8.938   7.898  67.543  1.00  0.00    -0.127 C  
BRANCH  22  23
HETATM   23  N   UNL     1     -10.014   6.889  67.448  1.00  0.00    -0.153 NA 
HETATM   24  C   UNL     1      -9.627   5.848  66.463  1.00  0.00    -0.156 C  
HETATM   25  C   UNL     1      -8.446   4.957  66.927  1.00  0.00    -0.106 C  
HETATM   26  N   UNL     1      -8.629   4.322  68.249  1.00  0.00    -0.093 NA 
HETATM   27  C   UNL     1      -9.136   5.305  69.233  1.00  0.00    -0.108 C  
HETATM   28  C   UNL     1      -9.531   3.175  68.149  1.00  0.00    -0.157 C  
HETATM   29  C   UNL     1     -10.293   6.200  68.726  1.00  0.00    -0.209 C  
ENDBRANCH  22  23
ENDBRANCH  21  22
ENDBRANCH  20  21
ENDBRANCH  19  20
ENDBRANCH   4   6
ENDBRANCH   3   4
ENDBRANCH   2   3
TORSDOF 7
ENDMDL
MODEL       59
REMARK 921   NORMALIZED FREE ENERGY PREDICTED BY IDOCK:   -5.43 KCAL/MOL
REMARK 922        TOTAL FREE ENERGY PREDICTED BY IDOCK:   -8.61 KCAL/MOL
REMARK 923 INTER-LIGAND FREE ENERGY PREDICTED BY IDOCK:   -7.65 KCAL/MOL
REMARK 924 INTRA-LIGAND FREE ENERGY PREDICTED BY IDOCK:   -0.96 KCAL/MOL
REMARK 927      BINDING AFFINITY PREDICTED BY RF-SCORE:    0.00 PKD
ROOT
HETATM    1  C   UNL     1      -6.269  14.629  70.179  1.00  0.00    -0.165 C  
HETATM    2  C   UNL     1      -5.614  13.452  70.885  1.00  0.00    -0.197 C  
ENDROOT
BRANCH   2   3
HETATM    3  C   UNL     1      -5.336  12.319  69.900  1.00  0.00    -0.091 C  
BRANCH   3   4
HETATM    4  C   UNL     1      -6.383  11.219  69.948  1.00  0.00    -0.142 C  
HETATM    5  O   UNL     1      -6.586  10.526  70.943  1.00  0.00    -0.347 OA 
BRANCH   4   6
HETATM    6  C   UNL     1      -7.228  11.016  68.732  1.00  0.00    -0.091 A  
HETATM    7  C   UNL     1      -8.083  12.053  68.318  1.00  0.00    -0.155 A  
HETATM    8  C   UNL     1      -8.888  11.973  67.153  1.00  0.00    -0.188 A  
HETATM    9  C   UNL     1      -8.804  10.766  66.435  1.00  0.00    -0.165 A  
HETATM   10  S   UNL     1      -9.702  10.423  64.948  1.00  0.00    -0.332 SA 
HETATM   11  C   UNL     1      -7.962   9.719  66.860  1.00  0.00    -0.105 A  
HETATM   12  C   UNL     1     -10.647  11.904  64.720  1.00  0.00    -0.299 A  
HETATM   13  C   UNL     1      -7.176   9.840  67.999  1.00  0.00    -0.080 A  
HETATM   14  C   UNL     1     -11.486  11.887  63.584  1.00  0.00    -0.551 A  
HETATM   15  C   UNL     1     -12.287  12.970  63.265  1.00  0.00    -0.392 A  
HETATM   16  C   UNL     1     -12.259  14.085  64.082  1.00  0.00    -0.433 A  
HETATM   17  C   UNL     1     -11.428  14.105  65.213  1.00  0.00    -0.330 A  
HETATM   18  C   UNL     1     -10.589  13.025  65.578  1.00  0.00    -0.282 A  
HETATM   19  N   UNL     1      -9.735  13.047  66.724  1.00  0.00    -0.241 NA 
BRANCH  19  20
HETATM   20  C   UNL     1      -9.667  14.287  67.533  1.00  0.00    -0.223 C  
BRANCH  20  21
HETATM   21  C   UNL     1      -8.806  15.383  66.880  1.00  0.00    -0.281 C  
BRANCH  21  22
HETATM   22  C   UNL     1      -9.441  16.768  67.002  1.00  0.00    -0.232 C  
BRANCH  22  23
HETATM   23  N   UNL     1      -8.858  17.793  66.110  1.00  0.00    -0.489 NA 
HETATM   24  C   UNL     1      -9.451  19.116  66.430  1.00  0.00    -0.354 C  
HETATM   25  C   UNL     1      -9.027  19.674  67.814  1.00  0.00    -0.322 C  
HETATM   26  N   UNL     1      -7.567  19.734  68.038  1.00  0.00    -0.294 NA 
HETATM   27  C   UNL     1      -6.922  18.472  67.613  1.00  0.00    -0.209 C  
HETATM   28  C   UNL     1      -6.986  20.877  67.335  1.00  0.00    -0.368 C  
HETATM   29  C   UNL     1      -7.392  17.927  66.242  1.00  0.00    -0.292 C  
ENDBRANCH  22  23
ENDBRANCH  21  22
ENDBRANCH  20  21
ENDBRANCH  19  20
ENDBRANCH   4   6
ENDBRANCH   3   4
ENDBRANCH   2   3
TORSDOF 7
ENDMDL
MODEL       60
REMARK 921   NORMALIZED FREE ENERGY PREDICTED BY IDOCK:   -5.39 KCAL/MOL
REMARK 922        TOTAL FREE ENERGY PREDICTED BY IDOCK:   -8.55 KCAL/MOL
REMARK 923 INTER-LIGAND FREE ENERGY PREDICTED BY IDOCK:   -7.57 KCAL/MOL
REMARK 924 INTRA-LIGAND FREE ENERGY PREDICTED BY IDOCK:   -0.98 KCAL/MOL
REMARK 927      BINDING AFFINITY PREDICTED BY RF-SCORE:    0.00 PKD
ROOT
HETATM    1  C   UNL     1     -12.265  12.396  63.553  1.00  0.00    -0.661 C  
HETATM    2  C   UNL     1     -11.967  13.231  64.789  1.00  0.00    -0.431 C  
ENDROOT
BRANCH   2   3
HETATM    3  C   UNL     1     -10.707  12.728  65.490  1.00  0.00    -0.303 C  
BRANCH   3   4
HETATM    4  C   UNL     1     -10.941  11.462  66.296  1.00  0.00    -0.247 C  
HETATM    5  O   UNL     1     -11.820  11.361  67.151  1.00  0.00    -0.566 OA 
BRANCH   4   6
HETATM    6  C   UNL     1     -10.081  10.278  65.990  1.00  0.00    -0.311 A  
HETATM    7  C   UNL     1     -10.285   9.086  66.706  1.00  0.00    -0.341 A  
HETATM    8  C   UNL     1      -9.553   7.898  66.457  1.00  0.00    -0.212 A  
HETATM    9  C   UNL     1      -8.572   7.986  65.452  1.00  0.00    -0.114 A  
HETATM   10  S   UNL     1      -7.533   6.644  64.950  1.00  0.00    -0.101 SA 
HETATM   11  C   UNL     1      -8.353   9.186  64.747  1.00  0.00    -0.176 A  
HETATM   12  C   UNL     1      -8.050   5.334  66.025  1.00  0.00    -0.110 A  
HETATM   13  C   UNL     1      -9.102  10.326  65.008  1.00  0.00    -0.244 A  
HETATM   14  C   UNL     1      -7.348   4.122  65.841  1.00  0.00    -0.077 A  
HETATM   15  C   UNL     1      -7.636   3.002  66.602  1.00  0.00    -0.076 A  
HETATM   16  C   UNL     1      -8.630   3.082  67.560  1.00  0.00    -0.120 A  
HETATM   17  C   UNL     1      -9.328   4.286  67.746  1.00  0.00    -0.200 A  
HETATM   18  C   UNL     1      -9.073   5.456  66.991  1.00  0.00    -0.112 A  
HETATM   19  N   UNL     1      -9.789   6.679  67.174  1.00  0.00    -0.142 NA 
BRANCH  19  20
HETATM   20  C   UNL     1     -10.903   6.709  68.150  1.00  0.00    -0.263 C  
BRANCH  20  21
HETATM   21  C   UNL     1     -10.426   6.898  69.601  1.00  0.00    -0.240 C  
BRANCH  21  22
HETATM   22  C   UNL     1     -11.585   7.161  70.563  1.00  0.00    -0.290 C  
BRANCH  22  23
HETATM   23  N   UNL     1     -11.300   8.165  71.610  1.00  0.00    -0.253 NA 
HETATM   24  C   UNL     1     -10.839   9.423  70.970  1.00  0.00    -0.336 C  
HETATM   25  C   UNL     1     -11.944  10.158  70.168  1.00  0.00    -0.185 C  
HETATM   26  N   UNL     1     -13.185  10.430  70.925  1.00  0.00    -0.334 NA 
HETATM   27  C   UNL     1     -13.609   9.229  71.678  1.00  0.00    -0.381 C  
HETATM   28  C   UNL     1     -13.000  11.569  71.825  1.00  0.00    -0.394 C  
HETATM   29  C   UNL     1     -12.475   8.501  72.441  1.00  0.00    -0.353 C  
ENDBRANCH  22  23
ENDBRANCH  21  22
ENDBRANCH  20  21
ENDBRANCH  19  20
ENDBRANCH   4   6
ENDBRANCH   3   4
ENDBRANCH   2   3
TORSDOF 7
ENDMDL
MODEL       61
REMARK 921   NORMALIZED FREE ENERGY PREDICTED BY IDOCK:   -5.38 KCAL/MOL
REMARK 922        TOTAL FREE ENERGY PREDICTED BY IDOCK:   -8.54 KCAL/MOL
REMARK 923 INTER-LIGAND FREE ENERGY PREDICTED BY IDOCK:   -7.54 KCAL/MOL
REMARK 924 INTRA-LIGAND FREE ENERGY PREDICTED BY IDOCK:   -1.00 KCAL/MOL
REMARK 927      BINDING AFFINITY PREDICTED BY RF-SCORE:    0.00 PKD
ROOT
HETATM    1  C   UNL     1      -9.142   4.868  65.016  1.00  0.00    -0.133 C  
HETATM    2  C   UNL     1      -8.904   4.916  66.518  1.00  0.00    -0.112 C  
ENDROOT
BRANCH   2   3
HETATM    3  C   UNL     1      -8.794   6.361  67.001  1.00  0.00    -0.115 C  
BRANCH   3   4
HETATM    4  C   UNL     1     -10.093   7.135  66.859  1.00  0.00    -0.238 C  
HETATM    5  O   UNL     1     -11.200   6.599  66.856  1.00  0.00    -0.391 OA 
BRANCH   4   6
HETATM    6  C   UNL     1     -10.003   8.625  66.766  1.00  0.00    -0.343 A  
HETATM    7  C   UNL     1     -10.760   9.408  67.654  1.00  0.00    -0.295 A  
HETATM    8  C   UNL     1     -10.707  10.825  67.675  1.00  0.00    -0.258 A  
HETATM    9  C   UNL     1      -9.860  11.418  66.720  1.00  0.00    -0.206 A  
HETATM   10  S   UNL     1      -9.615  13.162  66.547  1.00  0.00    -0.253 SA 
HETATM   11  C   UNL     1      -9.116  10.634  65.816  1.00  0.00    -0.208 A  
HETATM   12  C   UNL     1     -10.686  13.826  67.792  1.00  0.00    -0.246 A  
HETATM   13  C   UNL     1      -9.181   9.246  65.837  1.00  0.00    -0.277 A  
HETATM   14  C   UNL     1     -10.695  15.237  67.858  1.00  0.00    -0.275 A  
HETATM   15  C   UNL     1     -11.479  15.909  68.780  1.00  0.00    -0.393 A  
HETATM   16  C   UNL     1     -12.266  15.176  69.649  1.00  0.00    -0.292 A  
HETATM   17  C   UNL     1     -12.261  13.773  69.586  1.00  0.00    -0.359 A  
HETATM   18  C   UNL     1     -11.475  13.041  68.663  1.00  0.00    -0.307 A  
HETATM   19  N   UNL     1     -11.462  11.613  68.604  1.00  0.00    -0.261 NA 
BRANCH  19  20
HETATM   20  C   UNL     1     -12.253  10.855  69.602  1.00  0.00    -0.283 C  
BRANCH  20  21
HETATM   21  C   UNL     1     -11.493  10.622  70.919  1.00  0.00    -0.205 C  
BRANCH  21  22
HETATM   22  C   UNL     1     -11.665   9.197  71.444  1.00  0.00    -0.343 C  
BRANCH  22  23
HETATM   23  N   UNL     1     -10.605   8.255  71.027  1.00  0.00    -0.201 NA 
HETATM   24  C   UNL     1      -9.606   8.127  72.118  1.00  0.00    -0.242 C  
HETATM   25  C   UNL     1     -10.146   7.402  73.378  1.00  0.00    -0.338 C  
HETATM   26  N   UNL     1     -10.751   6.078  73.122  1.00  0.00    -0.247 NA 
HETATM   27  C   UNL     1     -11.663   6.138  71.958  1.00  0.00    -0.299 C  
HETATM   28  C   UNL     1      -9.712   5.069  72.916  1.00  0.00    -0.148 C  
HETATM   29  C   UNL     1     -11.105   6.896  70.728  1.00  0.00    -0.275 C  
ENDBRANCH  22  23
ENDBRANCH  21  22
ENDBRANCH  20  21
ENDBRANCH  19  20
ENDBRANCH   4   6
ENDBRANCH   3   4
ENDBRANCH   2   3
TORSDOF 7
ENDMDL
MODEL       62
REMARK 921   NORMALIZED FREE ENERGY PREDICTED BY IDOCK:   -5.38 KCAL/MOL
REMARK 922        TOTAL FREE ENERGY PREDICTED BY IDOCK:   -8.53 KCAL/MOL
REMARK 923 INTER-LIGAND FREE ENERGY PREDICTED BY IDOCK:   -7.54 KCAL/MOL
REMARK 924 INTRA-LIGAND FREE ENERGY PREDICTED BY IDOCK:   -0.99 KCAL/MOL
REMARK 927      BINDING AFFINITY PREDICTED BY RF-SCORE:    0.00 PKD
ROOT
HETATM    1  C   UNL     1     -12.445  15.620  74.213  1.00  0.00    -0.804 C  
HETATM    2  C   UNL     1     -12.112  15.618  72.728  1.00  0.00    -0.572 C  
ENDROOT
BRANCH   2   3
HETATM    3  C   UNL     1     -13.164  14.843  71.939  1.00  0.00    -0.441 C  
BRANCH   3   4
HETATM    4  C   UNL     1     -12.578  14.061  70.776  1.00  0.00    -0.360 C  
HETATM    5  O   UNL     1     -12.128  14.595  69.764  1.00  0.00    -0.302 OA 
BRANCH   4   6
HETATM    6  C   UNL     1     -12.514  12.572  70.907  1.00  0.00    -0.361 A  
HETATM    7  C   UNL     1     -11.718  11.845  70.005  1.00  0.00    -0.366 A  
HETATM    8  C   UNL     1     -11.557  10.438  70.076  1.00  0.00    -0.301 A  
HETATM    9  C   UNL     1     -12.272   9.793  71.102  1.00  0.00    -0.362 A  
HETATM   10  S   UNL     1     -12.233   8.050  71.403  1.00  0.00    -0.299 SA 
HETATM   11  C   UNL     1     -13.085  10.519  71.994  1.00  0.00    -0.511 A  
HETATM   12  C   UNL     1     -11.160   7.462  70.122  1.00  0.00    -0.246 A  
HETATM   13  C   UNL     1     -13.206  11.900  71.903  1.00  0.00    -0.467 A  
HETATM   14  C   UNL     1     -10.966   6.062  70.124  1.00  0.00    -0.429 A  
HETATM   15  C   UNL     1     -10.154   5.448  69.187  1.00  0.00    -0.293 A  
HETATM   16  C   UNL     1      -9.523   6.227  68.235  1.00  0.00    -0.117 A  
HETATM   17  C   UNL     1      -9.714   7.618  68.229  1.00  0.00    -0.166 A  
HETATM   18  C   UNL     1     -10.532   8.292  69.167  1.00  0.00    -0.206 A  
HETATM   19  N   UNL     1     -10.721   9.709  69.168  1.00  0.00    -0.221 NA 
BRANCH  19  20
HETATM   20  C   UNL     1      -9.967  10.525  68.186  1.00  0.00    -0.153 C  
BRANCH  20  21
HETATM   21  C   UNL     1      -8.657  11.094  68.758  1.00  0.00    -0.133 C  
BRANCH  21  22
HETATM   22  C   UNL     1      -7.423  10.410  68.171  1.00  0.00    -0.090 C  
BRANCH  22  23
HETATM   23  N   UNL     1      -6.261  10.347  69.083  1.00  0.00    -0.040 NA 
HETATM   24  C   UNL     1      -6.721   9.943  70.436  1.00  0.00    -0.136 C  
HETATM   25  C   UNL     1      -7.220   8.477  70.515  1.00  0.00    -0.045 C  
HETATM   26  N   UNL     1      -6.265   7.468  70.011  1.00  0.00    -0.027 NA 
HETATM   27  C   UNL     1      -5.689   7.896  68.716  1.00  0.00    -0.031 C  
HETATM   28  C   UNL     1      -5.209   7.222  70.993  1.00  0.00    -0.027 C  
HETATM   29  C   UNL     1      -5.231   9.374  68.662  1.00  0.00    -0.034 C  
ENDBRANCH  22  23
ENDBRANCH  21  22
ENDBRANCH  20  21
ENDBRANCH  19  20
ENDBRANCH   4   6
ENDBRANCH   3   4
ENDBRANCH   2   3
TORSDOF 7
ENDMDL
MODEL       63
REMARK 921   NORMALIZED FREE ENERGY PREDICTED BY IDOCK:   -5.37 KCAL/MOL
REMARK 922        TOTAL FREE ENERGY PREDICTED BY IDOCK:   -8.53 KCAL/MOL
REMARK 923 INTER-LIGAND FREE ENERGY PREDICTED BY IDOCK:   -7.77 KCAL/MOL
REMARK 924 INTRA-LIGAND FREE ENERGY PREDICTED BY IDOCK:   -0.76 KCAL/MOL
REMARK 927      BINDING AFFINITY PREDICTED BY RF-SCORE:    0.00 PKD
ROOT
HETATM    1  C   UNL     1     -12.415  15.650  74.463  1.00  0.00    -0.749 C  
HETATM    2  C   UNL     1     -12.254  15.947  72.980  1.00  0.00    -0.609 C  
ENDROOT
BRANCH   2   3
HETATM    3  C   UNL     1     -13.509  15.545  72.210  1.00  0.00    -0.596 C  
BRANCH   3   4
HETATM    4  C   UNL     1     -13.239  15.252  70.744  1.00  0.00    -0.390 C  
HETATM    5  O   UNL     1     -13.368  16.091  69.854  1.00  0.00     0.363 OA 
BRANCH   4   6
HETATM    6  C   UNL     1     -12.748  13.884  70.392  1.00  0.00    -0.286 A  
HETATM    7  C   UNL     1     -12.262  13.650  69.094  1.00  0.00    -0.265 A  
HETATM    8  C   UNL     1     -11.734  12.401  68.679  1.00  0.00    -0.326 A  
HETATM    9  C   UNL     1     -11.748  11.380  69.648  1.00  0.00    -0.345 A  
HETATM   10  S   UNL     1     -11.141   9.740  69.379  1.00  0.00    -0.120 SA 
HETATM   11  C   UNL     1     -12.254  11.609  70.943  1.00  0.00    -0.401 A  
HETATM   12  C   UNL     1     -10.613   9.796  67.689  1.00  0.00    -0.276 A  
HETATM   13  C   UNL     1     -12.749  12.851  71.318  1.00  0.00    -0.371 A  
HETATM   14  C   UNL     1     -10.089   8.578  67.204  1.00  0.00    -0.331 A  
HETATM   15  C   UNL     1      -9.631   8.459  65.903  1.00  0.00    -0.119 A  
HETATM   16  C   UNL     1      -9.693   9.560  65.070  1.00  0.00    -0.138 A  
HETATM   17  C   UNL     1     -10.214  10.773  65.548  1.00  0.00    -0.330 A  
HETATM   18  C   UNL     1     -10.691  10.944  66.870  1.00  0.00    -0.264 A  
HETATM   19  N   UNL     1     -11.214  12.181  67.361  1.00  0.00    -0.282 NA 
BRANCH  19  20
HETATM   20  C   UNL     1     -11.191  13.364  66.469  1.00  0.00    -0.307 C  
BRANCH  20  21
HETATM   21  C   UNL     1      -9.771  13.747  66.017  1.00  0.00    -0.255 C  
BRANCH  21  22
HETATM   22  C   UNL     1      -9.106  14.739  66.971  1.00  0.00    -0.239 C  
BRANCH  22  23
HETATM   23  N   UNL     1      -8.978  14.261  68.364  1.00  0.00    -0.186 NA 
HETATM   24  C   UNL     1      -7.818  13.339  68.462  1.00  0.00    -0.110 C  
HETATM   25  C   UNL     1      -6.446  14.039  68.277  1.00  0.00    -0.116 C  
HETATM   26  N   UNL     1      -6.216  15.198  69.165  1.00  0.00    -0.103 NA 
HETATM   27  C   UNL     1      -7.404  16.080  69.190  1.00  0.00    -0.209 C  
HETATM   28  C   UNL     1      -5.871  14.752  70.515  1.00  0.00    -0.157 C  
HETATM   29  C   UNL     1      -8.759  15.346  69.344  1.00  0.00    -0.252 C  
ENDBRANCH  22  23
ENDBRANCH  21  22
ENDBRANCH  20  21
ENDBRANCH  19  20
ENDBRANCH   4   6
ENDBRANCH   3   4
ENDBRANCH   2   3
TORSDOF 7
ENDMDL
MODEL       64
REMARK 921   NORMALIZED FREE ENERGY PREDICTED BY IDOCK:   -5.37 KCAL/MOL
REMARK 922        TOTAL FREE ENERGY PREDICTED BY IDOCK:   -8.52 KCAL/MOL
REMARK 923 INTER-LIGAND FREE ENERGY PREDICTED BY IDOCK:   -7.77 KCAL/MOL
REMARK 924 INTRA-LIGAND FREE ENERGY PREDICTED BY IDOCK:   -0.75 KCAL/MOL
REMARK 927      BINDING AFFINITY PREDICTED BY RF-SCORE:    0.00 PKD
ROOT
HETATM    1  C   UNL     1      -9.909  20.295  68.317  1.00  0.00    -0.345 C  
HETATM    2  C   UNL     1     -10.734  19.230  67.610  1.00  0.00    -0.533 C  
ENDROOT
BRANCH   2   3
HETATM    3  C   UNL     1     -10.317  19.108  66.146  1.00  0.00    -0.561 C  
BRANCH   3   4
HETATM    4  C   UNL     1     -10.494  17.704  65.593  1.00  0.00    -0.144 C  
HETATM    5  O   UNL     1     -11.145  17.457  64.579  1.00  0.00    -1.008 OA 
BRANCH   4   6
HETATM    6  C   UNL     1      -9.798  16.588  66.305  1.00  0.00    -0.336 A  
HETATM    7  C   UNL     1     -10.486  15.380  66.511  1.00  0.00    -0.295 A  
HETATM    8  C   UNL     1      -9.898  14.250  67.134  1.00  0.00    -0.252 A  
HETATM    9  C   UNL     1      -8.569  14.416  67.566  1.00  0.00    -0.191 A  
HETATM   10  S   UNL     1      -7.614  13.157  68.362  1.00  0.00    -0.132 SA 
HETATM   11  C   UNL     1      -7.885  15.633  67.377  1.00  0.00    -0.210 A  
HETATM   12  C   UNL     1      -8.756  11.806  68.454  1.00  0.00    -0.155 A  
HETATM   13  C   UNL     1      -8.490  16.713  66.749  1.00  0.00    -0.270 A  
HETATM   14  C   UNL     1      -8.239  10.649  69.078  1.00  0.00    -0.151 A  
HETATM   15  C   UNL     1      -9.007   9.507  69.225  1.00  0.00    -0.160 A  
HETATM   16  C   UNL     1     -10.305   9.509  68.749  1.00  0.00    -0.228 A  
HETATM   17  C   UNL     1     -10.823  10.657  68.129  1.00  0.00    -0.291 A  
HETATM   18  C   UNL     1     -10.076  11.847  67.952  1.00  0.00    -0.192 A  
HETATM   19  N   UNL     1     -10.600  13.013  67.314  1.00  0.00    -0.241 NA 
BRANCH  19  20
HETATM   20  C   UNL     1     -11.965  12.956  66.742  1.00  0.00    -0.350 C  
BRANCH  20  21
HETATM   21  C   UNL     1     -11.997  12.363  65.322  1.00  0.00    -0.461 C  
BRANCH  21  22
HETATM   22  C   UNL     1     -10.603  11.985  64.821  1.00  0.00    -0.297 C  
BRANCH  22  23
HETATM   23  N   UNL     1     -10.522  10.658  64.173  1.00  0.00    -0.255 NA 
HETATM   24  C   UNL     1     -10.055  10.823  62.773  1.00  0.00    -0.001 C  
HETATM   25  C   UNL     1      -8.579  11.285  62.657  1.00  0.00    -0.110 C  
HETATM   26  N   UNL     1      -7.606  10.449  63.392  1.00  0.00    -0.106 NA 
HETATM   27  C   UNL     1      -8.097  10.158  64.758  1.00  0.00    -0.153 C  
HETATM   28  C   UNL     1      -7.337   9.210  62.662  1.00  0.00    -0.096 C  
HETATM   29  C   UNL     1      -9.584   9.731  64.841  1.00  0.00    -0.246 C  
ENDBRANCH  22  23
ENDBRANCH  21  22
ENDBRANCH  20  21
ENDBRANCH  19  20
ENDBRANCH   4   6
ENDBRANCH   3   4
ENDBRANCH   2   3
TORSDOF 7
ENDMDL
MODEL       65
REMARK 921   NORMALIZED FREE ENERGY PREDICTED BY IDOCK:   -5.36 KCAL/MOL
REMARK 922        TOTAL FREE ENERGY PREDICTED BY IDOCK:   -8.52 KCAL/MOL
REMARK 923 INTER-LIGAND FREE ENERGY PREDICTED BY IDOCK:   -7.53 KCAL/MOL
REMARK 924 INTRA-LIGAND FREE ENERGY PREDICTED BY IDOCK:   -0.98 KCAL/MOL
REMARK 927      BINDING AFFINITY PREDICTED BY RF-SCORE:    0.00 PKD
ROOT
HETATM    1  C   UNL     1     -10.660  15.372  66.077  1.00  0.00    -0.330 C  
HETATM    2  C   UNL     1     -11.427  14.797  64.896  1.00  0.00    -0.412 C  
ENDROOT
BRANCH   2   3
HETATM    3  C   UNL     1     -12.137  13.504  65.290  1.00  0.00    -0.439 C  
BRANCH   3   4
HETATM    4  C   UNL     1     -12.096  12.447  64.201  1.00  0.00    -0.453 C  
HETATM    5  O   UNL     1     -12.977  12.321  63.351  1.00  0.00    -0.753 OA 
BRANCH   4   6
HETATM    6  C   UNL     1     -10.897  11.555  64.147  1.00  0.00    -0.435 A  
HETATM    7  C   UNL     1     -10.687  10.636  65.189  1.00  0.00    -0.088 A  
HETATM    8  C   UNL     1      -9.606   9.719  65.206  1.00  0.00    -0.300 A  
HETATM    9  C   UNL     1      -8.722   9.797  64.113  1.00  0.00    -0.213 A  
HETATM   10  S   UNL     1      -7.305   8.760  63.898  1.00  0.00    -0.102 SA 
HETATM   11  C   UNL     1      -8.922  10.731  63.077  1.00  0.00    -0.257 A  
HETATM   12  C   UNL     1      -7.345   7.747  65.350  1.00  0.00    -0.077 A  
HETATM   13  C   UNL     1     -10.002  11.605  63.088  1.00  0.00    -0.400 A  
HETATM   14  C   UNL     1      -6.285   6.818  65.440  1.00  0.00    -0.039 A  
HETATM   15  C   UNL     1      -6.176   5.952  66.514  1.00  0.00    -0.033 A  
HETATM   16  C   UNL     1      -7.128   6.006  67.515  1.00  0.00    -0.074 A  
HETATM   17  C   UNL     1      -8.183   6.929  67.431  1.00  0.00    -0.119 A  
HETATM   18  C   UNL     1      -8.338   7.832  66.351  1.00  0.00    -0.131 A  
HETATM   19  N   UNL     1      -9.416   8.766  66.260  1.00  0.00    -0.216 NA 
BRANCH  19  20
HETATM   20  C   UNL     1     -10.464   8.743  67.307  1.00  0.00    -0.283 C  
BRANCH  20  21
HETATM   21  C   UNL     1     -10.167   9.699  68.476  1.00  0.00    -0.216 C  
BRANCH  21  22
HETATM   22  C   UNL     1     -10.793   9.223  69.787  1.00  0.00    -0.224 C  
BRANCH  22  23
HETATM   23  N   UNL     1     -10.602   7.785  70.074  1.00  0.00    -0.235 NA 
HETATM   24  C   UNL     1      -9.405   7.611  70.934  1.00  0.00    -0.157 C  
HETATM   25  C   UNL     1      -9.582   8.164  72.372  1.00  0.00    -0.265 C  
HETATM   26  N   UNL     1     -10.769   7.655  73.092  1.00  0.00    -0.389 NA 
HETATM   27  C   UNL     1     -11.964   7.697  72.220  1.00  0.00    -0.285 C  
HETATM   28  C   UNL     1     -10.531   6.297  73.581  1.00  0.00    -0.284 C  
HETATM   29  C   UNL     1     -11.744   7.168  70.782  1.00  0.00    -0.323 C  
ENDBRANCH  22  23
ENDBRANCH  21  22
ENDBRANCH  20  21
ENDBRANCH  19  20
ENDBRANCH   4   6
ENDBRANCH   3   4
ENDBRANCH   2   3
TORSDOF 7
ENDMDL
MODEL       66
REMARK 921   NORMALIZED FREE ENERGY PREDICTED BY IDOCK:   -5.36 KCAL/MOL
REMARK 922        TOTAL FREE ENERGY PREDICTED BY IDOCK:   -8.51 KCAL/MOL
REMARK 923 INTER-LIGAND FREE ENERGY PREDICTED BY IDOCK:   -7.36 KCAL/MOL
REMARK 924 INTRA-LIGAND FREE ENERGY PREDICTED BY IDOCK:   -1.15 KCAL/MOL
REMARK 927      BINDING AFFINITY PREDICTED BY RF-SCORE:    0.00 PKD
ROOT
HETATM    1  C   UNL     1      -9.646  10.421  64.322  1.00  0.00    -0.377 C  
HETATM    2  C   UNL     1      -8.213   9.987  64.054  1.00  0.00    -0.156 C  
ENDROOT
BRANCH   2   3
HETATM    3  C   UNL     1      -7.331  10.256  65.271  1.00  0.00    -0.139 C  
BRANCH   3   4
HETATM    4  C   UNL     1      -6.956   8.991  66.024  1.00  0.00    -0.085 C  
HETATM    5  O   UNL     1      -5.903   8.383  65.837  1.00  0.00    -0.042 OA 
BRANCH   4   6
HETATM    6  C   UNL     1      -7.905   8.504  67.072  1.00  0.00    -0.096 A  
HETATM    7  C   UNL     1      -8.731   9.434  67.726  1.00  0.00    -0.116 A  
HETATM    8  C   UNL     1      -9.694   9.064  68.699  1.00  0.00    -0.160 A  
HETATM    9  C   UNL     1      -9.760   7.691  69.001  1.00  0.00    -0.160 A  
HETATM   10  S   UNL     1     -10.879   6.978  70.172  1.00  0.00    -0.267 SA 
HETATM   11  C   UNL     1      -8.918   6.760  68.360  1.00  0.00    -0.124 A  
HETATM   12  C   UNL     1     -11.749   8.394  70.785  1.00  0.00    -0.202 A  
HETATM   13  C   UNL     1      -7.997   7.159  67.399  1.00  0.00    -0.112 A  
HETATM   14  C   UNL     1     -12.715   8.100  71.772  1.00  0.00    -0.356 A  
HETATM   15  C   UNL     1     -13.481   9.098  72.349  1.00  0.00    -0.535 A  
HETATM   16  C   UNL     1     -13.288  10.406  71.945  1.00  0.00    -0.469 A  
HETATM   17  C   UNL     1     -12.328  10.703  70.965  1.00  0.00    -0.507 A  
HETATM   18  C   UNL     1     -11.524   9.717  70.344  1.00  0.00    -0.280 A  
HETATM   19  N   UNL     1     -10.551  10.018  69.340  1.00  0.00    -0.218 NA 
BRANCH  19  20
HETATM   20  C   UNL     1     -10.426  11.417  68.870  1.00  0.00    -0.193 C  
BRANCH  20  21
HETATM   21  C   UNL     1     -11.376  11.747  67.706  1.00  0.00    -0.358 C  
BRANCH  21  22
HETATM   22  C   UNL     1     -10.839  12.871  66.820  1.00  0.00    -0.267 C  
BRANCH  22  23
HETATM   23  N   UNL     1     -11.730  14.045  66.707  1.00  0.00    -0.385 NA 
HETATM   24  C   UNL     1     -11.663  14.835  67.963  1.00  0.00    -0.333 C  
HETATM   25  C   UNL     1     -10.298  15.538  68.186  1.00  0.00    -0.237 C  
HETATM   26  N   UNL     1      -9.843  16.383  67.062  1.00  0.00    -0.244 NA 
HETATM   27  C   UNL     1     -10.012  15.672  65.774  1.00  0.00    -0.359 C  
HETATM   28  C   UNL     1     -10.563  17.656  67.050  1.00  0.00    -0.254 C  
HETATM   29  C   UNL     1     -11.373  14.955  65.598  1.00  0.00    -0.325 C  
ENDBRANCH  22  23
ENDBRANCH  21  22
ENDBRANCH  20  21
ENDBRANCH  19  20
ENDBRANCH   4   6
ENDBRANCH   3   4
ENDBRANCH   2   3
TORSDOF 7
ENDMDL
MODEL       67
REMARK 921   NORMALIZED FREE ENERGY PREDICTED BY IDOCK:   -5.34 KCAL/MOL
REMARK 922        TOTAL FREE ENERGY PREDICTED BY IDOCK:   -8.48 KCAL/MOL
REMARK 923 INTER-LIGAND FREE ENERGY PREDICTED BY IDOCK:   -7.48 KCAL/MOL
REMARK 924 INTRA-LIGAND FREE ENERGY PREDICTED BY IDOCK:   -1.00 KCAL/MOL
REMARK 927      BINDING AFFINITY PREDICTED BY RF-SCORE:    0.00 PKD
ROOT
HETATM    1  C   UNL     1      -5.664  15.823  70.111  1.00  0.00    -0.159 C  
HETATM    2  C   UNL     1      -5.758  17.331  69.930  1.00  0.00    -0.236 C  
ENDROOT
BRANCH   2   3
HETATM    3  C   UNL     1      -6.208  17.677  68.513  1.00  0.00    -0.182 C  
BRANCH   3   4
HETATM    4  C   UNL     1      -7.606  18.270  68.461  1.00  0.00    -0.300 C  
HETATM    5  O   UNL     1      -7.967  19.206  69.172  1.00  0.00    -0.282 OA 
BRANCH   4   6
HETATM    6  C   UNL     1      -8.560  17.704  67.459  1.00  0.00    -0.222 A  
HETATM    7  C   UNL     1      -8.564  16.317  67.233  1.00  0.00    -0.199 A  
HETATM    8  C   UNL     1      -9.462  15.681  66.338  1.00  0.00    -0.292 A  
HETATM    9  C   UNL     1     -10.348  16.534  65.655  1.00  0.00    -0.322 A  
HETATM   10  S   UNL     1     -11.566  15.986  64.493  1.00  0.00    -0.033 SA 
HETATM   11  C   UNL     1     -10.331  17.927  65.866  1.00  0.00    -0.259 A  
HETATM   12  C   UNL     1     -11.302  14.234  64.456  1.00  0.00    -0.334 A  
HETATM   13  C   UNL     1      -9.447  18.512  66.764  1.00  0.00    -0.304 A  
HETATM   14  C   UNL     1     -12.154  13.538  63.571  1.00  0.00    -0.425 A  
HETATM   15  C   UNL     1     -12.075  12.163  63.429  1.00  0.00    -0.608 A  
HETATM   16  C   UNL     1     -11.140  11.467  64.172  1.00  0.00    -0.417 A  
HETATM   17  C   UNL     1     -10.290  12.156  65.052  1.00  0.00    -0.320 A  
HETATM   18  C   UNL     1     -10.335  13.560  65.234  1.00  0.00    -0.331 A  
HETATM   19  N   UNL     1      -9.476  14.261  66.136  1.00  0.00    -0.260 NA 
BRANCH  19  20
HETATM   20  C   UNL     1      -8.541  13.479  66.978  1.00  0.00    -0.157 C  
BRANCH  20  21
HETATM   21  C   UNL     1      -9.156  13.055  68.323  1.00  0.00    -0.179 C  
BRANCH  21  22
HETATM   22  C   UNL     1      -9.064  11.546  68.553  1.00  0.00    -0.157 C  
BRANCH  22  23
HETATM   23  N   UNL     1     -10.343  10.821  68.399  1.00  0.00    -0.171 NA 
HETATM   24  C   UNL     1     -10.082   9.489  67.795  1.00  0.00    -0.198 C  
HETATM   25  C   UNL     1      -9.318   8.517  68.732  1.00  0.00    -0.143 C  
HETATM   26  N   UNL     1      -9.930   8.330  70.065  1.00  0.00    -0.186 NA 
HETATM   27  C   UNL     1     -10.318   9.634  70.648  1.00  0.00    -0.297 C  
HETATM   28  C   UNL     1     -11.083   7.434  69.980  1.00  0.00    -0.220 C  
HETATM   29  C   UNL     1     -11.050  10.592  69.677  1.00  0.00    -0.284 C  
ENDBRANCH  22  23
ENDBRANCH  21  22
ENDBRANCH  20  21
ENDBRANCH  19  20
ENDBRANCH   4   6
ENDBRANCH   3   4
ENDBRANCH   2   3
TORSDOF 7
ENDMDL
MODEL       68
REMARK 921   NORMALIZED FREE ENERGY PREDICTED BY IDOCK:   -5.31 KCAL/MOL
REMARK 922        TOTAL FREE ENERGY PREDICTED BY IDOCK:   -8.45 KCAL/MOL
REMARK 923 INTER-LIGAND FREE ENERGY PREDICTED BY IDOCK:   -7.55 KCAL/MOL
REMARK 924 INTRA-LIGAND FREE ENERGY PREDICTED BY IDOCK:   -0.89 KCAL/MOL
REMARK 927      BINDING AFFINITY PREDICTED BY RF-SCORE:    0.00 PKD
ROOT
HETATM    1  C   UNL     1      -5.631  15.027  69.939  1.00  0.00    -0.115 C  
HETATM    2  C   UNL     1      -6.227  16.413  70.133  1.00  0.00    -0.013 C  
ENDROOT
BRANCH   2   3
HETATM    3  C   UNL     1      -6.037  17.263  68.878  1.00  0.00    -0.182 C  
BRANCH   3   4
HETATM    4  C   UNL     1      -7.228  18.157  68.581  1.00  0.00    -0.281 C  
HETATM    5  O   UNL     1      -7.379  19.268  69.087  1.00  0.00    -0.346 OA 
BRANCH   4   6
HETATM    6  C   UNL     1      -8.231  17.665  67.587  1.00  0.00    -0.225 A  
HETATM    7  C   UNL     1      -8.328  16.283  67.348  1.00  0.00    -0.189 A  
HETATM    8  C   UNL     1      -9.278  15.716  66.460  1.00  0.00    -0.293 A  
HETATM    9  C   UNL     1     -10.116  16.632  65.798  1.00  0.00    -0.277 A  
HETATM   10  S   UNL     1     -11.383  16.177  64.649  1.00  0.00    -0.117 SA 
HETATM   11  C   UNL     1     -10.006  18.019  66.022  1.00  0.00    -0.221 A  
HETATM   12  C   UNL     1     -11.234  14.412  64.591  1.00  0.00    -0.360 A  
HETATM   13  C   UNL     1      -9.073  18.536  66.913  1.00  0.00    -0.290 A  
HETATM   14  C   UNL     1     -12.142  13.782  63.712  1.00  0.00    -0.385 A  
HETATM   15  C   UNL     1     -12.154  12.406  63.555  1.00  0.00    -0.651 A  
HETATM   16  C   UNL     1     -11.256  11.644  64.278  1.00  0.00    -0.392 A  
HETATM   17  C   UNL     1     -10.351  12.267  65.152  1.00  0.00    -0.316 A  
HETATM   18  C   UNL     1     -10.302  13.668  65.348  1.00  0.00    -0.332 A  
HETATM   19  N   UNL     1      -9.387  14.303  66.244  1.00  0.00    -0.249 NA 
BRANCH  19  20
HETATM   20  C   UNL     1      -8.493  13.453  67.065  1.00  0.00    -0.125 C  
BRANCH  20  21
HETATM   21  C   UNL     1      -9.212  12.806  68.262  1.00  0.00    -0.186 C  
BRANCH  21  22
HETATM   22  C   UNL     1      -9.863  13.844  69.177  1.00  0.00     0.174 C  
BRANCH  22  23
HETATM   23  N   UNL     1     -11.268  14.162  68.844  1.00  0.00    -0.253 NA 
HETATM   24  C   UNL     1     -12.165  13.191  69.522  1.00  0.00    -0.158 C  
HETATM   25  C   UNL     1     -12.199  13.344  71.065  1.00  0.00    -0.224 C  
HETATM   26  N   UNL     1     -12.512  14.706  71.548  1.00  0.00    -0.329 NA 
HETATM   27  C   UNL     1     -11.724  15.716  70.805  1.00  0.00    -0.375 C  
HETATM   28  C   UNL     1     -13.945  14.976  71.431  1.00  0.00    -0.479 C  
HETATM   29  C   UNL     1     -11.685  15.515  69.271  1.00  0.00    -0.365 C  
ENDBRANCH  22  23
ENDBRANCH  21  22
ENDBRANCH  20  21
ENDBRANCH  19  20
ENDBRANCH   4   6
ENDBRANCH   3   4
ENDBRANCH   2   3
TORSDOF 7
ENDMDL
MODEL       69
REMARK 921   NORMALIZED FREE ENERGY PREDICTED BY IDOCK:   -5.31 KCAL/MOL
REMARK 922        TOTAL FREE ENERGY PREDICTED BY IDOCK:   -8.44 KCAL/MOL
REMARK 923 INTER-LIGAND FREE ENERGY PREDICTED BY IDOCK:   -7.64 KCAL/MOL
REMARK 924 INTRA-LIGAND FREE ENERGY PREDICTED BY IDOCK:   -0.81 KCAL/MOL
REMARK 927      BINDING AFFINITY PREDICTED BY RF-SCORE:    0.00 PKD
ROOT
HETATM    1  C   UNL     1      -9.753   5.425  67.033  1.00  0.00    -0.162 C  
HETATM    2  C   UNL     1     -10.949   6.346  67.227  1.00  0.00    -0.474 C  
ENDROOT
BRANCH   2   3
HETATM    3  C   UNL     1     -10.534   7.808  67.084  1.00  0.00    -0.413 C  
BRANCH   3   4
HETATM    4  C   UNL     1     -10.314   8.496  68.420  1.00  0.00    -0.202 C  
HETATM    5  O   UNL     1     -10.808   8.096  69.473  1.00  0.00    -0.213 OA 
BRANCH   4   6
HETATM    6  C   UNL     1      -9.414   9.690  68.444  1.00  0.00    -0.143 A  
HETATM    7  C   UNL     1      -9.801  10.846  67.746  1.00  0.00    -0.194 A  
HETATM    8  C   UNL     1      -9.039  12.042  67.746  1.00  0.00    -0.187 A  
HETATM    9  C   UNL     1      -7.836  11.998  68.475  1.00  0.00    -0.129 A  
HETATM   10  S   UNL     1      -6.714  13.358  68.635  1.00  0.00    -0.102 SA 
HETATM   11  C   UNL     1      -7.437  10.833  69.159  1.00  0.00    -0.123 A  
HETATM   12  C   UNL     1      -7.495  14.617  67.663  1.00  0.00    -0.186 A  
HETATM   13  C   UNL     1      -8.219   9.685  69.149  1.00  0.00    -0.120 A  
HETATM   14  C   UNL     1      -6.780  15.834  67.606  1.00  0.00    -0.198 A  
HETATM   15  C   UNL     1      -7.258  16.917  66.889  1.00  0.00    -0.251 A  
HETATM   16  C   UNL     1      -8.460  16.795  66.217  1.00  0.00    -0.342 A  
HETATM   17  C   UNL     1      -9.174  15.587  66.270  1.00  0.00    -0.364 A  
HETATM   18  C   UNL     1      -8.727  14.454  66.992  1.00  0.00    -0.223 A  
HETATM   19  N   UNL     1      -9.457  13.226  67.053  1.00  0.00    -0.235 NA 
BRANCH  19  20
HETATM   20  C   UNL     1     -10.780  13.154  66.391  1.00  0.00    -0.284 C  
BRANCH  20  21
HETATM   21  C   UNL     1     -11.944  13.011  67.388  1.00  0.00    -0.372 C  
BRANCH  21  22
HETATM   22  C   UNL     1     -11.975  14.148  68.409  1.00  0.00    -0.331 C  
BRANCH  22  23
HETATM   23  N   UNL     1     -11.332  13.832  69.702  1.00  0.00    -0.218 NA 
HETATM   24  C   UNL     1     -10.571  15.017  70.174  1.00  0.00    -0.127 C  
HETATM   25  C   UNL     1     -11.468  16.211  70.590  1.00  0.00    -0.361 C  
HETATM   26  N   UNL     1     -12.515  15.886  71.583  1.00  0.00    -0.457 NA 
HETATM   27  C   UNL     1     -13.216  14.637  71.210  1.00  0.00    -0.369 C  
HETATM   28  C   UNL     1     -11.938  15.778  72.922  1.00  0.00    -0.493 C  
HETATM   29  C   UNL     1     -12.292  13.475  70.769  1.00  0.00    -0.363 C  
ENDBRANCH  22  23
ENDBRANCH  21  22
ENDBRANCH  20  21
ENDBRANCH  19  20
ENDBRANCH   4   6
ENDBRANCH   3   4
ENDBRANCH   2   3
TORSDOF 7
ENDMDL
MODEL       70
REMARK 921   NORMALIZED FREE ENERGY PREDICTED BY IDOCK:   -5.31 KCAL/MOL
REMARK 922        TOTAL FREE ENERGY PREDICTED BY IDOCK:   -8.44 KCAL/MOL
REMARK 923 INTER-LIGAND FREE ENERGY PREDICTED BY IDOCK:   -7.58 KCAL/MOL
REMARK 924 INTRA-LIGAND FREE ENERGY PREDICTED BY IDOCK:   -0.86 KCAL/MOL
REMARK 927      BINDING AFFINITY PREDICTED BY RF-SCORE:    0.00 PKD
ROOT
HETATM    1  C   UNL     1     -10.351  16.731  69.100  1.00  0.00    -0.326 C  
HETATM    2  C   UNL     1     -10.889  15.941  70.283  1.00  0.00    -0.349 C  
ENDROOT
BRANCH   2   3
HETATM    3  C   UNL     1     -12.281  15.392  69.978  1.00  0.00    -0.392 C  
BRANCH   3   4
HETATM    4  C   UNL     1     -12.450  13.940  70.390  1.00  0.00    -0.334 C  
HETATM    5  O   UNL     1     -13.067  13.593  71.396  1.00  0.00    -0.340 OA 
BRANCH   4   6
HETATM    6  C   UNL     1     -11.870  12.895  69.491  1.00  0.00    -0.383 A  
HETATM    7  C   UNL     1     -11.808  11.567  69.946  1.00  0.00    -0.430 A  
HETATM    8  C   UNL     1     -11.319  10.498  69.153  1.00  0.00    -0.257 A  
HETATM    9  C   UNL     1     -10.865  10.851  67.868  1.00  0.00    -0.247 A  
HETATM   10  S   UNL     1     -10.216   9.704  66.687  1.00  0.00    -0.212 SA 
HETATM   11  C   UNL     1     -10.909  12.186  67.419  1.00  0.00    -0.286 A  
HETATM   12  C   UNL     1     -10.287   8.167  67.565  1.00  0.00    -0.261 A  
HETATM   13  C   UNL     1     -11.410  13.204  68.220  1.00  0.00    -0.333 A  
HETATM   14  C   UNL     1      -9.799   7.059  66.837  1.00  0.00    -0.259 A  
HETATM   15  C   UNL     1      -9.788   5.788  67.383  1.00  0.00    -0.154 A  
HETATM   16  C   UNL     1     -10.266   5.608  68.668  1.00  0.00    -0.263 A  
HETATM   17  C   UNL     1     -10.750   6.706  69.396  1.00  0.00    -0.303 A  
HETATM   18  C   UNL     1     -10.785   8.024  68.879  1.00  0.00    -0.065 A  
HETATM   19  N   UNL     1     -11.286   9.142  69.616  1.00  0.00    -0.087 NA 
BRANCH  19  20
HETATM   20  C   UNL     1     -11.866   8.904  70.959  1.00  0.00    -0.276 C  
BRANCH  20  21
HETATM   21  C   UNL     1     -10.801   8.808  72.065  1.00  0.00    -0.428 C  
BRANCH  21  22
HETATM   22  C   UNL     1     -11.054   7.635  73.013  1.00  0.00    -0.381 C  
BRANCH  22  23
HETATM   23  N   UNL     1      -9.898   7.266  73.857  1.00  0.00    -0.299 NA 
HETATM   24  C   UNL     1     -10.171   5.966  74.521  1.00  0.00    -0.278 C  
HETATM   25  C   UNL     1     -10.203   4.761  73.545  1.00  0.00    -0.177 C  
HETATM   26  N   UNL     1      -9.005   4.623  72.689  1.00  0.00    -0.123 NA 
HETATM   27  C   UNL     1      -8.628   5.930  72.106  1.00  0.00    -0.129 C  
HETATM   28  C   UNL     1      -7.893   4.052  73.448  1.00  0.00    -0.085 C  
HETATM   29  C   UNL     1      -8.638   7.116  73.100  1.00  0.00    -0.122 C  
ENDBRANCH  22  23
ENDBRANCH  21  22
ENDBRANCH  20  21
ENDBRANCH  19  20
ENDBRANCH   4   6
ENDBRANCH   3   4
ENDBRANCH   2   3
TORSDOF 7
ENDMDL
MODEL       71
REMARK 921   NORMALIZED FREE ENERGY PREDICTED BY IDOCK:   -5.29 KCAL/MOL
REMARK 922        TOTAL FREE ENERGY PREDICTED BY IDOCK:   -8.41 KCAL/MOL
REMARK 923 INTER-LIGAND FREE ENERGY PREDICTED BY IDOCK:   -7.60 KCAL/MOL
REMARK 924 INTRA-LIGAND FREE ENERGY PREDICTED BY IDOCK:   -0.81 KCAL/MOL
REMARK 927      BINDING AFFINITY PREDICTED BY RF-SCORE:    0.00 PKD
ROOT
HETATM    1  C   UNL     1      -8.645  17.851  66.778  1.00  0.00    -0.271 C  
HETATM    2  C   UNL     1      -9.005  16.541  66.094  1.00  0.00    -0.344 C  
ENDROOT
BRANCH   2   3
HETATM    3  C   UNL     1     -10.521  16.381  65.998  1.00  0.00    -0.333 C  
BRANCH   3   4
HETATM    4  C   UNL     1     -10.949  15.453  64.873  1.00  0.00    -0.437 C  
HETATM    5  O   UNL     1     -11.478  15.852  63.837  1.00  0.00    -0.444 OA 
BRANCH   4   6
HETATM    6  C   UNL     1     -10.665  13.994  65.034  1.00  0.00    -0.409 A  
HETATM    7  C   UNL     1     -10.643  13.445  66.327  1.00  0.00    -0.292 A  
HETATM    8  C   UNL     1     -10.428  12.066  66.579  1.00  0.00    -0.221 A  
HETATM    9  C   UNL     1     -10.206  11.266  65.443  1.00  0.00    -0.270 A  
HETATM   10  S   UNL     1      -9.921   9.520  65.491  1.00  0.00     0.026 SA 
HETATM   11  C   UNL     1     -10.209  11.820  64.147  1.00  0.00    -0.363 A  
HETATM   12  C   UNL     1      -9.965   9.170  67.227  1.00  0.00    -0.211 A  
HETATM   13  C   UNL     1     -10.439  13.174  63.939  1.00  0.00    -0.125 A  
HETATM   14  C   UNL     1      -9.742   7.814  67.551  1.00  0.00    -0.201 A  
HETATM   15  C   UNL     1      -9.747   7.378  68.865  1.00  0.00    -0.150 A  
HETATM   16  C   UNL     1      -9.975   8.297  69.873  1.00  0.00    -0.190 A  
HETATM   17  C   UNL     1     -10.195   9.647  69.555  1.00  0.00    -0.233 A  
HETATM   18  C   UNL     1     -10.203  10.139  68.227  1.00  0.00    -0.166 A  
HETATM   19  N   UNL     1     -10.436  11.511  67.901  1.00  0.00    -0.179 NA 
BRANCH  19  20
HETATM   20  C   UNL     1     -10.758  12.455  68.997  1.00  0.00    -0.098 C  
BRANCH  20  21
HETATM   21  C   UNL     1     -12.270  12.690  69.162  1.00  0.00    -0.056 C  
BRANCH  21  22
HETATM   22  C   UNL     1     -12.658  12.969  70.614  1.00  0.00    -0.193 C  
BRANCH  22  23
HETATM   23  N   UNL     1     -13.360  14.252  70.828  1.00  0.00    -0.222 NA 
HETATM   24  C   UNL     1     -13.950  14.268  72.191  1.00  0.00    -0.523 C  
HETATM   25  C   UNL     1     -12.897  14.330  73.327  1.00  0.00    -0.180 C  
HETATM   26  N   UNL     1     -11.924  15.437  73.212  1.00  0.00    -0.461 NA 
HETATM   27  C   UNL     1     -11.404  15.532  71.830  1.00  0.00    -0.384 C  
HETATM   28  C   UNL     1     -12.531  16.701  73.627  1.00  0.00    -0.245 C  
HETATM   29  C   UNL     1     -12.478  15.434  70.719  1.00  0.00    -0.423 C  
ENDBRANCH  22  23
ENDBRANCH  21  22
ENDBRANCH  20  21
ENDBRANCH  19  20
ENDBRANCH   4   6
ENDBRANCH   3   4
ENDBRANCH   2   3
TORSDOF 7
ENDMDL
MODEL       72
REMARK 921   NORMALIZED FREE ENERGY PREDICTED BY IDOCK:   -5.27 KCAL/MOL
REMARK 922        TOTAL FREE ENERGY PREDICTED BY IDOCK:   -8.38 KCAL/MOL
REMARK 923 INTER-LIGAND FREE ENERGY PREDICTED BY IDOCK:   -7.08 KCAL/MOL
REMARK 924 INTRA-LIGAND FREE ENERGY PREDICTED BY IDOCK:   -1.30 KCAL/MOL
REMARK 927      BINDING AFFINITY PREDICTED BY RF-SCORE:    0.00 PKD
ROOT
HETATM    1  C   UNL     1     -11.966  12.365  64.083  1.00  0.00    -0.518 C  
HETATM    2  C   UNL     1     -10.599  13.027  64.166  1.00  0.00    -0.421 C  
ENDROOT
BRANCH   2   3
HETATM    3  C   UNL     1     -10.582  14.097  65.254  1.00  0.00    -0.387 C  
BRANCH   3   4
HETATM    4  C   UNL     1      -9.749  13.705  66.462  1.00  0.00    -0.292 C  
HETATM    5  O   UNL     1      -8.577  14.048  66.612  1.00  0.00    -0.119 OA 
BRANCH   4   6
HETATM    6  C   UNL     1     -10.416  12.899  67.530  1.00  0.00    -0.226 A  
HETATM    7  C   UNL     1      -9.703  11.851  68.136  1.00  0.00    -0.194 A  
HETATM    8  C   UNL     1     -10.232  11.060  69.188  1.00  0.00    -0.166 A  
HETATM    9  C   UNL     1     -11.546  11.373  69.583  1.00  0.00    -0.330 A  
HETATM   10  S   UNL     1     -12.426  10.541  70.874  1.00  0.00    -0.425 SA 
HETATM   11  C   UNL     1     -12.269  12.411  68.963  1.00  0.00    -0.033 A  
HETATM   12  C   UNL     1     -11.261   9.317  71.406  1.00  0.00    -0.362 A  
HETATM   13  C   UNL     1     -11.711  13.174  67.945  1.00  0.00    -0.398 A  
HETATM   14  C   UNL     1     -11.730   8.482  72.445  1.00  0.00    -0.429 A  
HETATM   15  C   UNL     1     -10.938   7.477  72.973  1.00  0.00    -0.443 A  
HETATM   16  C   UNL     1      -9.664   7.294  72.467  1.00  0.00    -0.189 A  
HETATM   17  C   UNL     1      -9.195   8.121  71.434  1.00  0.00    -0.195 A  
HETATM   18  C   UNL     1      -9.966   9.163  70.864  1.00  0.00    -0.288 A  
HETATM   19  N   UNL     1      -9.486  10.011  69.817  1.00  0.00    -0.223 NA 
BRANCH  19  20
HETATM   20  C   UNL     1      -8.089   9.843  69.354  1.00  0.00    -0.139 C  
BRANCH  20  21
HETATM   21  C   UNL     1      -7.917   8.664  68.380  1.00  0.00    -0.113 C  
BRANCH  21  22
HETATM   22  C   UNL     1      -7.201   9.074  67.093  1.00  0.00    -0.083 C  
BRANCH  22  23
HETATM   23  N   UNL     1      -7.525   8.240  65.916  1.00  0.00    -0.079 NA 
HETATM   24  C   UNL     1      -8.970   8.374  65.602  1.00  0.00    -0.134 C  
HETATM   25  C   UNL     1      -9.366   9.776  65.071  1.00  0.00    -0.263 C  
HETATM   26  N   UNL     1      -8.577  10.249  63.914  1.00  0.00    -0.177 NA 
HETATM   27  C   UNL     1      -7.133  10.017  64.139  1.00  0.00    -0.126 C  
HETATM   28  C   UNL     1      -9.023   9.594  62.685  1.00  0.00    -0.263 C  
HETATM   29  C   UNL     1      -6.775   8.618  64.700  1.00  0.00    -0.069 C  
ENDBRANCH  22  23
ENDBRANCH  21  22
ENDBRANCH  20  21
ENDBRANCH  19  20
ENDBRANCH   4   6
ENDBRANCH   3   4
ENDBRANCH   2   3
TORSDOF 7
ENDMDL
MODEL       73
REMARK 921   NORMALIZED FREE ENERGY PREDICTED BY IDOCK:   -5.27 KCAL/MOL
REMARK 922        TOTAL FREE ENERGY PREDICTED BY IDOCK:   -8.38 KCAL/MOL
REMARK 923 INTER-LIGAND FREE ENERGY PREDICTED BY IDOCK:   -7.31 KCAL/MOL
REMARK 924 INTRA-LIGAND FREE ENERGY PREDICTED BY IDOCK:   -1.07 KCAL/MOL
REMARK 927      BINDING AFFINITY PREDICTED BY RF-SCORE:    0.00 PKD
ROOT
HETATM    1  C   UNL     1     -12.184  12.318  63.541  1.00  0.00    -0.669 C  
HETATM    2  C   UNL     1     -12.471  12.751  64.971  1.00  0.00    -0.572 C  
ENDROOT
BRANCH   2   3
HETATM    3  C   UNL     1     -11.190  12.752  65.803  1.00  0.00    -0.341 C  
BRANCH   3   4
HETATM    4  C   UNL     1     -11.290  11.890  67.049  1.00  0.00    -0.329 C  
HETATM    5  O   UNL     1     -11.854  12.258  68.079  1.00  0.00    -0.349 OA 
BRANCH   4   6
HETATM    6  C   UNL     1     -10.710  10.513  66.986  1.00  0.00    -0.310 A  
HETATM    7  C   UNL     1     -10.844   9.668  68.101  1.00  0.00    -0.241 A  
HETATM    8  C   UNL     1     -10.369   8.332  68.121  1.00  0.00    -0.202 A  
HETATM    9  C   UNL     1      -9.719   7.899  66.950  1.00  0.00    -0.219 A  
HETATM   10  S   UNL     1      -9.045   6.278  66.724  1.00  0.00    -0.139 SA 
HETATM   11  C   UNL     1      -9.567   8.752  65.839  1.00  0.00    -0.255 A  
HETATM   12  C   UNL     1      -9.386   5.499  68.278  1.00  0.00    -0.111 A  
HETATM   13  C   UNL     1     -10.060  10.050  65.851  1.00  0.00    -0.319 A  
HETATM   14  C   UNL     1      -8.924   4.167  68.373  1.00  0.00    -0.157 A  
HETATM   15  C   UNL     1      -9.114   3.420  69.523  1.00  0.00    -0.202 A  
HETATM   16  C   UNL     1      -9.770   3.998  70.594  1.00  0.00    -0.266 A  
HETATM   17  C   UNL     1     -10.229   5.322  70.504  1.00  0.00    -0.334 A  
HETATM   18  C   UNL     1     -10.061   6.124  69.349  1.00  0.00    -0.184 A  
HETATM   19  N   UNL     1     -10.535   7.469  69.253  1.00  0.00    -0.213 NA 
BRANCH  19  20
HETATM   20  C   UNL     1     -11.305   8.032  70.387  1.00  0.00    -0.187 C  
BRANCH  20  21
HETATM   21  C   UNL     1     -10.443   8.885  71.334  1.00  0.00    -0.375 C  
BRANCH  21  22
HETATM   22  C   UNL     1      -9.997   8.105  72.572  1.00  0.00    -0.302 C  
BRANCH  22  23
HETATM   23  N   UNL     1      -8.667   8.486  73.093  1.00  0.00    -0.364 NA 
HETATM   24  C   UNL     1      -8.344   7.647  74.275  1.00  0.00    -0.233 C  
HETATM   25  C   UNL     1      -8.097   6.155  73.934  1.00  0.00    -0.106 C  
HETATM   26  N   UNL     1      -7.083   5.917  72.885  1.00  0.00    -0.083 NA 
HETATM   27  C   UNL     1      -7.299   6.825  71.736  1.00  0.00    -0.085 C  
HETATM   28  C   UNL     1      -5.734   6.076  73.427  1.00  0.00    -0.037 C  
HETATM   29  C   UNL     1      -7.575   8.302  72.114  1.00  0.00    -0.121 C  
ENDBRANCH  22  23
ENDBRANCH  21  22
ENDBRANCH  20  21
ENDBRANCH  19  20
ENDBRANCH   4   6
ENDBRANCH   3   4
ENDBRANCH   2   3
TORSDOF 7
ENDMDL
MODEL       74
REMARK 921   NORMALIZED FREE ENERGY PREDICTED BY IDOCK:   -5.25 KCAL/MOL
REMARK 922        TOTAL FREE ENERGY PREDICTED BY IDOCK:   -8.36 KCAL/MOL
REMARK 923 INTER-LIGAND FREE ENERGY PREDICTED BY IDOCK:   -7.49 KCAL/MOL
REMARK 924 INTRA-LIGAND FREE ENERGY PREDICTED BY IDOCK:   -0.87 KCAL/MOL
REMARK 927      BINDING AFFINITY PREDICTED BY RF-SCORE:    0.00 PKD
ROOT
HETATM    1  C   UNL     1     -10.738   5.449  71.221  1.00  0.00    -0.249 C  
HETATM    2  C   UNL     1     -10.717   6.952  70.992  1.00  0.00    -0.258 C  
ENDROOT
BRANCH   2   3
HETATM    3  C   UNL     1     -11.429   7.682  72.128  1.00  0.00    -0.345 C  
BRANCH   3   4
HETATM    4  C   UNL     1     -12.706   8.374  71.682  1.00  0.00    -0.331 C  
HETATM    5  O   UNL     1     -13.776   7.785  71.537  1.00  0.00    -0.364 OA 
BRANCH   4   6
HETATM    6  C   UNL     1     -12.649   9.851  71.458  1.00  0.00    -0.513 A  
HETATM    7  C   UNL     1     -11.950  10.343  70.343  1.00  0.00    -0.409 A  
HETATM    8  C   UNL     1     -11.878  11.722  70.020  1.00  0.00    -0.342 A  
HETATM    9  C   UNL     1     -12.536  12.591  70.910  1.00  0.00    -0.269 A  
HETATM   10  S   UNL     1     -12.599  14.350  70.724  1.00  0.00    -0.375 SA 
HETATM   11  C   UNL     1     -13.222  12.100  72.039  1.00  0.00    -0.496 A  
HETATM   12  C   UNL     1     -11.646  14.617  69.255  1.00  0.00    -0.302 A  
HETATM   13  C   UNL     1     -13.283  10.740  72.313  1.00  0.00    -0.173 A  
HETATM   14  C   UNL     1     -11.520  15.974  68.883  1.00  0.00    -0.362 A  
HETATM   15  C   UNL     1     -10.808  16.347  67.757  1.00  0.00    -0.306 A  
HETATM   16  C   UNL     1     -10.210  15.366  66.987  1.00  0.00    -0.262 A  
HETATM   17  C   UNL     1     -10.332  14.016  67.355  1.00  0.00    -0.259 A  
HETATM   18  C   UNL     1     -11.053  13.585  68.494  1.00  0.00    -0.272 A  
HETATM   19  N   UNL     1     -11.184  12.210  68.865  1.00  0.00    -0.251 NA 
BRANCH  19  20
HETATM   20  C   UNL     1     -10.602  11.178  67.975  1.00  0.00    -0.198 C  
BRANCH  20  21
HETATM   21  C   UNL     1      -9.141  10.841  68.321  1.00  0.00    -0.157 C  
BRANCH  21  22
HETATM   22  C   UNL     1      -8.297  10.577  67.074  1.00  0.00    -0.128 C  
BRANCH  22  23
HETATM   23  N   UNL     1      -9.018   9.902  65.974  1.00  0.00    -0.144 NA 
HETATM   24  C   UNL     1      -8.434  10.322  64.675  1.00  0.00    -0.175 C  
HETATM   25  C   UNL     1      -6.997   9.793  64.435  1.00  0.00    -0.126 C  
HETATM   26  N   UNL     1      -6.840   8.330  64.582  1.00  0.00    -0.067 NA 
HETATM   27  C   UNL     1      -7.519   7.854  65.809  1.00  0.00    -0.078 C  
HETATM   28  C   UNL     1      -7.355   7.636  63.402  1.00  0.00    -0.090 C  
HETATM   29  C   UNL     1      -8.940   8.427  66.034  1.00  0.00    -0.184 C  
ENDBRANCH  22  23
ENDBRANCH  21  22
ENDBRANCH  20  21
ENDBRANCH  19  20
ENDBRANCH   4   6
ENDBRANCH   3   4
ENDBRANCH   2   3
TORSDOF 7
ENDMDL
MODEL       75
REMARK 921   NORMALIZED FREE ENERGY PREDICTED BY IDOCK:   -5.24 KCAL/MOL
REMARK 922        TOTAL FREE ENERGY PREDICTED BY IDOCK:   -8.34 KCAL/MOL
REMARK 923 INTER-LIGAND FREE ENERGY PREDICTED BY IDOCK:   -7.64 KCAL/MOL
REMARK 924 INTRA-LIGAND FREE ENERGY PREDICTED BY IDOCK:   -0.70 KCAL/MOL
REMARK 927      BINDING AFFINITY PREDICTED BY RF-SCORE:    0.00 PKD
ROOT
HETATM    1  C   UNL     1     -11.745  13.331  69.714  1.00  0.00    -0.354 C  
HETATM    2  C   UNL     1     -12.300  12.378  70.763  1.00  0.00    -0.377 C  
ENDROOT
BRANCH   2   3
HETATM    3  C   UNL     1     -11.806  10.955  70.515  1.00  0.00    -0.457 C  
BRANCH   3   4
HETATM    4  C   UNL     1     -12.465   9.931  71.422  1.00  0.00    -0.398 C  
HETATM    5  O   UNL     1     -13.496  10.156  72.054  1.00  0.00    -0.403 OA 
BRANCH   4   6
HETATM    6  C   UNL     1     -11.841   8.575  71.502  1.00  0.00    -0.353 A  
HETATM    7  C   UNL     1     -11.507   7.909  70.310  1.00  0.00    -0.097 A  
HETATM    8  C   UNL     1     -10.871   6.642  70.283  1.00  0.00    -0.271 A  
HETATM    9  C   UNL     1     -10.611   6.063  71.539  1.00  0.00    -0.243 A  
HETATM   10  S   UNL     1      -9.822   4.497  71.773  1.00  0.00    -0.192 SA 
HETATM   11  C   UNL     1     -10.962   6.722  72.734  1.00  0.00    -0.303 A  
HETATM   12  C   UNL     1      -9.541   3.955  70.110  1.00  0.00    -0.197 A  
HETATM   13  C   UNL     1     -11.571   7.970  72.721  1.00  0.00    -0.390 A  
HETATM   14  C   UNL     1      -8.923   2.689  70.008  1.00  0.00    -0.162 A  
HETATM   15  C   UNL     1      -8.634   2.126  68.777  1.00  0.00    -0.104 A  
HETATM   16  C   UNL     1      -8.962   2.824  67.630  1.00  0.00    -0.193 A  
HETATM   17  C   UNL     1      -9.578   4.082  67.726  1.00  0.00    -0.204 A  
HETATM   18  C   UNL     1      -9.890   4.700  68.962  1.00  0.00    -0.154 A  
HETATM   19  N   UNL     1     -10.510   5.984  69.061  1.00  0.00    -0.227 NA 
BRANCH  19  20
HETATM   20  C   UNL     1     -10.774   6.742  67.816  1.00  0.00    -0.268 C  
BRANCH  20  21
HETATM   21  C   UNL     1      -9.770   7.885  67.585  1.00  0.00    -0.196 C  
BRANCH  21  22
HETATM   22  C   UNL     1     -10.413   9.092  66.902  1.00  0.00    -0.217 C  
BRANCH  22  23
HETATM   23  N   UNL     1      -9.486  10.211  66.628  1.00  0.00    -0.165 NA 
HETATM   24  C   UNL     1      -9.317  10.360  65.160  1.00  0.00    -0.222 C  
HETATM   25  C   UNL     1     -10.590  10.864  64.432  1.00  0.00    -0.273 C  
HETATM   26  N   UNL     1     -11.165  12.112  64.979  1.00  0.00    -0.315 NA 
HETATM   27  C   UNL     1     -11.235  12.050  66.456  1.00  0.00    -0.334 C  
HETATM   28  C   UNL     1     -10.386  13.271  64.544  1.00  0.00    -0.374 C  
HETATM   29  C   UNL     1      -9.959  11.511  67.149  1.00  0.00    -0.199 C  
ENDBRANCH  22  23
ENDBRANCH  21  22
ENDBRANCH  20  21
ENDBRANCH  19  20
ENDBRANCH   4   6
ENDBRANCH   3   4
ENDBRANCH   2   3
TORSDOF 7
ENDMDL
MODEL       76
REMARK 921   NORMALIZED FREE ENERGY PREDICTED BY IDOCK:   -5.23 KCAL/MOL
REMARK 922        TOTAL FREE ENERGY PREDICTED BY IDOCK:   -8.33 KCAL/MOL
REMARK 923 INTER-LIGAND FREE ENERGY PREDICTED BY IDOCK:   -7.48 KCAL/MOL
REMARK 924 INTRA-LIGAND FREE ENERGY PREDICTED BY IDOCK:   -0.85 KCAL/MOL
REMARK 927      BINDING AFFINITY PREDICTED BY RF-SCORE:    0.00 PKD
ROOT
HETATM    1  C   UNL     1      -9.646   4.898  68.052  1.00  0.00    -0.190 C  
HETATM    2  C   UNL     1     -10.108   5.135  69.482  1.00  0.00    -0.316 C  
ENDROOT
BRANCH   2   3
HETATM    3  C   UNL     1     -10.931   6.418  69.578  1.00  0.00    -0.421 C  
BRANCH   3   4
HETATM    4  C   UNL     1     -11.383   6.728  70.995  1.00  0.00    -0.309 C  
HETATM    5  O   UNL     1     -11.331   5.911  71.913  1.00  0.00    -0.276 OA 
BRANCH   4   6
HETATM    6  C   UNL     1     -11.870   8.113  71.277  1.00  0.00    -0.317 A  
HETATM    7  C   UNL     1     -11.401   9.173  70.483  1.00  0.00    -0.300 A  
HETATM    8  C   UNL     1     -11.837  10.513  70.642  1.00  0.00    -0.360 A  
HETATM    9  C   UNL     1     -12.766  10.732  71.677  1.00  0.00    -0.414 A  
HETATM   10  S   UNL     1     -13.466  12.308  72.073  1.00  0.00    -0.123 SA 
HETATM   11  C   UNL     1     -13.222   9.673  72.486  1.00  0.00    -0.296 A  
HETATM   12  C   UNL     1     -12.680  13.384  70.905  1.00  0.00    -0.272 A  
HETATM   13  C   UNL     1     -12.783   8.370  72.289  1.00  0.00    -0.376 A  
HETATM   14  C   UNL     1     -13.059  14.740  71.018  1.00  0.00    -0.433 A  
HETATM   15  C   UNL     1     -12.534  15.705  70.177  1.00  0.00    -0.311 A  
HETATM   16  C   UNL     1     -11.622  15.326  69.210  1.00  0.00    -0.350 A  
HETATM   17  C   UNL     1     -11.242  13.979  69.095  1.00  0.00    -0.308 A  
HETATM   18  C   UNL     1     -11.753  12.955  69.930  1.00  0.00    -0.254 A  
HETATM   19  N   UNL     1     -11.373  11.582  69.808  1.00  0.00    -0.255 NA 
BRANCH  19  20
HETATM   20  C   UNL     1     -10.457  11.195  68.710  1.00  0.00    -0.203 C  
BRANCH  20  21
HETATM   21  C   UNL     1     -11.193  10.611  67.492  1.00  0.00    -0.326 C  
BRANCH  21  22
HETATM   22  C   UNL     1     -10.228  10.139  66.403  1.00  0.00    -0.221 C  
BRANCH  22  23
HETATM   23  N   UNL     1      -8.827   9.983  66.848  1.00  0.00    -0.131 NA 
HETATM   24  C   UNL     1      -8.451   8.547  66.792  1.00  0.00    -0.109 C  
HETATM   25  C   UNL     1      -8.354   7.983  65.350  1.00  0.00    -0.153 C  
HETATM   26  N   UNL     1      -7.472   8.747  64.443  1.00  0.00    -0.103 NA 
HETATM   27  C   UNL     1      -7.733  10.199  64.563  1.00  0.00    -0.138 C  
HETATM   28  C   UNL     1      -6.067   8.447  64.717  1.00  0.00    -0.063 C  
HETATM   29  C   UNL     1      -7.856  10.723  66.015  1.00  0.00    -0.149 C  
ENDBRANCH  22  23
ENDBRANCH  21  22
ENDBRANCH  20  21
ENDBRANCH  19  20
ENDBRANCH   4   6
ENDBRANCH   3   4
ENDBRANCH   2   3
TORSDOF 7
ENDMDL
MODEL       77
REMARK 921   NORMALIZED FREE ENERGY PREDICTED BY IDOCK:   -5.21 KCAL/MOL
REMARK 922        TOTAL FREE ENERGY PREDICTED BY IDOCK:   -8.30 KCAL/MOL
REMARK 923 INTER-LIGAND FREE ENERGY PREDICTED BY IDOCK:   -7.34 KCAL/MOL
REMARK 924 INTRA-LIGAND FREE ENERGY PREDICTED BY IDOCK:   -0.96 KCAL/MOL
REMARK 927      BINDING AFFINITY PREDICTED BY RF-SCORE:    0.00 PKD
ROOT
HETATM    1  C   UNL     1     -10.629   5.549  67.348  1.00  0.00    -0.274 C  
HETATM    2  C   UNL     1      -9.327   5.311  68.098  1.00  0.00    -0.139 C  
ENDROOT
BRANCH   2   3
HETATM    3  C   UNL     1      -8.294   6.375  67.736  1.00  0.00    -0.118 C  
BRANCH   3   4
HETATM    4  C   UNL     1      -8.058   6.490  66.240  1.00  0.00    -0.115 C  
HETATM    5  O   UNL     1      -7.557   5.591  65.567  1.00  0.00    -0.076 OA 
BRANCH   4   6
HETATM    6  C   UNL     1      -8.504   7.747  65.564  1.00  0.00    -0.146 A  
HETATM    7  C   UNL     1      -9.396   8.599  66.237  1.00  0.00    -0.282 A  
HETATM    8  C   UNL     1      -9.841   9.834  65.699  1.00  0.00    -0.301 A  
HETATM    9  C   UNL     1      -9.353  10.153  64.418  1.00  0.00    -0.293 A  
HETATM   10  S   UNL     1      -9.752  11.634  63.536  1.00  0.00    -0.296 SA 
HETATM   11  C   UNL     1      -8.473   9.289  63.735  1.00  0.00    -0.197 A  
HETATM   12  C   UNL     1     -10.861  12.456  64.647  1.00  0.00    -0.309 A  
HETATM   13  C   UNL     1      -8.047   8.094  64.302  1.00  0.00    -0.127 A  
HETATM   14  C   UNL     1     -11.356  13.688  64.167  1.00  0.00    -0.330 A  
HETATM   15  C   UNL     1     -12.232  14.454  64.918  1.00  0.00    -0.440 A  
HETATM   16  C   UNL     1     -12.623  13.994  66.161  1.00  0.00    -0.407 A  
HETATM   17  C   UNL     1     -12.134  12.769  66.642  1.00  0.00    -0.316 A  
HETATM   18  C   UNL     1     -11.235  11.953  65.913  1.00  0.00    -0.322 A  
HETATM   19  N   UNL     1     -10.730  10.710  66.405  1.00  0.00    -0.178 NA 
BRANCH  19  20
HETATM   20  C   UNL     1     -11.104  10.285  67.774  1.00  0.00    -0.269 C  
BRANCH  20  21
HETATM   21  C   UNL     1      -9.991  10.538  68.806  1.00  0.00    -0.200 C  
BRANCH  21  22
HETATM   22  C   UNL     1     -10.316   9.928  70.170  1.00  0.00    -0.282 C  
BRANCH  22  23
HETATM   23  N   UNL     1     -10.384   8.451  70.184  1.00  0.00    -0.206 NA 
HETATM   24  C   UNL     1      -9.287   7.917  71.030  1.00  0.00    -0.152 C  
HETATM   25  C   UNL     1      -9.459   8.220  72.541  1.00  0.00    -0.286 C  
HETATM   26  N   UNL     1     -10.755   7.803  73.115  1.00  0.00    -0.385 NA 
HETATM   27  C   UNL     1     -11.872   8.212  72.233  1.00  0.00    -0.382 C  
HETATM   28  C   UNL     1     -10.776   6.359  73.344  1.00  0.00    -0.262 C  
HETATM   29  C   UNL     1     -11.654   7.923  70.727  1.00  0.00    -0.247 C  
ENDBRANCH  22  23
ENDBRANCH  21  22
ENDBRANCH  20  21
ENDBRANCH  19  20
ENDBRANCH   4   6
ENDBRANCH   3   4
ENDBRANCH   2   3
TORSDOF 7
ENDMDL
MODEL       78
REMARK 921   NORMALIZED FREE ENERGY PREDICTED BY IDOCK:   -5.19 KCAL/MOL
REMARK 922        TOTAL FREE ENERGY PREDICTED BY IDOCK:   -8.27 KCAL/MOL
REMARK 923 INTER-LIGAND FREE ENERGY PREDICTED BY IDOCK:   -7.51 KCAL/MOL
REMARK 924 INTRA-LIGAND FREE ENERGY PREDICTED BY IDOCK:   -0.76 KCAL/MOL
REMARK 927      BINDING AFFINITY PREDICTED BY RF-SCORE:    0.00 PKD
ROOT
HETATM    1  C   UNL     1     -10.591   5.184  66.248  1.00  0.00    -0.325 C  
HETATM    2  C   UNL     1      -9.161   5.698  66.310  1.00  0.00    -0.153 C  
ENDROOT
BRANCH   2   3
HETATM    3  C   UNL     1      -8.964   6.600  67.526  1.00  0.00    -0.114 C  
BRANCH   3   4
HETATM    4  C   UNL     1      -9.549   6.016  68.801  1.00  0.00    -0.129 C  
HETATM    5  O   UNL     1      -9.336   4.863  69.172  1.00  0.00    -0.111 OA 
BRANCH   4   6
HETATM    6  C   UNL     1     -10.384   6.916  69.654  1.00  0.00    -0.224 A  
HETATM    7  C   UNL     1     -10.385   8.296  69.388  1.00  0.00    -0.223 A  
HETATM    8  C   UNL     1     -11.178   9.223  70.111  1.00  0.00    -0.208 A  
HETATM    9  C   UNL     1     -11.960   8.679  71.147  1.00  0.00    -0.279 A  
HETATM   10  S   UNL     1     -13.037   9.623  72.186  1.00  0.00    -0.403 SA 
HETATM   11  C   UNL     1     -11.946   7.298  71.426  1.00  0.00    -0.354 A  
HETATM   12  C   UNL     1     -12.801  11.274  71.588  1.00  0.00    -0.405 A  
HETATM   13  C   UNL     1     -11.167   6.418  70.685  1.00  0.00    -0.400 A  
HETATM   14  C   UNL     1     -13.551  12.253  72.275  1.00  0.00    -0.299 A  
HETATM   15  C   UNL     1     -13.479  13.591  71.926  1.00  0.00    -0.528 A  
HETATM   16  C   UNL     1     -12.652  13.965  70.883  1.00  0.00    -0.431 A  
HETATM   17  C   UNL     1     -11.904  12.995  70.198  1.00  0.00    -0.324 A  
HETATM   18  C   UNL     1     -11.947  11.615  70.516  1.00  0.00    -0.319 A  
HETATM   19  N   UNL     1     -11.192  10.625  69.814  1.00  0.00    -0.275 NA 
BRANCH  19  20
HETATM   20  C   UNL     1     -10.379  11.048  68.649  1.00  0.00    -0.193 C  
BRANCH  20  21
HETATM   21  C   UNL     1     -11.234  11.458  67.438  1.00  0.00    -0.370 C  
BRANCH  21  22
HETATM   22  C   UNL     1     -10.716  10.855  66.132  1.00  0.00    -0.159 C  
BRANCH  22  23
HETATM   23  N   UNL     1      -9.481  11.479  65.613  1.00  0.00    -0.226 NA 
HETATM   24  C   UNL     1      -8.397  10.464  65.574  1.00  0.00    -0.168 C  
HETATM   25  C   UNL     1      -8.619   9.353  64.515  1.00  0.00    -0.198 C  
HETATM   26  N   UNL     1      -8.867   9.844  63.142  1.00  0.00    -0.225 NA 
HETATM   27  C   UNL     1      -9.855  10.946  63.154  1.00  0.00    -0.351 C  
HETATM   28  C   UNL     1      -7.617  10.273  62.516  1.00  0.00    -0.137 C  
HETATM   29  C   UNL     1      -9.623  12.020  64.244  1.00  0.00     0.019 C  
ENDBRANCH  22  23
ENDBRANCH  21  22
ENDBRANCH  20  21
ENDBRANCH  19  20
ENDBRANCH   4   6
ENDBRANCH   3   4
ENDBRANCH   2   3
TORSDOF 7
ENDMDL
MODEL       79
REMARK 921   NORMALIZED FREE ENERGY PREDICTED BY IDOCK:   -5.18 KCAL/MOL
REMARK 922        TOTAL FREE ENERGY PREDICTED BY IDOCK:   -8.26 KCAL/MOL
REMARK 923 INTER-LIGAND FREE ENERGY PREDICTED BY IDOCK:   -7.34 KCAL/MOL
REMARK 924 INTRA-LIGAND FREE ENERGY PREDICTED BY IDOCK:   -0.92 KCAL/MOL
REMARK 927      BINDING AFFINITY PREDICTED BY RF-SCORE:    0.00 PKD
ROOT
HETATM    1  C   UNL     1      -8.578   7.349  73.414  1.00  0.00    -0.193 C  
HETATM    2  C   UNL     1     -10.059   7.181  73.719  1.00  0.00    -0.391 C  
ENDROOT
BRANCH   2   3
HETATM    3  C   UNL     1     -10.904   8.039  72.781  1.00  0.00    -0.438 C  
BRANCH   3   4
HETATM    4  C   UNL     1     -11.548   7.238  71.662  1.00  0.00    -0.274 C  
HETATM    5  O   UNL     1     -12.669   6.740  71.750  1.00  0.00    -0.362 OA 
BRANCH   4   6
HETATM    6  C   UNL     1     -10.785   7.099  70.384  1.00  0.00    -0.255 A  
HETATM    7  C   UNL     1     -10.933   8.085  69.394  1.00  0.00    -0.021 A  
HETATM    8  C   UNL     1     -10.218   8.065  68.169  1.00  0.00    -0.207 A  
HETATM    9  C   UNL     1      -9.355   6.969  67.984  1.00  0.00    -0.127 A  
HETATM   10  S   UNL     1      -8.350   6.720  66.549  1.00  0.00    -0.126 SA 
HETATM   11  C   UNL     1      -9.220   5.971  68.969  1.00  0.00    -0.125 A  
HETATM   12  C   UNL     1      -8.770   8.112  65.538  1.00  0.00    -0.120 A  
HETATM   13  C   UNL     1      -9.926   6.032  70.164  1.00  0.00    -0.228 A  
HETATM   14  C   UNL     1      -8.105   8.147  64.293  1.00  0.00    -0.127 A  
HETATM   15  C   UNL     1      -8.323   9.173  63.389  1.00  0.00    -0.192 A  
HETATM   16  C   UNL     1      -9.214  10.177  63.721  1.00  0.00    -0.321 A  
HETATM   17  C   UNL     1      -9.879  10.145  64.957  1.00  0.00    -0.392 A  
HETATM   18  C   UNL     1      -9.686   9.120  65.914  1.00  0.00    -0.266 A  
HETATM   19  N   UNL     1     -10.356   9.091  67.177  1.00  0.00    -0.264 NA 
BRANCH  19  20
HETATM   20  C   UNL     1     -11.241  10.223  67.536  1.00  0.00    -0.117 C  
BRANCH  20  21
HETATM   21  C   UNL     1     -10.506  11.343  68.294  1.00  0.00    -0.221 C  
BRANCH  21  22
HETATM   22  C   UNL     1     -10.321  12.597  67.440  1.00  0.00    -0.220 C  
BRANCH  22  23
HETATM   23  N   UNL     1     -11.578  13.190  66.937  1.00  0.00    -0.348 NA 
HETATM   24  C   UNL     1     -11.580  14.648  67.218  1.00  0.00    -0.387 C  
HETATM   25  C   UNL     1     -10.541  15.445  66.387  1.00  0.00    -0.307 C  
HETATM   26  N   UNL     1     -10.622  15.237  64.926  1.00  0.00    -0.397 NA 
HETATM   27  C   UNL     1     -10.747  13.796  64.611  1.00  0.00    -0.414 C  
HETATM   28  C   UNL     1     -11.740  15.991  64.360  1.00  0.00    -0.134 C  
HETATM   29  C   UNL     1     -11.769  13.024  65.481  1.00  0.00    -0.368 C  
ENDBRANCH  22  23
ENDBRANCH  21  22
ENDBRANCH  20  21
ENDBRANCH  19  20
ENDBRANCH   4   6
ENDBRANCH   3   4
ENDBRANCH   2   3
TORSDOF 7
ENDMDL
MODEL       80
REMARK 921   NORMALIZED FREE ENERGY PREDICTED BY IDOCK:   -5.15 KCAL/MOL
REMARK 922        TOTAL FREE ENERGY PREDICTED BY IDOCK:   -8.21 KCAL/MOL
REMARK 923 INTER-LIGAND FREE ENERGY PREDICTED BY IDOCK:   -7.30 KCAL/MOL
REMARK 924 INTRA-LIGAND FREE ENERGY PREDICTED BY IDOCK:   -0.91 KCAL/MOL
REMARK 927      BINDING AFFINITY PREDICTED BY RF-SCORE:    0.00 PKD
ROOT
HETATM    1  C   UNL     1     -11.779  12.972  63.664  1.00  0.00    -0.550 C  
HETATM    2  C   UNL     1     -12.591  12.759  64.933  1.00  0.00    -0.541 C  
ENDROOT
BRANCH   2   3
HETATM    3  C   UNL     1     -11.766  13.117  66.167  1.00  0.00    -0.428 C  
BRANCH   3   4
HETATM    4  C   UNL     1     -11.459  11.916  67.045  1.00  0.00    -0.316 C  
HETATM    5  O   UNL     1     -12.086  11.652  68.069  1.00  0.00    -0.597 OA 
BRANCH   4   6
HETATM    6  C   UNL     1     -10.367  10.996  66.600  1.00  0.00    -0.288 A  
HETATM    7  C   UNL     1     -10.530   9.612  66.778  1.00  0.00    -0.257 A  
HETATM    8  C   UNL     1      -9.572   8.658  66.349  1.00  0.00    -0.247 A  
HETATM    9  C   UNL     1      -8.415   9.185  65.746  1.00  0.00    -0.141 A  
HETATM   10  S   UNL     1      -7.080   8.205  65.121  1.00  0.00    -0.068 SA 
HETATM   11  C   UNL     1      -8.242  10.574  65.584  1.00  0.00    -0.161 A  
HETATM   12  C   UNL     1      -7.605   6.555  65.495  1.00  0.00    -0.088 A  
HETATM   13  C   UNL     1      -9.210  11.477  66.004  1.00  0.00    -0.229 A  
HETATM   14  C   UNL     1      -6.689   5.552  65.108  1.00  0.00    -0.044 A  
HETATM   15  C   UNL     1      -6.954   4.212  65.328  1.00  0.00    -0.058 A  
HETATM   16  C   UNL     1      -8.141   3.857  65.942  1.00  0.00    -0.101 A  
HETATM   17  C   UNL     1      -9.054   4.851  66.331  1.00  0.00    -0.127 A  
HETATM   18  C   UNL     1      -8.829   6.234  66.123  1.00  0.00    -0.153 A  
HETATM   19  N   UNL     1      -9.761   7.246  66.510  1.00  0.00    -0.171 NA 
BRANCH  19  20
HETATM   20  C   UNL     1     -11.059   6.830  67.091  1.00  0.00    -0.333 C  
BRANCH  20  21
HETATM   21  C   UNL     1     -10.922   6.235  68.503  1.00  0.00    -0.421 C  
BRANCH  21  22
HETATM   22  C   UNL     1     -10.478   7.276  69.530  1.00  0.00    -0.230 C  
BRANCH  22  23
HETATM   23  N   UNL     1      -9.516   6.777  70.536  1.00  0.00    -0.169 NA 
HETATM   24  C   UNL     1      -9.217   7.858  71.509  1.00  0.00    -0.136 C  
HETATM   25  C   UNL     1     -10.415   8.225  72.423  1.00  0.00    -0.334 C  
HETATM   26  N   UNL     1     -11.019   7.083  73.143  1.00  0.00    -0.296 NA 
HETATM   27  C   UNL     1     -11.218   5.937  72.228  1.00  0.00    -0.291 C  
HETATM   28  C   UNL     1     -10.190   6.699  74.285  1.00  0.00    -0.326 C  
HETATM   29  C   UNL     1     -10.015   5.619  71.307  1.00  0.00    -0.195 C  
ENDBRANCH  22  23
ENDBRANCH  21  22
ENDBRANCH  20  21
ENDBRANCH  19  20
ENDBRANCH   4   6
ENDBRANCH   3   4
ENDBRANCH   2   3
TORSDOF 7
ENDMDL
MODEL       81
REMARK 921   NORMALIZED FREE ENERGY PREDICTED BY IDOCK:   -5.15 KCAL/MOL
REMARK 922        TOTAL FREE ENERGY PREDICTED BY IDOCK:   -8.21 KCAL/MOL
REMARK 923 INTER-LIGAND FREE ENERGY PREDICTED BY IDOCK:   -7.80 KCAL/MOL
REMARK 924 INTRA-LIGAND FREE ENERGY PREDICTED BY IDOCK:   -0.42 KCAL/MOL
REMARK 927      BINDING AFFINITY PREDICTED BY RF-SCORE:    0.00 PKD
ROOT
HETATM    1  C   UNL     1      -9.556   9.370  68.808  1.00  0.00    -0.156 C  
HETATM    2  C   UNL     1      -8.491  10.311  69.351  1.00  0.00    -0.170 C  
ENDROOT
BRANCH   2   3
HETATM    3  C   UNL     1      -8.046  11.301  68.277  1.00  0.00    -0.137 C  
BRANCH   3   4
HETATM    4  C   UNL     1      -6.837  12.122  68.690  1.00  0.00    -0.089 C  
HETATM    5  O   UNL     1      -5.737  11.628  68.930  1.00  0.00    -0.047 OA 
BRANCH   4   6
HETATM    6  C   UNL     1      -7.001  13.607  68.758  1.00  0.00    -0.106 A  
HETATM    7  C   UNL     1      -7.913  14.230  67.889  1.00  0.00    -0.156 A  
HETATM    8  C   UNL     1      -8.171  15.625  67.908  1.00  0.00    -0.148 A  
HETATM    9  C   UNL     1      -7.431  16.369  68.845  1.00  0.00    -0.214 A  
HETATM   10  S   UNL     1      -7.576  18.119  69.070  1.00  0.00    -0.065 SA 
HETATM   11  C   UNL     1      -6.502  15.748  69.703  1.00  0.00    -0.181 A  
HETATM   12  C   UNL     1      -8.782  18.565  67.851  1.00  0.00    -0.284 A  
HETATM   13  C   UNL     1      -6.287  14.376  69.666  1.00  0.00    -0.140 A  
HETATM   14  C   UNL     1      -9.076  19.945  67.804  1.00  0.00    -0.418 A  
HETATM   15  C   UNL     1     -10.000  20.454  66.907  1.00  0.00    -0.549 A  
HETATM   16  C   UNL     1     -10.640  19.585  66.043  1.00  0.00    -0.589 A  
HETATM   17  C   UNL     1     -10.349  18.212  66.086  1.00  0.00    -0.394 A  
HETATM   18  C   UNL     1      -9.416  17.645  66.987  1.00  0.00    -0.266 A  
HETATM   19  N   UNL     1      -9.124  16.246  67.036  1.00  0.00    -0.201 NA 
BRANCH  19  20
HETATM   20  C   UNL     1      -9.887  15.332  66.155  1.00  0.00    -0.307 C  
BRANCH  20  21
HETATM   21  C   UNL     1     -11.087  14.677  66.862  1.00  0.00    -0.333 C  
BRANCH  21  22
HETATM   22  C   UNL     1     -12.168  14.232  65.877  1.00  0.00    -0.407 C  
BRANCH  22  23
HETATM   23  N   UNL     1     -12.339  12.767  65.772  1.00  0.00    -0.594 NA 
HETATM   24  C   UNL     1     -12.561  12.399  64.350  1.00  0.00    -0.399 C  
HETATM   25  C   UNL     1     -11.314  12.603  63.450  1.00  0.00    -0.394 C  
HETATM   26  N   UNL     1     -10.085  11.938  63.932  1.00  0.00    -0.350 NA 
HETATM   27  C   UNL     1      -9.895  12.180  65.380  1.00  0.00    -0.211 C  
HETATM   28  C   UNL     1     -10.129  10.504  63.646  1.00  0.00    -0.151 C  
HETATM   29  C   UNL     1     -11.167  12.000  66.245  1.00  0.00    -0.342 C  
ENDBRANCH  22  23
ENDBRANCH  21  22
ENDBRANCH  20  21
ENDBRANCH  19  20
ENDBRANCH   4   6
ENDBRANCH   3   4
ENDBRANCH   2   3
TORSDOF 7
ENDMDL
MODEL       82
REMARK 921   NORMALIZED FREE ENERGY PREDICTED BY IDOCK:   -5.10 KCAL/MOL
REMARK 922        TOTAL FREE ENERGY PREDICTED BY IDOCK:   -8.14 KCAL/MOL
REMARK 923 INTER-LIGAND FREE ENERGY PREDICTED BY IDOCK:   -7.28 KCAL/MOL
REMARK 924 INTRA-LIGAND FREE ENERGY PREDICTED BY IDOCK:   -0.86 KCAL/MOL
REMARK 927      BINDING AFFINITY PREDICTED BY RF-SCORE:    0.00 PKD
ROOT
HETATM    1  C   UNL     1     -11.176  15.229  64.685  1.00  0.00    -0.366 C  
HETATM    2  C   UNL     1     -10.419  15.659  65.933  1.00  0.00    -0.358 C  
ENDROOT
BRANCH   2   3
HETATM    3  C   UNL     1     -10.472  14.568  66.999  1.00  0.00    -0.268 C  
BRANCH   3   4
HETATM    4  C   UNL     1     -11.190  15.007  68.263  1.00  0.00    -0.299 C  
HETATM    5  O   UNL     1     -11.456  16.182  68.514  1.00  0.00    -0.376 OA 
BRANCH   4   6
HETATM    6  C   UNL     1     -11.628  13.941  69.216  1.00  0.00    -0.358 A  
HETATM    7  C   UNL     1     -11.180  12.624  69.014  1.00  0.00    -0.322 A  
HETATM    8  C   UNL     1     -11.503  11.554  69.887  1.00  0.00    -0.260 A  
HETATM    9  C   UNL     1     -12.334  11.883  70.973  1.00  0.00    -0.259 A  
HETATM   10  S   UNL     1     -12.872  10.731  72.204  1.00  0.00     0.145 SA 
HETATM   11  C   UNL     1     -12.800  13.199  71.165  1.00  0.00    -0.349 A  
HETATM   12  C   UNL     1     -12.138   9.214  71.658  1.00  0.00    -0.362 A  
HETATM   13  C   UNL     1     -12.449  14.225  70.297  1.00  0.00    -0.422 A  
HETATM   14  C   UNL     1     -12.432   8.100  72.475  1.00  0.00    -0.249 A  
HETATM   15  C   UNL     1     -11.932   6.842  72.185  1.00  0.00    -0.302 A  
HETATM   16  C   UNL     1     -11.130   6.684  71.069  1.00  0.00    -0.330 A  
HETATM   17  C   UNL     1     -10.837   7.788  70.254  1.00  0.00    -0.252 A  
HETATM   18  C   UNL     1     -11.322   9.093  70.512  1.00  0.00    -0.257 A  
HETATM   19  N   UNL     1     -11.017  10.220  69.687  1.00  0.00    -0.252 NA 
BRANCH  19  20
HETATM   20  C   UNL     1     -10.089  10.034  68.547  1.00  0.00    -0.169 C  
BRANCH  20  21
HETATM   21  C   UNL     1     -10.782   9.466  67.295  1.00  0.00    -0.258 C  
BRANCH  21  22
HETATM   22  C   UNL     1      -9.834   9.374  66.099  1.00  0.00    -0.285 C  
BRANCH  22  23
HETATM   23  N   UNL     1      -9.236  10.662  65.688  1.00  0.00    -0.187 NA 
HETATM   24  C   UNL     1      -7.781  10.476  65.455  1.00  0.00    -0.127 C  
HETATM   25  C   UNL     1      -7.454   9.604  64.215  1.00  0.00    -0.125 C  
HETATM   26  N   UNL     1      -8.089  10.050  62.957  1.00  0.00    -0.142 NA 
HETATM   27  C   UNL     1      -9.518  10.366  63.178  1.00  0.00    -0.327 C  
HETATM   28  C   UNL     1      -7.381  11.205  62.404  1.00  0.00     0.122 C  
HETATM   29  C   UNL     1      -9.813  11.210  64.442  1.00  0.00    -0.284 C  
ENDBRANCH  22  23
ENDBRANCH  21  22
ENDBRANCH  20  21
ENDBRANCH  19  20
ENDBRANCH   4   6
ENDBRANCH   3   4
ENDBRANCH   2   3
TORSDOF 7
ENDMDL
MODEL       83
REMARK 921   NORMALIZED FREE ENERGY PREDICTED BY IDOCK:   -5.09 KCAL/MOL
REMARK 922        TOTAL FREE ENERGY PREDICTED BY IDOCK:   -8.13 KCAL/MOL
REMARK 923 INTER-LIGAND FREE ENERGY PREDICTED BY IDOCK:   -6.99 KCAL/MOL
REMARK 924 INTRA-LIGAND FREE ENERGY PREDICTED BY IDOCK:   -1.14 KCAL/MOL
REMARK 927      BINDING AFFINITY PREDICTED BY RF-SCORE:    0.00 PKD
ROOT
HETATM    1  C   UNL     1      -6.158  14.970  67.837  1.00  0.00    -0.170 C  
HETATM    2  C   UNL     1      -6.164  13.549  68.379  1.00  0.00    -0.093 C  
ENDROOT
BRANCH   2   3
HETATM    3  C   UNL     1      -5.587  12.577  67.352  1.00  0.00    -0.112 C  
BRANCH   3   4
HETATM    4  C   UNL     1      -6.512  11.410  67.053  1.00  0.00    -0.120 C  
HETATM    5  O   UNL     1      -6.679  10.955  65.922  1.00  0.00    -0.115 OA 
BRANCH   4   6
HETATM    6  C   UNL     1      -7.209  10.766  68.209  1.00  0.00    -0.084 A  
HETATM    7  C   UNL     1      -8.598  10.929  68.340  1.00  0.00    -0.146 A  
HETATM    8  C   UNL     1      -9.355  10.321  69.374  1.00  0.00    -0.199 A  
HETATM    9  C   UNL     1      -8.620   9.553  70.296  1.00  0.00    -0.226 A  
HETATM   10  S   UNL     1      -9.330   8.690  71.669  1.00  0.00    -0.280 SA 
HETATM   11  C   UNL     1      -7.224   9.406  70.177  1.00  0.00    -0.096 A  
HETATM   12  C   UNL     1     -11.049   9.097  71.531  1.00  0.00    -0.365 A  
HETATM   13  C   UNL     1      -6.519  10.004  69.140  1.00  0.00    -0.048 A  
HETATM   14  C   UNL     1     -11.861   8.536  72.541  1.00  0.00    -0.398 A  
HETATM   15  C   UNL     1     -13.227   8.759  72.573  1.00  0.00    -0.398 A  
HETATM   16  C   UNL     1     -13.798   9.548  71.591  1.00  0.00    -0.287 A  
HETATM   17  C   UNL     1     -12.994  10.108  70.586  1.00  0.00    -0.296 A  
HETATM   18  C   UNL     1     -11.595   9.907  70.510  1.00  0.00    -0.309 A  
HETATM   19  N   UNL     1     -10.777  10.470  69.482  1.00  0.00    -0.240 NA 
BRANCH  19  20
HETATM   20  C   UNL     1     -11.430  11.243  68.400  1.00  0.00    -0.307 C  
BRANCH  20  21
HETATM   21  C   UNL     1     -11.708  12.705  68.789  1.00  0.00    -0.364 C  
BRANCH  21  22
HETATM   22  C   UNL     1     -11.420  13.675  67.643  1.00  0.00    -0.325 C  
BRANCH  22  23
HETATM   23  N   UNL     1     -10.049  14.227  67.634  1.00  0.00    -0.228 NA 
HETATM   24  C   UNL     1      -9.709  14.674  66.259  1.00  0.00    -0.307 C  
HETATM   25  C   UNL     1     -10.514  15.912  65.787  1.00  0.00    -0.370 C  
HETATM   26  N   UNL     1     -10.457  17.075  66.699  1.00  0.00    -0.288 NA 
HETATM   27  C   UNL     1     -10.669  16.649  68.100  1.00  0.00    -0.349 C  
HETATM   28  C   UNL     1      -9.182  17.778  66.557  1.00  0.00    -0.265 C  
HETATM   29  C   UNL     1      -9.875  15.391  68.528  1.00  0.00    -0.207 C  
ENDBRANCH  22  23
ENDBRANCH  21  22
ENDBRANCH  20  21
ENDBRANCH  19  20
ENDBRANCH   4   6
ENDBRANCH   3   4
ENDBRANCH   2   3
TORSDOF 7
ENDMDL
MODEL       84
REMARK 921   NORMALIZED FREE ENERGY PREDICTED BY IDOCK:   -5.09 KCAL/MOL
REMARK 922        TOTAL FREE ENERGY PREDICTED BY IDOCK:   -8.13 KCAL/MOL
REMARK 923 INTER-LIGAND FREE ENERGY PREDICTED BY IDOCK:   -7.29 KCAL/MOL
REMARK 924 INTRA-LIGAND FREE ENERGY PREDICTED BY IDOCK:   -0.84 KCAL/MOL
REMARK 927      BINDING AFFINITY PREDICTED BY RF-SCORE:    0.00 PKD
ROOT
HETATM    1  C   UNL     1     -10.636  19.649  65.924  1.00  0.00    -0.566 C  
HETATM    2  C   UNL     1     -10.286  19.657  67.404  1.00  0.00    -0.561 C  
ENDROOT
BRANCH   2   3
HETATM    3  C   UNL     1      -9.291  18.546  67.730  1.00  0.00    -0.308 C  
BRANCH   3   4
HETATM    4  C   UNL     1      -9.954  17.193  67.925  1.00  0.00    -0.292 C  
HETATM    5  O   UNL     1     -11.159  17.058  68.134  1.00  0.00    -0.334 OA 
BRANCH   4   6
HETATM    6  C   UNL     1      -9.092  15.977  67.807  1.00  0.00    -0.196 A  
HETATM    7  C   UNL     1      -9.632  14.816  67.229  1.00  0.00    -0.223 A  
HETATM    8  C   UNL     1      -8.881  13.628  67.032  1.00  0.00    -0.223 A  
HETATM    9  C   UNL     1      -7.548  13.669  67.479  1.00  0.00    -0.170 A  
HETATM   10  S   UNL     1      -6.407  12.323  67.342  1.00  0.00    -0.153 SA 
HETATM   11  C   UNL     1      -7.012  14.827  68.076  1.00  0.00    -0.149 A  
HETATM   12  C   UNL     1      -7.391  11.060  66.584  1.00  0.00    -0.143 A  
HETATM   13  C   UNL     1      -7.774  15.977  68.238  1.00  0.00    -0.142 A  
HETATM   14  C   UNL     1      -6.709   9.841  66.372  1.00  0.00    -0.080 A  
HETATM   15  C   UNL     1      -7.339   8.756  65.788  1.00  0.00    -0.085 A  
HETATM   16  C   UNL     1      -8.663   8.877  65.408  1.00  0.00    -0.224 A  
HETATM   17  C   UNL     1      -9.345  10.086  65.619  1.00  0.00    -0.257 A  
HETATM   18  C   UNL     1      -8.743  11.224  66.209  1.00  0.00    -0.184 A  
HETATM   19  N   UNL     1      -9.434  12.458  66.416  1.00  0.00    -0.241 NA 
BRANCH  19  20
HETATM   20  C   UNL     1     -10.826  12.582  65.924  1.00  0.00    -0.269 C  
BRANCH  20  21
HETATM   21  C   UNL     1     -11.855  12.713  67.061  1.00  0.00    -0.415 C  
BRANCH  21  22
HETATM   22  C   UNL     1     -11.884  11.478  67.961  1.00  0.00    -0.217 C  
BRANCH  22  23
HETATM   23  N   UNL     1     -11.121  11.616  69.220  1.00  0.00    -0.244 NA 
HETATM   24  C   UNL     1     -12.059  11.570  70.370  1.00  0.00    -0.382 C  
HETATM   25  C   UNL     1     -12.713  10.180  70.588  1.00  0.00    -0.255 C  
HETATM   26  N   UNL     1     -11.759   9.056  70.700  1.00  0.00    -0.244 NA 
HETATM   27  C   UNL     1     -10.731   9.138  69.638  1.00  0.00    -0.225 C  
HETATM   28  C   UNL     1     -11.139   9.036  72.024  1.00  0.00    -0.301 C  
HETATM   29  C   UNL     1     -10.122  10.546  69.426  1.00  0.00    -0.209 C  
ENDBRANCH  22  23
ENDBRANCH  21  22
ENDBRANCH  20  21
ENDBRANCH  19  20
ENDBRANCH   4   6
ENDBRANCH   3   4
ENDBRANCH   2   3
TORSDOF 7
ENDMDL
MODEL       85
REMARK 921   NORMALIZED FREE ENERGY PREDICTED BY IDOCK:   -5.08 KCAL/MOL
REMARK 922        TOTAL FREE ENERGY PREDICTED BY IDOCK:   -8.11 KCAL/MOL
REMARK 923 INTER-LIGAND FREE ENERGY PREDICTED BY IDOCK:   -7.15 KCAL/MOL
REMARK 924 INTRA-LIGAND FREE ENERGY PREDICTED BY IDOCK:   -0.96 KCAL/MOL
REMARK 927      BINDING AFFINITY PREDICTED BY RF-SCORE:    0.00 PKD
ROOT
HETATM    1  C   UNL     1      -5.454   5.808  70.584  1.00  0.00    -0.013 C  
HETATM    2  C   UNL     1      -6.694   6.299  71.315  1.00  0.00    -0.058 C  
ENDROOT
BRANCH   2   3
HETATM    3  C   UNL     1      -7.494   7.258  70.436  1.00  0.00    -0.083 C  
BRANCH   3   4
HETATM    4  C   UNL     1      -7.638   8.642  71.045  1.00  0.00    -0.100 C  
HETATM    5  O   UNL     1      -7.659   8.845  72.258  1.00  0.00    -0.344 OA 
BRANCH   4   6
HETATM    6  C   UNL     1      -7.711   9.805  70.108  1.00  0.00    -0.188 A  
HETATM    7  C   UNL     1      -8.957  10.166  69.569  1.00  0.00    -0.205 A  
HETATM    8  C   UNL     1      -9.136  11.279  68.709  1.00  0.00    -0.116 A  
HETATM    9  C   UNL     1      -7.969  12.002  68.397  1.00  0.00    -0.152 A  
HETATM   10  S   UNL     1      -7.928  13.432  67.355  1.00  0.00    -0.133 SA 
HETATM   11  C   UNL     1      -6.716  11.630  68.923  1.00  0.00    -0.088 A  
HETATM   12  C   UNL     1      -9.623  13.602  66.868  1.00  0.00    -0.262 A  
HETATM   13  C   UNL     1      -6.583  10.541  69.775  1.00  0.00    -0.112 A  
HETATM   14  C   UNL     1      -9.870  14.685  65.996  1.00  0.00    -0.347 A  
HETATM   15  C   UNL     1     -11.144  14.954  65.527  1.00  0.00    -0.353 A  
HETATM   16  C   UNL     1     -12.189  14.140  65.924  1.00  0.00    -0.458 A  
HETATM   17  C   UNL     1     -11.947  13.061  66.789  1.00  0.00    -0.434 A  
HETATM   18  C   UNL     1     -10.663  12.748  67.299  1.00  0.00    -0.237 A  
HETATM   19  N   UNL     1     -10.417  11.655  68.186  1.00  0.00    -0.188 NA 
BRANCH  19  20
HETATM   20  C   UNL     1     -11.568  10.852  68.658  1.00  0.00    -0.303 C  
BRANCH  20  21
HETATM   21  C   UNL     1     -12.118  11.328  70.014  1.00  0.00    -0.425 C  
BRANCH  21  22
HETATM   22  C   UNL     1     -13.099  10.327  70.626  1.00  0.00    -0.226 C  
BRANCH  22  23
HETATM   23  N   UNL     1     -12.636   9.703  71.884  1.00  0.00    -0.393 NA 
HETATM   24  C   UNL     1     -13.623   8.682  72.316  1.00  0.00    -0.383 C  
HETATM   25  C   UNL     1     -13.683   7.439  71.391  1.00  0.00    -0.323 C  
HETATM   26  N   UNL     1     -12.382   6.779  71.152  1.00  0.00    -0.364 NA 
HETATM   27  C   UNL     1     -11.339   7.782  70.838  1.00  0.00    -0.275 C  
HETATM   28  C   UNL     1     -11.994   5.972  72.308  1.00  0.00    -0.204 C  
HETATM   29  C   UNL     1     -11.329   9.025  71.761  1.00  0.00    -0.377 C  
ENDBRANCH  22  23
ENDBRANCH  21  22
ENDBRANCH  20  21
ENDBRANCH  19  20
ENDBRANCH   4   6
ENDBRANCH   3   4
ENDBRANCH   2   3
TORSDOF 7
ENDMDL
MODEL       86
REMARK 921   NORMALIZED FREE ENERGY PREDICTED BY IDOCK:   -5.04 KCAL/MOL
REMARK 922        TOTAL FREE ENERGY PREDICTED BY IDOCK:   -8.06 KCAL/MOL
REMARK 923 INTER-LIGAND FREE ENERGY PREDICTED BY IDOCK:   -7.03 KCAL/MOL
REMARK 924 INTRA-LIGAND FREE ENERGY PREDICTED BY IDOCK:   -1.04 KCAL/MOL
REMARK 927      BINDING AFFINITY PREDICTED BY RF-SCORE:    0.00 PKD
ROOT
HETATM    1  C   UNL     1      -9.365  10.697  63.864  1.00  0.00    -0.302 C  
HETATM    2  C   UNL     1     -10.083  10.651  65.204  1.00  0.00    -0.374 C  
ENDROOT
BRANCH   2   3
HETATM    3  C   UNL     1     -10.130  12.038  65.840  1.00  0.00    -0.264 C  
BRANCH   3   4
HETATM    4  C   UNL     1      -9.313  12.134  67.117  1.00  0.00    -0.193 C  
HETATM    5  O   UNL     1      -9.394  11.317  68.032  1.00  0.00    -0.156 OA 
BRANCH   4   6
HETATM    6  C   UNL     1      -8.334  13.260  67.228  1.00  0.00    -0.182 A  
HETATM    7  C   UNL     1      -8.797  14.579  67.080  1.00  0.00    -0.245 A  
HETATM    8  C   UNL     1      -7.956  15.713  67.214  1.00  0.00    -0.197 A  
HETATM    9  C   UNL     1      -6.602  15.440  67.482  1.00  0.00    -0.161 A  
HETATM   10  S   UNL     1      -5.357  16.680  67.699  1.00  0.00    -0.149 SA 
HETATM   11  C   UNL     1      -6.134  14.118  67.612  1.00  0.00    -0.075 A  
HETATM   12  C   UNL     1      -6.264  18.183  67.458  1.00  0.00    -0.172 A  
HETATM   13  C   UNL     1      -6.991  13.032  67.489  1.00  0.00    -0.155 A  
HETATM   14  C   UNL     1      -5.483  19.355  67.562  1.00  0.00    -0.176 A  
HETATM   15  C   UNL     1      -6.045  20.610  67.402  1.00  0.00    -0.284 A  
HETATM   16  C   UNL     1      -7.398  20.707  67.133  1.00  0.00    -0.389 A  
HETATM   17  C   UNL     1      -8.177  19.544  67.028  1.00  0.00    -0.308 A  
HETATM   18  C   UNL     1      -7.649  18.240  67.187  1.00  0.00    -0.215 A  
HETATM   19  N   UNL     1      -8.444  17.055  67.088  1.00  0.00    -0.196 NA 
BRANCH  19  20
HETATM   20  C   UNL     1      -9.904  17.197  66.882  1.00  0.00    -0.285 C  
BRANCH  20  21
HETATM   21  C   UNL     1     -10.676  17.426  68.192  1.00  0.00    -0.343 C  
BRANCH  21  22
HETATM   22  C   UNL     1     -11.452  16.184  68.633  1.00  0.00    -0.340 C  
BRANCH  22  23
HETATM   23  N   UNL     1     -10.952  15.554  69.873  1.00  0.00    -0.280 NA 
HETATM   24  C   UNL     1     -11.745  16.047  71.028  1.00  0.00    -0.417 C  
HETATM   25  C   UNL     1     -13.214  15.551  71.034  1.00  0.00    -0.474 C  
HETATM   26  N   UNL     1     -13.376  14.086  70.929  1.00  0.00    -0.194 NA 
HETATM   27  C   UNL     1     -12.504  13.540  69.865  1.00  0.00    -0.134 C  
HETATM   28  C   UNL     1     -13.094  13.444  72.213  1.00  0.00    -0.383 C  
HETATM   29  C   UNL     1     -11.053  14.079  69.869  1.00  0.00     0.015 C  
ENDBRANCH  22  23
ENDBRANCH  21  22
ENDBRANCH  20  21
ENDBRANCH  19  20
ENDBRANCH   4   6
ENDBRANCH   3   4
ENDBRANCH   2   3
TORSDOF 7
ENDMDL
MODEL       87
REMARK 921   NORMALIZED FREE ENERGY PREDICTED BY IDOCK:   -5.03 KCAL/MOL
REMARK 922        TOTAL FREE ENERGY PREDICTED BY IDOCK:   -8.05 KCAL/MOL
REMARK 923 INTER-LIGAND FREE ENERGY PREDICTED BY IDOCK:   -6.98 KCAL/MOL
REMARK 924 INTRA-LIGAND FREE ENERGY PREDICTED BY IDOCK:   -1.07 KCAL/MOL
REMARK 927      BINDING AFFINITY PREDICTED BY RF-SCORE:    0.00 PKD
ROOT
HETATM    1  C   UNL     1     -11.267   4.742  73.367  1.00  0.00    -0.425 C  
HETATM    2  C   UNL     1     -10.293   5.201  72.292  1.00  0.00    -0.267 C  
ENDROOT
BRANCH   2   3
HETATM    3  C   UNL     1     -11.018   6.007  71.216  1.00  0.00    -0.340 C  
BRANCH   3   4
HETATM    4  C   UNL     1     -10.079   6.861  70.381  1.00  0.00    -0.187 C  
HETATM    5  O   UNL     1      -9.022   6.441  69.914  1.00  0.00    -0.141 OA 
BRANCH   4   6
HETATM    6  C   UNL     1     -10.501   8.265  70.087  1.00  0.00    -0.225 A  
HETATM    7  C   UNL     1     -10.362   8.756  68.778  1.00  0.00    -0.234 A  
HETATM    8  C   UNL     1     -10.774  10.056  68.390  1.00  0.00    -0.234 A  
HETATM    9  C   UNL     1     -11.318  10.854  69.414  1.00  0.00    -0.280 A  
HETATM   10  S   UNL     1     -11.911  12.506  69.185  1.00  0.00    -0.266 SA 
HETATM   11  C   UNL     1     -11.440  10.370  70.731  1.00  0.00    -0.422 A  
HETATM   12  C   UNL     1     -11.597  12.793  67.465  1.00  0.00    -0.356 A  
HETATM   13  C   UNL     1     -11.038   9.084  71.070  1.00  0.00    -0.356 A  
HETATM   14  C   UNL     1     -11.971  14.078  67.014  1.00  0.00    -0.472 A  
HETATM   15  C   UNL     1     -11.792  14.457  65.694  1.00  0.00    -0.355 A  
HETATM   16  C   UNL     1     -11.235  13.553  64.809  1.00  0.00    -0.363 A  
HETATM   17  C   UNL     1     -10.860  12.275  65.255  1.00  0.00    -0.332 A  
HETATM   18  C   UNL     1     -11.026  11.840  66.592  1.00  0.00    -0.294 A  
HETATM   19  N   UNL     1     -10.654  10.537  67.045  1.00  0.00    -0.253 NA 
BRANCH  19  20
HETATM   20  C   UNL     1     -10.136   9.564  66.054  1.00  0.00    -0.249 C  
BRANCH  20  21
HETATM   21  C   UNL     1      -8.718   9.904  65.563  1.00  0.00    -0.170 C  
BRANCH  21  22
HETATM   22  C   UNL     1      -7.649   9.577  66.605  1.00  0.00    -0.097 C  
BRANCH  22  23
HETATM   23  N   UNL     1      -6.549  10.561  66.688  1.00  0.00    -0.087 NA 
HETATM   24  C   UNL     1      -7.098  11.878  67.099  1.00  0.00    -0.142 C  
HETATM   25  C   UNL     1      -7.616  11.911  68.560  1.00  0.00    -0.127 C  
HETATM   26  N   UNL     1      -6.641  11.459  69.576  1.00  0.00    -0.120 NA 
HETATM   27  C   UNL     1      -5.980  10.208  69.142  1.00  0.00    -0.037 C  
HETATM   28  C   UNL     1      -5.653  12.504  69.842  1.00  0.00    -0.112 C  
HETATM   29  C   UNL     1      -5.503  10.197  67.669  1.00  0.00    -0.041 C  
ENDBRANCH  22  23
ENDBRANCH  21  22
ENDBRANCH  20  21
ENDBRANCH  19  20
ENDBRANCH   4   6
ENDBRANCH   3   4
ENDBRANCH   2   3
TORSDOF 7
ENDMDL
MODEL       88
REMARK 921   NORMALIZED FREE ENERGY PREDICTED BY IDOCK:   -5.03 KCAL/MOL
REMARK 922        TOTAL FREE ENERGY PREDICTED BY IDOCK:   -8.05 KCAL/MOL
REMARK 923 INTER-LIGAND FREE ENERGY PREDICTED BY IDOCK:   -6.78 KCAL/MOL
REMARK 924 INTRA-LIGAND FREE ENERGY PREDICTED BY IDOCK:   -1.26 KCAL/MOL
REMARK 927      BINDING AFFINITY PREDICTED BY RF-SCORE:    0.00 PKD
ROOT
HETATM    1  C   UNL     1      -7.027   7.949  67.844  1.00  0.00    -0.077 C  
HETATM    2  C   UNL     1      -6.343   8.433  69.114  1.00  0.00    -0.043 C  
ENDROOT
BRANCH   2   3
HETATM    3  C   UNL     1      -5.611   9.749  68.865  1.00  0.00    -0.036 C  
BRANCH   3   4
HETATM    4  C   UNL     1      -6.207  10.915  69.635  1.00  0.00    -0.085 C  
HETATM    5  O   UNL     1      -6.182  10.994  70.863  1.00  0.00    -0.362 OA 
BRANCH   4   6
HETATM    6  C   UNL     1      -6.808  12.031  68.843  1.00  0.00    -0.103 A  
HETATM    7  C   UNL     1      -8.002  11.798  68.140  1.00  0.00    -0.146 A  
HETATM    8  C   UNL     1      -8.673  12.804  67.398  1.00  0.00    -0.196 A  
HETATM    9  C   UNL     1      -8.052  14.067  67.384  1.00  0.00    -0.185 A  
HETATM   10  S   UNL     1      -8.691  15.485  66.540  1.00  0.00    -0.289 SA 
HETATM   11  C   UNL     1      -6.845  14.296  68.073  1.00  0.00    -0.150 A  
HETATM   12  C   UNL     1     -10.165  14.853  65.786  1.00  0.00    -0.336 A  
HETATM   13  C   UNL     1      -6.225  13.289  68.802  1.00  0.00    -0.090 A  
HETATM   14  C   UNL     1     -10.876  15.800  65.017  1.00  0.00    -0.461 A  
HETATM   15  C   UNL     1     -12.050  15.462  64.366  1.00  0.00    -0.205 A  
HETATM   16  C   UNL     1     -12.527  14.169  64.475  1.00  0.00    -0.350 A  
HETATM   17  C   UNL     1     -11.821  13.224  65.237  1.00  0.00    -0.386 A  
HETATM   18  C   UNL     1     -10.620  13.522  65.924  1.00  0.00    -0.284 A  
HETATM   19  N   UNL     1      -9.905  12.563  66.707  1.00  0.00    -0.224 NA 
BRANCH  19  20
HETATM   20  C   UNL     1     -10.485  11.209  66.871  1.00  0.00    -0.246 C  
BRANCH  20  21
HETATM   21  C   UNL     1     -11.442  11.108  68.072  1.00  0.00    -0.366 C  
BRANCH  21  22
HETATM   22  C   UNL     1     -11.161   9.877  68.934  1.00  0.00    -0.140 C  
BRANCH  22  23
HETATM   23  N   UNL     1     -10.754  10.178  70.323  1.00  0.00    -0.298 NA 
HETATM   24  C   UNL     1     -11.855   9.807  71.248  1.00  0.00    -0.399 C  
HETATM   25  C   UNL     1     -12.097   8.279  71.351  1.00  0.00    -0.300 C  
HETATM   26  N   UNL     1     -10.898   7.482  71.686  1.00  0.00    -0.219 NA 
HETATM   27  C   UNL     1      -9.742   7.910  70.867  1.00  0.00    -0.164 C  
HETATM   28  C   UNL     1     -10.591   7.588  73.112  1.00  0.00    -0.388 C  
HETATM   29  C   UNL     1      -9.549   9.442  70.759  1.00  0.00    -0.255 C  
ENDBRANCH  22  23
ENDBRANCH  21  22
ENDBRANCH  20  21
ENDBRANCH  19  20
ENDBRANCH   4   6
ENDBRANCH   3   4
ENDBRANCH   2   3
TORSDOF 7
ENDMDL
MODEL       89
REMARK 921   NORMALIZED FREE ENERGY PREDICTED BY IDOCK:   -5.01 KCAL/MOL
REMARK 922        TOTAL FREE ENERGY PREDICTED BY IDOCK:   -8.02 KCAL/MOL
REMARK 923 INTER-LIGAND FREE ENERGY PREDICTED BY IDOCK:   -6.86 KCAL/MOL
REMARK 924 INTRA-LIGAND FREE ENERGY PREDICTED BY IDOCK:   -1.16 KCAL/MOL
REMARK 927      BINDING AFFINITY PREDICTED BY RF-SCORE:    0.00 PKD
ROOT
HETATM    1  C   UNL     1     -11.757  16.051  71.804  1.00  0.00    -0.593 C  
HETATM    2  C   UNL     1     -11.366  15.563  70.418  1.00  0.00    -0.360 C  
ENDROOT
BRANCH   2   3
HETATM    3  C   UNL     1     -12.513  14.787  69.775  1.00  0.00    -0.230 C  
BRANCH   3   4
HETATM    4  C   UNL     1     -12.047  13.553  69.021  1.00  0.00    -0.291 C  
HETATM    5  O   UNL     1     -11.649  13.585  67.858  1.00  0.00    -0.300 OA 
BRANCH   4   6
HETATM    6  C   UNL     1     -12.035  12.254  69.761  1.00  0.00    -0.365 A  
HETATM    7  C   UNL     1     -11.452  11.130  69.151  1.00  0.00    -0.366 A  
HETATM    8  C   UNL     1     -11.352   9.867  69.789  1.00  0.00    -0.193 A  
HETATM    9  C   UNL     1     -11.903   9.792  71.082  1.00  0.00    -0.382 A  
HETATM   10  S   UNL     1     -11.898   8.336  72.087  1.00  0.00    -0.394 SA 
HETATM   11  C   UNL     1     -12.504  10.914  71.687  1.00  0.00    -0.347 A  
HETATM   12  C   UNL     1     -11.104   7.148  71.039  1.00  0.00    -0.260 A  
HETATM   13  C   UNL     1     -12.570  12.139  71.036  1.00  0.00    -0.359 A  
HETATM   14  C   UNL     1     -10.985   5.860  71.607  1.00  0.00    -0.327 A  
HETATM   15  C   UNL     1     -10.386   4.822  70.916  1.00  0.00    -0.187 A  
HETATM   16  C   UNL     1      -9.899   5.059  69.644  1.00  0.00    -0.290 A  
HETATM   17  C   UNL     1     -10.017   6.337  69.075  1.00  0.00    -0.175 A  
HETATM   18  C   UNL     1     -10.618   7.431  69.743  1.00  0.00    -0.236 A  
HETATM   19  N   UNL     1     -10.731   8.735  69.168  1.00  0.00    -0.180 NA 
BRANCH  19  20
HETATM   20  C   UNL     1     -10.126   8.977  67.837  1.00  0.00    -0.197 C  
BRANCH  20  21
HETATM   21  C   UNL     1      -8.595   9.115  67.890  1.00  0.00    -0.121 C  
BRANCH  21  22
HETATM   22  C   UNL     1      -8.106  10.404  67.228  1.00  0.00    -0.114 C  
BRANCH  22  23
HETATM   23  N   UNL     1      -8.181  11.604  68.089  1.00  0.00    -0.144 NA 
HETATM   24  C   UNL     1      -7.528  11.315  69.392  1.00  0.00     0.018 C  
HETATM   25  C   UNL     1      -5.992  11.132  69.294  1.00  0.00    -0.048 C  
HETATM   26  N   UNL     1      -5.275  12.244  68.635  1.00  0.00    -0.050 NA 
HETATM   27  C   UNL     1      -5.968  12.645  67.390  1.00  0.00    -0.131 C  
HETATM   28  C   UNL     1      -5.140  13.382  69.544  1.00  0.00    -0.083 C  
HETATM   29  C   UNL     1      -7.505  12.787  67.514  1.00  0.00    -0.154 C  
ENDBRANCH  22  23
ENDBRANCH  21  22
ENDBRANCH  20  21
ENDBRANCH  19  20
ENDBRANCH   4   6
ENDBRANCH   3   4
ENDBRANCH   2   3
TORSDOF 7
ENDMDL
MODEL       90
REMARK 921   NORMALIZED FREE ENERGY PREDICTED BY IDOCK:   -5.00 KCAL/MOL
REMARK 922        TOTAL FREE ENERGY PREDICTED BY IDOCK:   -8.00 KCAL/MOL
REMARK 923 INTER-LIGAND FREE ENERGY PREDICTED BY IDOCK:   -6.93 KCAL/MOL
REMARK 924 INTRA-LIGAND FREE ENERGY PREDICTED BY IDOCK:   -1.06 KCAL/MOL
REMARK 927      BINDING AFFINITY PREDICTED BY RF-SCORE:    0.00 PKD
ROOT
HETATM    1  C   UNL     1      -6.848   5.262  67.057  1.00  0.00    -0.063 C  
HETATM    2  C   UNL     1      -7.500   6.337  67.915  1.00  0.00    -0.093 C  
ENDROOT
BRANCH   2   3
HETATM    3  C   UNL     1      -8.933   5.950  68.269  1.00  0.00    -0.112 C  
BRANCH   3   4
HETATM    4  C   UNL     1      -9.958   6.515  67.300  1.00  0.00    -0.147 C  
HETATM    5  O   UNL     1     -10.600   5.817  66.516  1.00  0.00    -0.258 OA 
BRANCH   4   6
HETATM    6  C   UNL     1     -10.217   7.987  67.348  1.00  0.00    -0.330 A  
HETATM    7  C   UNL     1     -10.861   8.526  68.475  1.00  0.00     0.020 A  
HETATM    8  C   UNL     1     -11.110   9.913  68.634  1.00  0.00    -0.134 A  
HETATM    9  C   UNL     1     -10.692  10.734  67.569  1.00  0.00    -0.264 A  
HETATM   10  S   UNL     1     -10.882  12.493  67.530  1.00  0.00    -0.241 SA 
HETATM   11  C   UNL     1     -10.064  10.191  66.431  1.00  0.00    -0.300 A  
HETATM   12  C   UNL     1     -11.702  12.826  69.065  1.00  0.00    -0.323 A  
HETATM   13  C   UNL     1      -9.823   8.828  66.318  1.00  0.00    -0.342 A  
HETATM   14  C   UNL     1     -11.995  14.190  69.282  1.00  0.00    -0.382 A  
HETATM   15  C   UNL     1     -12.633  14.614  70.435  1.00  0.00    -0.399 A  
HETATM   16  C   UNL     1     -12.986  13.676  71.387  1.00  0.00    -0.427 A  
HETATM   17  C   UNL     1     -12.698  12.319  71.174  1.00  0.00    -0.340 A  
HETATM   18  C   UNL     1     -12.045  11.837  70.014  1.00  0.00    -0.310 A  
HETATM   19  N   UNL     1     -11.743  10.456  69.800  1.00  0.00    -0.252 NA 
BRANCH  19  20
HETATM   20  C   UNL     1     -12.061   9.487  70.874  1.00  0.00    -0.278 C  
BRANCH  20  21
HETATM   21  C   UNL     1     -10.879   9.240  71.828  1.00  0.00    -0.358 C  
BRANCH  21  22
HETATM   22  C   UNL     1     -10.941   7.859  72.482  1.00  0.00    -0.350 C  
BRANCH  22  23
HETATM   23  N   UNL     1     -10.032   7.682  73.634  1.00  0.00    -0.295 NA 
HETATM   24  C   UNL     1     -10.117   6.280  74.116  1.00  0.00    -0.313 C  
HETATM   25  C   UNL     1      -9.524   5.242  73.128  1.00  0.00    -0.142 C  
HETATM   26  N   UNL     1      -8.138   5.518  72.695  1.00  0.00    -0.106 NA 
HETATM   27  C   UNL     1      -7.982   6.942  72.322  1.00  0.00    -0.093 C  
HETATM   28  C   UNL     1      -7.188   5.148  73.743  1.00  0.00    -0.083 C  
HETATM   29  C   UNL     1      -8.613   7.950  73.314  1.00  0.00    -0.218 C  
ENDBRANCH  22  23
ENDBRANCH  21  22
ENDBRANCH  20  21
ENDBRANCH  19  20
ENDBRANCH   4   6
ENDBRANCH   3   4
ENDBRANCH   2   3
TORSDOF 7
ENDMDL
MODEL       91
REMARK 921   NORMALIZED FREE ENERGY PREDICTED BY IDOCK:   -4.97 KCAL/MOL
REMARK 922        TOTAL FREE ENERGY PREDICTED BY IDOCK:   -7.96 KCAL/MOL
REMARK 923 INTER-LIGAND FREE ENERGY PREDICTED BY IDOCK:   -7.52 KCAL/MOL
REMARK 924 INTRA-LIGAND FREE ENERGY PREDICTED BY IDOCK:   -0.44 KCAL/MOL
REMARK 927      BINDING AFFINITY PREDICTED BY RF-SCORE:    0.00 PKD
ROOT
HETATM    1  C   UNL     1     -11.060   6.440  69.052  1.00  0.00    -0.424 C  
HETATM    2  C   UNL     1     -11.594   6.546  70.472  1.00  0.00    -0.455 C  
ENDROOT
BRANCH   2   3
HETATM    3  C   UNL     1     -10.949   7.720  71.205  1.00  0.00    -0.259 C  
BRANCH   3   4
HETATM    4  C   UNL     1     -11.956   8.761  71.662  1.00  0.00    -0.332 C  
HETATM    5  O   UNL     1     -12.735   8.580  72.598  1.00  0.00    -0.341 OA 
BRANCH   4   6
HETATM    6  C   UNL     1     -11.955  10.080  70.958  1.00  0.00    -0.469 A  
HETATM    7  C   UNL     1     -11.485  10.143  69.635  1.00  0.00    -0.256 A  
HETATM    8  C   UNL     1     -11.487  11.337  68.869  1.00  0.00    -0.297 A  
HETATM    9  C   UNL     1     -11.969  12.483  69.527  1.00  0.00    -0.266 A  
HETATM   10  S   UNL     1     -12.080  14.087  68.788  1.00  0.00    -0.217 SA 
HETATM   11  C   UNL     1     -12.423  12.424  70.860  1.00  0.00    -0.367 A  
HETATM   12  C   UNL     1     -11.428  13.809  67.165  1.00  0.00    -0.340 A  
HETATM   13  C   UNL     1     -12.420  11.232  71.574  1.00  0.00    -0.332 A  
HETATM   14  C   UNL     1     -11.386  14.962  66.351  1.00  0.00    -0.308 A  
HETATM   15  C   UNL     1     -10.905  14.910  65.054  1.00  0.00    -0.439 A  
HETATM   16  C   UNL     1     -10.459  13.700  64.555  1.00  0.00    -0.411 A  
HETATM   17  C   UNL     1     -10.498  12.552  65.361  1.00  0.00    -0.308 A  
HETATM   18  C   UNL     1     -10.984  12.554  66.691  1.00  0.00    -0.266 A  
HETATM   19  N   UNL     1     -11.031  11.384  67.511  1.00  0.00    -0.242 NA 
BRANCH  19  20
HETATM   20  C   UNL     1     -10.623  10.088  66.920  1.00  0.00    -0.192 C  
BRANCH  20  21
HETATM   21  C   UNL     1      -9.135  10.047  66.532  1.00  0.00    -0.172 C  
BRANCH  21  22
HETATM   22  C   UNL     1      -8.237   9.681  67.715  1.00  0.00    -0.114 C  
BRANCH  22  23
HETATM   23  N   UNL     1      -8.158  10.714  68.770  1.00  0.00    -0.130 NA 
HETATM   24  C   UNL     1      -6.980  10.444  69.633  1.00  0.00    -0.127 C  
HETATM   25  C   UNL     1      -5.620  10.664  68.921  1.00  0.00    -0.040 C  
HETATM   26  N   UNL     1      -5.458  11.990  68.287  1.00  0.00    -0.047 NA 
HETATM   27  C   UNL     1      -6.669  12.350  67.515  1.00  0.00    -0.146 C  
HETATM   28  C   UNL     1      -5.162  13.009  69.294  1.00  0.00    -0.074 C  
HETATM   29  C   UNL     1      -8.010  12.087  68.243  1.00  0.00    -0.149 C  
ENDBRANCH  22  23
ENDBRANCH  21  22
ENDBRANCH  20  21
ENDBRANCH  19  20
ENDBRANCH   4   6
ENDBRANCH   3   4
ENDBRANCH   2   3
TORSDOF 7
ENDMDL
MODEL       92
REMARK 921   NORMALIZED FREE ENERGY PREDICTED BY IDOCK:   -4.95 KCAL/MOL
REMARK 922        TOTAL FREE ENERGY PREDICTED BY IDOCK:   -7.93 KCAL/MOL
REMARK 923 INTER-LIGAND FREE ENERGY PREDICTED BY IDOCK:   -7.45 KCAL/MOL
REMARK 924 INTRA-LIGAND FREE ENERGY PREDICTED BY IDOCK:   -0.48 KCAL/MOL
REMARK 927      BINDING AFFINITY PREDICTED BY RF-SCORE:    0.00 PKD
ROOT
HETATM    1  C   UNL     1     -11.011  15.559  65.312  1.00  0.00    -0.391 C  
HETATM    2  C   UNL     1     -12.022  14.895  64.390  1.00  0.00    -0.408 C  
ENDROOT
BRANCH   2   3
HETATM    3  C   UNL     1     -12.792  13.804  65.129  1.00  0.00    -0.386 C  
BRANCH   3   4
HETATM    4  C   UNL     1     -11.893  12.890  65.943  1.00  0.00    -0.424 C  
HETATM    5  O   UNL     1     -11.893  12.865  67.173  1.00  0.00    -0.365 OA 
BRANCH   4   6
HETATM    6  C   UNL     1     -11.005  11.948  65.194  1.00  0.00    -0.365 A  
HETATM    7  C   UNL     1     -10.326  10.944  65.906  1.00  0.00    -0.310 A  
HETATM    8  C   UNL     1      -9.498   9.977  65.280  1.00  0.00    -0.263 A  
HETATM    9  C   UNL     1      -9.370  10.096  63.884  1.00  0.00    -0.287 A  
HETATM   10  S   UNL     1      -8.403   9.011  62.874  1.00  0.00    -0.197 SA 
HETATM   11  C   UNL     1     -10.035  11.114  63.172  1.00  0.00    -0.393 A  
HETATM   12  C   UNL     1      -7.711   7.894  64.061  1.00  0.00    -0.133 A  
HETATM   13  C   UNL     1     -10.850  12.035  63.819  1.00  0.00    -0.481 A  
HETATM   14  C   UNL     1      -6.861   6.911  63.507  1.00  0.00    -0.054 A  
HETATM   15  C   UNL     1      -6.244   5.962  64.304  1.00  0.00    -0.029 A  
HETATM   16  C   UNL     1      -6.469   5.986  65.668  1.00  0.00    -0.043 A  
HETATM   17  C   UNL     1      -7.312   6.962  66.223  1.00  0.00    -0.076 A  
HETATM   18  C   UNL     1      -7.968   7.950  65.449  1.00  0.00    -0.123 A  
HETATM   19  N   UNL     1      -8.832   8.940  66.012  1.00  0.00    -0.160 NA 
BRANCH  19  20
HETATM   20  C   UNL     1      -9.118   8.888  67.465  1.00  0.00    -0.133 C  
BRANCH  20  21
HETATM   21  C   UNL     1     -10.280   7.942  67.815  1.00  0.00    -0.276 C  
BRANCH  21  22
HETATM   22  C   UNL     1     -10.402   7.706  69.321  1.00  0.00    -0.217 C  
BRANCH  22  23
HETATM   23  N   UNL     1     -11.271   6.571  69.697  1.00  0.00    -0.369 NA 
HETATM   24  C   UNL     1     -10.425   5.403  70.054  1.00  0.00    -0.303 C  
HETATM   25  C   UNL     1      -9.622   5.591  71.367  1.00  0.00    -0.154 C  
HETATM   26  N   UNL     1     -10.433   5.974  72.542  1.00  0.00    -0.195 NA 
HETATM   27  C   UNL     1     -11.380   7.057  72.192  1.00  0.00    -0.265 C  
HETATM   28  C   UNL     1     -11.146   4.814  73.076  1.00  0.00    -0.274 C  
HETATM   29  C   UNL     1     -12.141   6.853  70.859  1.00  0.00    -0.373 C  
ENDBRANCH  22  23
ENDBRANCH  21  22
ENDBRANCH  20  21
ENDBRANCH  19  20
ENDBRANCH   4   6
ENDBRANCH   3   4
ENDBRANCH   2   3
TORSDOF 7
ENDMDL
MODEL       93
REMARK 921   NORMALIZED FREE ENERGY PREDICTED BY IDOCK:   -4.94 KCAL/MOL
REMARK 922        TOTAL FREE ENERGY PREDICTED BY IDOCK:   -7.92 KCAL/MOL
REMARK 923 INTER-LIGAND FREE ENERGY PREDICTED BY IDOCK:   -6.84 KCAL/MOL
REMARK 924 INTRA-LIGAND FREE ENERGY PREDICTED BY IDOCK:   -1.08 KCAL/MOL
REMARK 927      BINDING AFFINITY PREDICTED BY RF-SCORE:    0.00 PKD
ROOT
HETATM    1  C   UNL     1      -9.658   4.414  68.293  1.00  0.00    -0.199 C  
HETATM    2  C   UNL     1     -10.087   4.942  69.654  1.00  0.00    -0.300 C  
ENDROOT
BRANCH   2   3
HETATM    3  C   UNL     1     -10.934   6.203  69.502  1.00  0.00    -0.463 C  
BRANCH   3   4
HETATM    4  C   UNL     1     -10.491   7.331  70.418  1.00  0.00    -0.220 C  
HETATM    5  O   UNL     1      -9.835   7.148  71.442  1.00  0.00    -0.176 OA 
BRANCH   4   6
HETATM    6  C   UNL     1     -10.839   8.727  70.013  1.00  0.00    -0.231 A  
HETATM    7  C   UNL     1     -10.630   9.121  68.680  1.00  0.00    -0.207 A  
HETATM    8  C   UNL     1     -10.971  10.407  68.190  1.00  0.00    -0.281 A  
HETATM    9  C   UNL     1     -11.516  11.295  69.136  1.00  0.00    -0.297 A  
HETATM   10  S   UNL     1     -12.028  12.950  68.773  1.00  0.00    -0.175 SA 
HETATM   11  C   UNL     1     -11.708  10.908  70.477  1.00  0.00    -0.441 A  
HETATM   12  C   UNL     1     -11.638  13.105  67.052  1.00  0.00    -0.359 A  
HETATM   13  C   UNL     1     -11.376   9.632  70.917  1.00  0.00    -0.431 A  
HETATM   14  C   UNL     1     -11.938  14.371  66.501  1.00  0.00    -0.406 A  
HETATM   15  C   UNL     1     -11.694  14.650  65.167  1.00  0.00    -0.364 A  
HETATM   16  C   UNL     1     -11.145  13.665  64.368  1.00  0.00    -0.378 A  
HETATM   17  C   UNL     1     -10.844  12.407  64.912  1.00  0.00    -0.333 A  
HETATM   18  C   UNL     1     -11.078  12.072  66.268  1.00  0.00    -0.317 A  
HETATM   19  N   UNL     1     -10.780  10.789  66.822  1.00  0.00    -0.251 NA 
BRANCH  19  20
HETATM   20  C   UNL     1     -10.268   9.730  65.920  1.00  0.00    -0.174 C  
BRANCH  20  21
HETATM   21  C   UNL     1      -8.752   9.827  65.679  1.00  0.00    -0.168 C  
BRANCH  21  22
HETATM   22  C   UNL     1      -8.155   8.503  65.200  1.00  0.00    -0.142 C  
BRANCH  22  23
HETATM   23  N   UNL     1      -8.549   7.325  66.001  1.00  0.00    -0.147 NA 
HETATM   24  C   UNL     1      -8.355   6.094  65.192  1.00  0.00    -0.129 C  
HETATM   25  C   UNL     1      -6.867   5.759  64.911  1.00  0.00    -0.051 C  
HETATM   26  N   UNL     1      -6.009   5.685  66.112  1.00  0.00    -0.021 NA 
HETATM   27  C   UNL     1      -6.265   6.836  67.007  1.00  0.00    -0.037 C  
HETATM   28  C   UNL     1      -6.220   4.421  66.818  1.00  0.00    -0.032 C  
HETATM   29  C   UNL     1      -7.760   7.163  67.241  1.00  0.00    -0.109 C  
ENDBRANCH  22  23
ENDBRANCH  21  22
ENDBRANCH  20  21
ENDBRANCH  19  20
ENDBRANCH   4   6
ENDBRANCH   3   4
ENDBRANCH   2   3
TORSDOF 7
ENDMDL
MODEL       94
REMARK 921   NORMALIZED FREE ENERGY PREDICTED BY IDOCK:   -4.91 KCAL/MOL
REMARK 922        TOTAL FREE ENERGY PREDICTED BY IDOCK:   -7.87 KCAL/MOL
REMARK 923 INTER-LIGAND FREE ENERGY PREDICTED BY IDOCK:   -7.35 KCAL/MOL
REMARK 924 INTRA-LIGAND FREE ENERGY PREDICTED BY IDOCK:   -0.52 KCAL/MOL
REMARK 927      BINDING AFFINITY PREDICTED BY RF-SCORE:    0.00 PKD
ROOT
HETATM    1  C   UNL     1      -5.774   8.756  70.656  1.00  0.00    -0.028 C  
HETATM    2  C   UNL     1      -7.035   9.599  70.540  1.00  0.00    -0.133 C  
ENDROOT
BRANCH   2   3
HETATM    3  C   UNL     1      -8.178   8.974  71.337  1.00  0.00    -0.113 C  
BRANCH   3   4
HETATM    4  C   UNL     1      -9.173   8.229  70.464  1.00  0.00    -0.151 C  
HETATM    5  O   UNL     1      -9.901   7.333  70.888  1.00  0.00    -0.184 OA 
BRANCH   4   6
HETATM    6  C   UNL     1      -9.291   8.652  69.035  1.00  0.00    -0.146 A  
HETATM    7  C   UNL     1     -10.167   9.701  68.707  1.00  0.00    -0.213 A  
HETATM    8  C   UNL     1     -10.314  10.203  67.389  1.00  0.00    -0.238 A  
HETATM    9  C   UNL     1      -9.539   9.564  66.403  1.00  0.00    -0.213 A  
HETATM   10  S   UNL     1      -9.538  10.009  64.690  1.00  0.00    -0.248 SA 
HETATM   11  C   UNL     1      -8.675   8.500  66.728  1.00  0.00    -0.133 A  
HETATM   12  C   UNL     1     -10.716  11.331  64.634  1.00  0.00    -0.303 A  
HETATM   13  C   UNL     1      -8.546   8.046  68.035  1.00  0.00    -0.129 A  
HETATM   14  C   UNL     1     -10.924  11.870  63.345  1.00  0.00    -0.470 A  
HETATM   15  C   UNL     1     -11.812  12.910  63.135  1.00  0.00    -0.280 A  
HETATM   16  C   UNL     1     -12.506  13.425  64.215  1.00  0.00    -0.321 A  
HETATM   17  C   UNL     1     -12.303  12.891  65.497  1.00  0.00    -0.517 A  
HETATM   18  C   UNL     1     -11.404  11.831  65.763  1.00  0.00    -0.250 A  
HETATM   19  N   UNL     1     -11.190  11.292  67.070  1.00  0.00    -0.362 NA 
BRANCH  19  20
HETATM   20  C   UNL     1     -11.887  11.920  68.217  1.00  0.00    -0.277 C  
BRANCH  20  21
HETATM   21  C   UNL     1     -10.957  12.789  69.081  1.00  0.00    -0.185 C  
BRANCH  21  22
HETATM   22  C   UNL     1     -10.317  13.925  68.283  1.00  0.00    -0.249 C  
BRANCH  22  23
HETATM   23  N   UNL     1     -11.269  14.947  67.796  1.00  0.00    -0.309 NA 
HETATM   24  C   UNL     1     -11.572  15.898  68.896  1.00  0.00    -0.388 C  
HETATM   25  C   UNL     1     -10.372  16.797  69.293  1.00  0.00    -0.309 C  
HETATM   26  N   UNL     1      -9.753  17.537  68.173  1.00  0.00    -0.289 NA 
HETATM   27  C   UNL     1      -9.549  16.646  67.009  1.00  0.00    -0.244 C  
HETATM   28  C   UNL     1     -10.571  18.693  67.805  1.00  0.00    -0.385 C  
HETATM   29  C   UNL     1     -10.754  15.740  66.660  1.00  0.00    -0.287 C  
ENDBRANCH  22  23
ENDBRANCH  21  22
ENDBRANCH  20  21
ENDBRANCH  19  20
ENDBRANCH   4   6
ENDBRANCH   3   4
ENDBRANCH   2   3
TORSDOF 7
ENDMDL
MODEL       95
REMARK 921   NORMALIZED FREE ENERGY PREDICTED BY IDOCK:   -4.90 KCAL/MOL
REMARK 922        TOTAL FREE ENERGY PREDICTED BY IDOCK:   -7.85 KCAL/MOL
REMARK 923 INTER-LIGAND FREE ENERGY PREDICTED BY IDOCK:   -6.90 KCAL/MOL
REMARK 924 INTRA-LIGAND FREE ENERGY PREDICTED BY IDOCK:   -0.96 KCAL/MOL
REMARK 927      BINDING AFFINITY PREDICTED BY RF-SCORE:    0.00 PKD
ROOT
HETATM    1  C   UNL     1     -12.010  12.190  63.612  1.00  0.00    -0.628 C  
HETATM    2  C   UNL     1     -10.717  12.130  64.412  1.00  0.00    -0.366 C  
ENDROOT
BRANCH   2   3
HETATM    3  C   UNL     1     -10.645  13.285  65.408  1.00  0.00    -0.304 C  
BRANCH   3   4
HETATM    4  C   UNL     1      -9.764  12.980  66.608  1.00  0.00    -0.256 C  
HETATM    5  O   UNL     1      -8.637  13.449  66.752  1.00  0.00    -0.152 OA 
BRANCH   4   6
HETATM    6  C   UNL     1     -10.331  12.101  67.676  1.00  0.00    -0.215 A  
HETATM    7  C   UNL     1      -9.456  11.316  68.445  1.00  0.00    -0.192 A  
HETATM    8  C   UNL     1      -9.892  10.486  69.510  1.00  0.00    -0.142 A  
HETATM    9  C   UNL     1     -11.280  10.472  69.742  1.00  0.00    -0.298 A  
HETATM   10  S   UNL     1     -12.071   9.527  71.012  1.00  0.00    -0.312 SA 
HETATM   11  C   UNL     1     -12.161  11.244  68.958  1.00  0.00    -0.325 A  
HETATM   12  C   UNL     1     -10.709   8.685  71.770  1.00  0.00    -0.321 A  
HETATM   13  C   UNL     1     -11.694  12.057  67.933  1.00  0.00    -0.393 A  
HETATM   14  C   UNL     1     -11.074   7.828  72.831  1.00  0.00    -0.457 A  
HETATM   15  C   UNL     1     -10.124   7.100  73.528  1.00  0.00    -0.374 A  
HETATM   16  C   UNL     1      -8.795   7.221  73.169  1.00  0.00    -0.175 A  
HETATM   17  C   UNL     1      -8.427   8.072  72.114  1.00  0.00    -0.194 A  
HETATM   18  C   UNL     1      -9.361   8.838  71.375  1.00  0.00    -0.258 A  
HETATM   19  N   UNL     1      -8.987   9.711  70.306  1.00  0.00    -0.241 NA 
BRANCH  19  20
HETATM   20  C   UNL     1      -7.548   9.881  70.001  1.00  0.00    -0.172 C  
BRANCH  20  21
HETATM   21  C   UNL     1      -6.929   8.650  69.316  1.00  0.00    -0.058 C  
BRANCH  21  22
HETATM   22  C   UNL     1      -7.857   8.046  68.262  1.00  0.00    -0.123 C  
BRANCH  22  23
HETATM   23  N   UNL     1      -7.758   6.577  68.125  1.00  0.00    -0.103 NA 
HETATM   24  C   UNL     1      -8.983   5.949  68.682  1.00  0.00    -0.116 C  
HETATM   25  C   UNL     1     -10.261   6.224  67.849  1.00  0.00    -0.169 C  
HETATM   26  N   UNL     1     -10.155   5.880  66.416  1.00  0.00    -0.143 NA 
HETATM   27  C   UNL     1      -8.883   6.385  65.852  1.00  0.00    -0.131 C  
HETATM   28  C   UNL     1     -10.271   4.435  66.223  1.00  0.00    -0.181 C  
HETATM   29  C   UNL     1      -7.631   6.121  66.724  1.00  0.00    -0.099 C  
ENDBRANCH  22  23
ENDBRANCH  21  22
ENDBRANCH  20  21
ENDBRANCH  19  20
ENDBRANCH   4   6
ENDBRANCH   3   4
ENDBRANCH   2   3
TORSDOF 7
ENDMDL
MODEL       96
REMARK 921   NORMALIZED FREE ENERGY PREDICTED BY IDOCK:   -4.89 KCAL/MOL
REMARK 922        TOTAL FREE ENERGY PREDICTED BY IDOCK:   -7.85 KCAL/MOL
REMARK 923 INTER-LIGAND FREE ENERGY PREDICTED BY IDOCK:   -6.95 KCAL/MOL
REMARK 924 INTRA-LIGAND FREE ENERGY PREDICTED BY IDOCK:   -0.90 KCAL/MOL
REMARK 927      BINDING AFFINITY PREDICTED BY RF-SCORE:    0.00 PKD
ROOT
HETATM    1  C   UNL     1      -7.787   2.921  65.130  1.00  0.00    -0.082 C  
HETATM    2  C   UNL     1      -7.187   4.278  64.794  1.00  0.00    -0.070 C  
ENDROOT
BRANCH   2   3
HETATM    3  C   UNL     1      -8.168   5.400  65.124  1.00  0.00    -0.138 C  
BRANCH   3   4
HETATM    4  C   UNL     1      -7.765   6.200  66.351  1.00  0.00    -0.102 C  
HETATM    5  O   UNL     1      -6.693   6.794  66.445  1.00  0.00    -0.046 OA 
BRANCH   4   6
HETATM    6  C   UNL     1      -8.753   6.295  67.469  1.00  0.00    -0.105 A  
HETATM    7  C   UNL     1      -9.201   7.564  67.873  1.00  0.00    -0.137 A  
HETATM    8  C   UNL     1     -10.170   7.755  68.892  1.00  0.00    -0.211 A  
HETATM    9  C   UNL     1     -10.648   6.583  69.506  1.00  0.00    -0.246 A  
HETATM   10  S   UNL     1     -11.861   6.554  70.794  1.00  0.00    -0.256 SA 
HETATM   11  C   UNL     1     -10.185   5.311  69.114  1.00  0.00    -0.281 A  
HETATM   12  C   UNL     1     -12.199   8.275  71.044  1.00  0.00    -0.174 A  
HETATM   13  C   UNL     1      -9.246   5.163  68.101  1.00  0.00    -0.136 A  
HETATM   14  C   UNL     1     -13.146   8.539  72.058  1.00  0.00    -0.403 A  
HETATM   15  C   UNL     1     -13.519   9.834  72.373  1.00  0.00    -0.364 A  
HETATM   16  C   UNL     1     -12.948  10.883  71.677  1.00  0.00    -0.569 A  
HETATM   17  C   UNL     1     -12.005  10.625  70.669  1.00  0.00    -0.466 A  
HETATM   18  C   UNL     1     -11.594   9.318  70.309  1.00  0.00    -0.114 A  
HETATM   19  N   UNL     1     -10.640   9.054  69.277  1.00  0.00    -0.227 NA 
BRANCH  19  20
HETATM   20  C   UNL     1     -10.108  10.193  68.495  1.00  0.00    -0.169 C  
BRANCH  20  21
HETATM   21  C   UNL     1     -11.005  10.576  67.305  1.00  0.00    -0.325 C  
BRANCH  21  22
HETATM   22  C   UNL     1     -11.591  11.980  67.449  1.00  0.00    -0.318 C  
BRANCH  22  23
HETATM   23  N   UNL     1     -11.183  12.929  66.391  1.00  0.00    -0.289 NA 
HETATM   24  C   UNL     1     -11.975  14.178  66.519  1.00  0.00    -0.442 C  
HETATM   25  C   UNL     1     -11.636  15.006  67.786  1.00  0.00    -0.319 C  
HETATM   26  N   UNL     1     -10.203  15.327  67.953  1.00  0.00    -0.233 NA 
HETATM   27  C   UNL     1      -9.369  14.128  67.710  1.00  0.00    -0.200 C  
HETATM   28  C   UNL     1      -9.813  16.420  67.064  1.00  0.00    -0.251 C  
HETATM   29  C   UNL     1      -9.755  13.307  66.455  1.00  0.00    -0.273 C  
ENDBRANCH  22  23
ENDBRANCH  21  22
ENDBRANCH  20  21
ENDBRANCH  19  20
ENDBRANCH   4   6
ENDBRANCH   3   4
ENDBRANCH   2   3
TORSDOF 7
ENDMDL
MODEL       97
REMARK 921   NORMALIZED FREE ENERGY PREDICTED BY IDOCK:   -4.89 KCAL/MOL
REMARK 922        TOTAL FREE ENERGY PREDICTED BY IDOCK:   -7.84 KCAL/MOL
REMARK 923 INTER-LIGAND FREE ENERGY PREDICTED BY IDOCK:   -6.94 KCAL/MOL
REMARK 924 INTRA-LIGAND FREE ENERGY PREDICTED BY IDOCK:   -0.90 KCAL/MOL
REMARK 927      BINDING AFFINITY PREDICTED BY RF-SCORE:    0.00 PKD
ROOT
HETATM    1  C   UNL     1     -10.367   8.733  67.114  1.00  0.00    -0.364 C  
HETATM    2  C   UNL     1      -9.631   8.996  68.420  1.00  0.00    -0.163 C  
ENDROOT
BRANCH   2   3
HETATM    3  C   UNL     1      -9.259  10.471  68.543  1.00  0.00    -0.168 C  
BRANCH   3   4
HETATM    4  C   UNL     1      -7.795  10.741  68.241  1.00  0.00    -0.115 C  
HETATM    5  O   UNL     1      -7.095   9.986  67.568  1.00  0.00    -0.085 OA 
BRANCH   4   6
HETATM    6  C   UNL     1      -7.206  12.014  68.760  1.00  0.00    -0.108 A  
HETATM    7  C   UNL     1      -7.679  13.237  68.253  1.00  0.00    -0.141 A  
HETATM    8  C   UNL     1      -7.216  14.496  68.713  1.00  0.00    -0.126 A  
HETATM    9  C   UNL     1      -6.219  14.454  69.705  1.00  0.00    -0.139 A  
HETATM   10  S   UNL     1      -5.486  15.884  70.446  1.00  0.00    -0.137 SA 
HETATM   11  C   UNL     1      -5.731  13.228  70.200  1.00  0.00    -0.137 A  
HETATM   12  C   UNL     1      -6.296  17.214  69.601  1.00  0.00    -0.209 A  
HETATM   13  C   UNL     1      -6.220  12.014  69.735  1.00  0.00    -0.136 A  
HETATM   14  C   UNL     1      -5.871  18.500  70.000  1.00  0.00    -0.223 A  
HETATM   15  C   UNL     1      -6.410  19.643  69.435  1.00  0.00    -0.365 A  
HETATM   16  C   UNL     1      -7.383  19.513  68.461  1.00  0.00    -0.368 A  
HETATM   17  C   UNL     1      -7.807  18.236  68.061  1.00  0.00    -0.274 A  
HETATM   18  C   UNL     1      -7.288  17.038  68.611  1.00  0.00    -0.229 A  
HETATM   19  N   UNL     1      -7.725  15.738  68.210  1.00  0.00    -0.129 NA 
BRANCH  19  20
HETATM   20  C   UNL     1      -8.826  15.633  67.224  1.00  0.00    -0.198 C  
BRANCH  20  21
HETATM   21  C   UNL     1     -10.186  15.318  67.872  1.00  0.00    -0.235 C  
BRANCH  21  22
HETATM   22  C   UNL     1     -11.328  15.326  66.857  1.00  0.00    -0.209 C  
BRANCH  22  23
HETATM   23  N   UNL     1     -12.044  14.039  66.725  1.00  0.00    -0.447 NA 
HETATM   24  C   UNL     1     -12.891  14.071  65.506  1.00  0.00    -0.419 C  
HETATM   25  C   UNL     1     -12.083  14.081  64.183  1.00  0.00    -0.422 C  
HETATM   26  N   UNL     1     -11.094  12.991  64.051  1.00  0.00    -0.396 NA 
HETATM   27  C   UNL     1     -10.309  12.846  65.298  1.00  0.00    -0.300 C  
HETATM   28  C   UNL     1     -11.756  11.734  63.704  1.00  0.00    -0.415 C  
HETATM   29  C   UNL     1     -11.143  12.872  66.602  1.00  0.00    -0.284 C  
ENDBRANCH  22  23
ENDBRANCH  21  22
ENDBRANCH  20  21
ENDBRANCH  19  20
ENDBRANCH   4   6
ENDBRANCH   3   4
ENDBRANCH   2   3
TORSDOF 7
ENDMDL
MODEL       98
REMARK 921   NORMALIZED FREE ENERGY PREDICTED BY IDOCK:   -4.85 KCAL/MOL
REMARK 922        TOTAL FREE ENERGY PREDICTED BY IDOCK:   -7.79 KCAL/MOL
REMARK 923 INTER-LIGAND FREE ENERGY PREDICTED BY IDOCK:   -6.92 KCAL/MOL
REMARK 924 INTRA-LIGAND FREE ENERGY PREDICTED BY IDOCK:   -0.88 KCAL/MOL
REMARK 927      BINDING AFFINITY PREDICTED BY RF-SCORE:    0.00 PKD
ROOT
HETATM    1  C   UNL     1      -5.291   8.188  63.943  1.00  0.00    -0.041 C  
HETATM    2  C   UNL     1      -6.564   8.797  63.375  1.00  0.00    -0.089 C  
ENDROOT
BRANCH   2   3
HETATM    3  C   UNL     1      -7.154   9.818  64.345  1.00  0.00    -0.129 C  
BRANCH   3   4
HETATM    4  C   UNL     1      -8.633   9.597  64.612  1.00  0.00    -0.183 C  
HETATM    5  O   UNL     1      -9.513   9.886  63.803  1.00  0.00    -0.268 OA 
BRANCH   4   6
HETATM    6  C   UNL     1      -9.013   8.955  65.907  1.00  0.00    -0.244 A  
HETATM    7  C   UNL     1      -9.852   9.655  66.792  1.00  0.00    -0.270 A  
HETATM    8  C   UNL     1     -10.305   9.113  68.022  1.00  0.00    -0.222 A  
HETATM    9  C   UNL     1      -9.838   7.821  68.327  1.00  0.00    -0.167 A  
HETATM   10  S   UNL     1     -10.263   6.926  69.793  1.00  0.00    -0.202 SA 
HETATM   11  C   UNL     1      -8.982   7.126  67.449  1.00  0.00    -0.122 A  
HETATM   12  C   UNL     1     -11.307   8.069  70.654  1.00  0.00    -0.252 A  
HETATM   13  C   UNL     1      -8.572   7.684  66.245  1.00  0.00    -0.153 A  
HETATM   14  C   UNL     1     -11.783   7.599  71.897  1.00  0.00    -0.328 A  
HETATM   15  C   UNL     1     -12.612   8.374  72.690  1.00  0.00    -0.224 A  
HETATM   16  C   UNL     1     -12.975   9.632  72.248  1.00  0.00    -0.440 A  
HETATM   17  C   UNL     1     -12.503  10.104  71.012  1.00  0.00    -0.474 A  
HETATM   18  C   UNL     1     -11.657   9.348  70.165  1.00  0.00    -0.078 A  
HETATM   19  N   UNL     1     -11.183   9.824  68.904  1.00  0.00    -0.097 NA 
BRANCH  19  20
HETATM   20  C   UNL     1     -11.656  11.143  68.420  1.00  0.00    -0.306 C  
BRANCH  20  21
HETATM   21  C   UNL     1     -10.707  12.295  68.794  1.00  0.00    -0.247 C  
BRANCH  21  22
HETATM   22  C   UNL     1     -10.122  12.987  67.563  1.00  0.00    -0.218 C  
BRANCH  22  23
HETATM   23  N   UNL     1     -10.611  14.364  67.340  1.00  0.00    -0.268 NA 
HETATM   24  C   UNL     1      -9.919  14.947  66.163  1.00  0.00    -0.303 C  
HETATM   25  C   UNL     1     -10.312  14.287  64.816  1.00  0.00    -0.343 C  
HETATM   26  N   UNL     1     -11.764  14.244  64.546  1.00  0.00    -0.416 NA 
HETATM   27  C   UNL     1     -12.504  13.783  65.743  1.00  0.00    -0.485 C  
HETATM   28  C   UNL     1     -12.246  15.554  64.110  1.00  0.00    -0.004 C  
HETATM   29  C   UNL     1     -12.064  14.439  67.075  1.00  0.00    -0.342 C  
ENDBRANCH  22  23
ENDBRANCH  21  22
ENDBRANCH  20  21
ENDBRANCH  19  20
ENDBRANCH   4   6
ENDBRANCH   3   4
ENDBRANCH   2   3
TORSDOF 7
ENDMDL
MODEL       99
REMARK 921   NORMALIZED FREE ENERGY PREDICTED BY IDOCK:   -4.85 KCAL/MOL
REMARK 922        TOTAL FREE ENERGY PREDICTED BY IDOCK:   -7.79 KCAL/MOL
REMARK 923 INTER-LIGAND FREE ENERGY PREDICTED BY IDOCK:   -6.80 KCAL/MOL
REMARK 924 INTRA-LIGAND FREE ENERGY PREDICTED BY IDOCK:   -0.99 KCAL/MOL
REMARK 927      BINDING AFFINITY PREDICTED BY RF-SCORE:    0.00 PKD
ROOT
HETATM    1  C   UNL     1      -5.664  12.028  68.134  1.00  0.00    -0.050 C  
HETATM    2  C   UNL     1      -5.652  11.816  66.627  1.00  0.00    -0.059 C  
ENDROOT
BRANCH   2   3
HETATM    3  C   UNL     1      -5.455  10.340  66.291  1.00  0.00    -0.056 C  
BRANCH   3   4
HETATM    4  C   UNL     1      -6.707   9.685  65.734  1.00  0.00    -0.089 C  
HETATM    5  O   UNL     1      -7.066   9.805  64.564  1.00  0.00    -0.116 OA 
BRANCH   4   6
HETATM    6  C   UNL     1      -7.502   8.818  66.657  1.00  0.00    -0.085 A  
HETATM    7  C   UNL     1      -8.421   9.422  67.532  1.00  0.00    -0.122 A  
HETATM    8  C   UNL     1      -9.253   8.683  68.412  1.00  0.00    -0.138 A  
HETATM    9  C   UNL     1      -9.086   7.286  68.379  1.00  0.00    -0.135 A  
HETATM   10  S   UNL     1     -10.007   6.147  69.371  1.00  0.00    -0.176 SA 
HETATM   11  C   UNL     1      -8.152   6.682  67.515  1.00  0.00    -0.118 A  
HETATM   12  C   UNL     1     -11.047   7.219  70.324  1.00  0.00    -0.266 A  
HETATM   13  C   UNL     1      -7.365   7.438  66.656  1.00  0.00    -0.084 A  
HETATM   14  C   UNL     1     -11.893   6.549  71.235  1.00  0.00    -0.385 A  
HETATM   15  C   UNL     1     -12.768   7.245  72.050  1.00  0.00    -0.231 A  
HETATM   16  C   UNL     1     -12.806   8.625  71.966  1.00  0.00    -0.425 A  
HETATM   17  C   UNL     1     -11.965   9.295  71.063  1.00  0.00    -0.369 A  
HETATM   18  C   UNL     1     -11.057   8.627  70.206  1.00  0.00    -0.217 A  
HETATM   19  N   UNL     1     -10.207   9.308  69.281  1.00  0.00    -0.199 NA 
BRANCH  19  20
HETATM   20  C   UNL     1     -10.330  10.779  69.155  1.00  0.00    -0.217 C  
BRANCH  20  21
HETATM   21  C   UNL     1     -11.597  11.214  68.400  1.00  0.00    -0.376 C  
BRANCH  21  22
HETATM   22  C   UNL     1     -11.276  11.850  67.047  1.00  0.00    -0.323 C  
BRANCH  22  23
HETATM   23  N   UNL     1     -12.325  12.752  66.527  1.00  0.00    -0.427 NA 
HETATM   24  C   UNL     1     -12.007  14.150  66.913  1.00  0.00    -0.449 C  
HETATM   25  C   UNL     1     -10.759  14.728  66.197  1.00  0.00    -0.314 C  
HETATM   26  N   UNL     1     -10.788  14.632  64.723  1.00  0.00    -0.401 NA 
HETATM   27  C   UNL     1     -11.223  13.283  64.297  1.00  0.00    -0.387 C  
HETATM   28  C   UNL     1     -11.660  15.662  64.157  1.00  0.00    -0.076 C  
HETATM   29  C   UNL     1     -12.452  12.723  65.054  1.00  0.00    -0.506 C  
ENDBRANCH  22  23
ENDBRANCH  21  22
ENDBRANCH  20  21
ENDBRANCH  19  20
ENDBRANCH   4   6
ENDBRANCH   3   4
ENDBRANCH   2   3
TORSDOF 7
ENDMDL
MODEL      100
REMARK 921   NORMALIZED FREE ENERGY PREDICTED BY IDOCK:   -4.82 KCAL/MOL
REMARK 922        TOTAL FREE ENERGY PREDICTED BY IDOCK:   -7.75 KCAL/MOL
REMARK 923 INTER-LIGAND FREE ENERGY PREDICTED BY IDOCK:   -7.24 KCAL/MOL
REMARK 924 INTRA-LIGAND FREE ENERGY PREDICTED BY IDOCK:   -0.51 KCAL/MOL
REMARK 927      BINDING AFFINITY PREDICTED BY RF-SCORE:    0.00 PKD
ROOT
HETATM    1  C   UNL     1      -6.116  14.343  70.234  1.00  0.00    -0.172 C  
HETATM    2  C   UNL     1      -5.636  13.137  71.027  1.00  0.00    -0.175 C  
ENDROOT
BRANCH   2   3
HETATM    3  C   UNL     1      -5.396  11.945  70.103  1.00  0.00    -0.102 C  
BRANCH   3   4
HETATM    4  C   UNL     1      -6.489  10.895  70.191  1.00  0.00    -0.145 C  
HETATM    5  O   UNL     1      -6.686  10.209  71.193  1.00  0.00    -0.335 OA 
BRANCH   4   6
HETATM    6  C   UNL     1      -7.390  10.733  69.008  1.00  0.00    -0.109 A  
HETATM    7  C   UNL     1      -8.020  11.870  68.475  1.00  0.00    -0.137 A  
HETATM    8  C   UNL     1      -8.855  11.827  67.329  1.00  0.00    -0.167 A  
HETATM    9  C   UNL     1      -9.042  10.554  66.759  1.00  0.00    -0.151 A  
HETATM   10  S   UNL     1     -10.029  10.237  65.325  1.00  0.00    -0.298 SA 
HETATM   11  C   UNL     1      -8.425   9.411  67.305  1.00  0.00    -0.125 A  
HETATM   12  C   UNL     1     -10.652  11.846  64.922  1.00  0.00    -0.287 A  
HETATM   13  C   UNL     1      -7.602   9.495  68.420  1.00  0.00    -0.081 A  
HETATM   14  C   UNL     1     -11.505  11.873  63.797  1.00  0.00    -0.542 A  
HETATM   15  C   UNL     1     -12.072  13.055  63.353  1.00  0.00    -0.591 A  
HETATM   16  C   UNL     1     -11.792  14.227  64.032  1.00  0.00    -0.267 A  
HETATM   17  C   UNL     1     -10.945  14.204  65.152  1.00  0.00    -0.361 A  
HETATM   18  C   UNL     1     -10.340  13.021  65.641  1.00  0.00    -0.285 A  
HETATM   19  N   UNL     1      -9.471  12.997  66.776  1.00  0.00    -0.245 NA 
BRANCH  19  20
HETATM   20  C   UNL     1      -9.126  14.280  67.432  1.00  0.00    -0.196 C  
BRANCH  20  21
HETATM   21  C   UNL     1     -10.362  15.118  67.801  1.00  0.00    -0.243 C  
BRANCH  21  22
HETATM   22  C   UNL     1     -10.487  15.333  69.310  1.00  0.00    -0.258 C  
BRANCH  22  23
HETATM   23  N   UNL     1     -11.841  15.711  69.768  1.00  0.00    -0.354 NA 
HETATM   24  C   UNL     1     -12.729  14.522  69.708  1.00  0.00    -0.004 C  
HETATM   25  C   UNL     1     -12.377  13.425  70.746  1.00  0.00    -0.354 C  
HETATM   26  N   UNL     1     -12.298  13.896  72.145  1.00  0.00    -0.054 NA 
HETATM   27  C   UNL     1     -11.521  15.153  72.229  1.00  0.00    -0.320 C  
HETATM   28  C   UNL     1     -13.638  14.076  72.703  1.00  0.00    -0.517 C  
HETATM   29  C   UNL     1     -11.876  16.214  71.158  1.00  0.00    -0.366 C  
ENDBRANCH  22  23
ENDBRANCH  21  22
ENDBRANCH  20  21
ENDBRANCH  19  20
ENDBRANCH   4   6
ENDBRANCH   3   4
ENDBRANCH   2   3
TORSDOF 7
ENDMDL
MODEL      101
REMARK 921   NORMALIZED FREE ENERGY PREDICTED BY IDOCK:   -4.82 KCAL/MOL
REMARK 922        TOTAL FREE ENERGY PREDICTED BY IDOCK:   -7.74 KCAL/MOL
REMARK 923 INTER-LIGAND FREE ENERGY PREDICTED BY IDOCK:   -6.83 KCAL/MOL
REMARK 924 INTRA-LIGAND FREE ENERGY PREDICTED BY IDOCK:   -0.92 KCAL/MOL
REMARK 927      BINDING AFFINITY PREDICTED BY RF-SCORE:    0.00 PKD
ROOT
HETATM    1  C   UNL     1     -13.254  14.138  72.665  1.00  0.00    -0.612 C  
HETATM    2  C   UNL     1     -13.367  14.324  71.159  1.00  0.00    -0.363 C  
ENDROOT
BRANCH   2   3
HETATM    3  C   UNL     1     -12.106  13.826  70.458  1.00  0.00    -0.416 C  
BRANCH   3   4
HETATM    4  C   UNL     1     -11.795  14.590  69.182  1.00  0.00    -0.319 C  
HETATM    5  O   UNL     1     -11.759  15.818  69.124  1.00  0.00    -0.368 OA 
BRANCH   4   6
HETATM    6  C   UNL     1     -11.476  13.791  67.958  1.00  0.00    -0.344 A  
HETATM    7  C   UNL     1     -10.203  13.209  67.841  1.00  0.00    -0.233 A  
HETATM    8  C   UNL     1      -9.822  12.398  66.742  1.00  0.00    -0.222 A  
HETATM    9  C   UNL     1     -10.798  12.226  65.743  1.00  0.00    -0.278 A  
HETATM   10  S   UNL     1     -10.570  11.256  64.280  1.00  0.00    -0.355 SA 
HETATM   11  C   UNL     1     -12.068  12.826  65.851  1.00  0.00    -0.485 A  
HETATM   12  C   UNL     1      -8.904  10.681  64.454  1.00  0.00    -0.173 A  
HETATM   13  C   UNL     1     -12.411  13.602  66.951  1.00  0.00    -0.309 A  
HETATM   14  C   UNL     1      -8.452   9.877  63.384  1.00  0.00    -0.182 A  
HETATM   15  C   UNL     1      -7.173   9.348  63.372  1.00  0.00    -0.102 A  
HETATM   16  C   UNL     1      -6.328   9.618  64.433  1.00  0.00    -0.100 A  
HETATM   17  C   UNL     1      -6.773  10.417  65.498  1.00  0.00    -0.121 A  
HETATM   18  C   UNL     1      -8.072  10.978  65.557  1.00  0.00     0.053 A  
HETATM   19  N   UNL     1      -8.529  11.785  66.645  1.00  0.00    -0.173 NA 
BRANCH  19  20
HETATM   20  C   UNL     1      -7.629  11.988  67.804  1.00  0.00    -0.130 C  
BRANCH  20  21
HETATM   21  C   UNL     1      -7.351  10.690  68.583  1.00  0.00    -0.094 C  
BRANCH  21  22
HETATM   22  C   UNL     1      -8.514  10.303  69.497  1.00  0.00    -0.142 C  
BRANCH  22  23
HETATM   23  N   UNL     1      -9.618   9.590  68.819  1.00  0.00    -0.155 NA 
HETATM   24  C   UNL     1      -9.103   8.324  68.240  1.00  0.00    -0.135 C  
HETATM   25  C   UNL     1      -8.697   7.270  69.302  1.00  0.00    -0.137 C  
HETATM   26  N   UNL     1      -9.745   6.952  70.294  1.00  0.00    -0.172 NA 
HETATM   27  C   UNL     1     -10.371   8.192  70.806  1.00  0.00    -0.196 C  
HETATM   28  C   UNL     1     -10.751   6.063  69.713  1.00  0.00    -0.330 C  
HETATM   29  C   UNL     1     -10.734   9.236  69.722  1.00  0.00    -0.231 C  
ENDBRANCH  22  23
ENDBRANCH  21  22
ENDBRANCH  20  21
ENDBRANCH  19  20
ENDBRANCH   4   6
ENDBRANCH   3   4
ENDBRANCH   2   3
TORSDOF 7
ENDMDL
MODEL      102
REMARK 921   NORMALIZED FREE ENERGY PREDICTED BY IDOCK:   -4.81 KCAL/MOL
REMARK 922        TOTAL FREE ENERGY PREDICTED BY IDOCK:   -7.74 KCAL/MOL
REMARK 923 INTER-LIGAND FREE ENERGY PREDICTED BY IDOCK:   -6.90 KCAL/MOL
REMARK 924 INTRA-LIGAND FREE ENERGY PREDICTED BY IDOCK:   -0.84 KCAL/MOL
REMARK 927      BINDING AFFINITY PREDICTED BY RF-SCORE:    0.00 PKD
ROOT
HETATM    1  C   UNL     1      -5.197  13.015  71.530  1.00  0.00    -0.150 C  
HETATM    2  C   UNL     1      -6.021  14.259  71.232  1.00  0.00    -0.129 C  
ENDROOT
BRANCH   2   3
HETATM    3  C   UNL     1      -5.509  14.958  69.975  1.00  0.00    -0.113 C  
BRANCH   3   4
HETATM    4  C   UNL     1      -6.270  16.232  69.651  1.00  0.00    -0.195 C  
HETATM    5  O   UNL     1      -6.018  17.317  70.172  1.00  0.00    -0.238 OA 
BRANCH   4   6
HETATM    6  C   UNL     1      -7.344  16.151  68.614  1.00  0.00    -0.175 A  
HETATM    7  C   UNL     1      -7.706  14.891  68.107  1.00  0.00    -0.117 A  
HETATM    8  C   UNL     1      -8.742  14.708  67.157  1.00  0.00    -0.222 A  
HETATM    9  C   UNL     1      -9.384  15.881  66.720  1.00  0.00    -0.240 A  
HETATM   10  S   UNL     1     -10.709  15.918  65.547  1.00  0.00    -0.351 SA 
HETATM   11  C   UNL     1      -9.009  17.147  67.214  1.00  0.00    -0.228 A  
HETATM   12  C   UNL     1     -10.904  14.207  65.133  1.00  0.00    -0.372 A  
HETATM   13  C   UNL     1      -7.999  17.285  68.157  1.00  0.00    -0.223 A  
HETATM   14  C   UNL     1     -11.912  13.953  64.177  1.00  0.00    -0.464 A  
HETATM   15  C   UNL     1     -12.190  12.666  63.749  1.00  0.00    -0.600 A  
HETATM   16  C   UNL     1     -11.459  11.615  64.274  1.00  0.00    -0.332 A  
HETATM   17  C   UNL     1     -10.456  11.864  65.223  1.00  0.00    -0.317 A  
HETATM   18  C   UNL     1     -10.138  13.161  65.694  1.00  0.00    -0.271 A  
HETATM   19  N   UNL     1      -9.122  13.415  66.667  1.00  0.00    -0.210 NA 
BRANCH  19  20
HETATM   20  C   UNL     1      -8.414  12.262  67.270  1.00  0.00    -0.181 C  
BRANCH  20  21
HETATM   21  C   UNL     1      -9.158  11.665  68.477  1.00  0.00    -0.157 C  
BRANCH  21  22
HETATM   22  C   UNL     1      -9.445  10.173  68.302  1.00  0.00    -0.140 C  
BRANCH  22  23
HETATM   23  N   UNL     1      -8.836   9.304  69.331  1.00  0.00    -0.142 NA 
HETATM   24  C   UNL     1      -9.614   9.415  70.590  1.00  0.00    -0.268 C  
HETATM   25  C   UNL     1     -11.034   8.798  70.504  1.00  0.00    -0.239 C  
HETATM   26  N   UNL     1     -11.075   7.396  70.037  1.00  0.00    -0.248 NA 
HETATM   27  C   UNL     1     -10.208   7.218  68.850  1.00  0.00    -0.193 C  
HETATM   28  C   UNL     1     -10.680   6.484  71.110  1.00  0.00    -0.240 C  
HETATM   29  C   UNL     1      -8.810   7.874  68.957  1.00  0.00    -0.145 C  
ENDBRANCH  22  23
ENDBRANCH  21  22
ENDBRANCH  20  21
ENDBRANCH  19  20
ENDBRANCH   4   6
ENDBRANCH   3   4
ENDBRANCH   2   3
TORSDOF 7
ENDMDL
MODEL      103
REMARK 921   NORMALIZED FREE ENERGY PREDICTED BY IDOCK:   -4.80 KCAL/MOL
REMARK 922        TOTAL FREE ENERGY PREDICTED BY IDOCK:   -7.73 KCAL/MOL
REMARK 923 INTER-LIGAND FREE ENERGY PREDICTED BY IDOCK:   -7.42 KCAL/MOL
REMARK 924 INTRA-LIGAND FREE ENERGY PREDICTED BY IDOCK:   -0.30 KCAL/MOL
REMARK 927      BINDING AFFINITY PREDICTED BY RF-SCORE:    0.00 PKD
ROOT
HETATM    1  C   UNL     1      -6.792   8.014  64.396  1.00  0.00    -0.064 C  
HETATM    2  C   UNL     1      -8.158   8.683  64.340  1.00  0.00    -0.156 C  
ENDROOT
BRANCH   2   3
HETATM    3  C   UNL     1      -8.363   9.593  65.549  1.00  0.00    -0.143 C  
BRANCH   3   4
HETATM    4  C   UNL     1      -9.775  10.145  65.644  1.00  0.00    -0.259 C  
HETATM    5  O   UNL     1     -10.483  10.355  64.661  1.00  0.00    -0.259 OA 
BRANCH   4   6
HETATM    6  C   UNL     1     -10.328  10.395  67.011  1.00  0.00    -0.295 A  
HETATM    7  C   UNL     1     -10.822  11.674  67.320  1.00  0.00    -0.302 A  
HETATM    8  C   UNL     1     -11.408  11.996  68.571  1.00  0.00    -0.272 A  
HETATM    9  C   UNL     1     -11.443  10.953  69.514  1.00  0.00    -0.301 A  
HETATM   10  S   UNL     1     -12.127  11.099  71.140  1.00  0.00    -0.078 SA 
HETATM   11  C   UNL     1     -10.931   9.676  69.212  1.00  0.00    -0.194 A  
HETATM   12  C   UNL     1     -12.648  12.792  71.188  1.00  0.00    -0.271 A  
HETATM   13  C   UNL     1     -10.378   9.393  67.969  1.00  0.00    -0.267 A  
HETATM   14  C   UNL     1     -13.228  13.186  72.414  1.00  0.00    -0.519 A  
HETATM   15  C   UNL     1     -13.688  14.477  72.609  1.00  0.00    -0.543 A  
HETATM   16  C   UNL     1     -13.572  15.391  71.579  1.00  0.00    -0.604 A  
HETATM   17  C   UNL     1     -12.995  15.003  70.359  1.00  0.00    -0.283 A  
HETATM   18  C   UNL     1     -12.514  13.695  70.110  1.00  0.00    -0.239 A  
HETATM   19  N   UNL     1     -11.934  13.297  68.865  1.00  0.00    -0.319 NA 
BRANCH  19  20
HETATM   20  C   UNL     1     -11.899  14.276  67.754  1.00  0.00    -0.379 C  
BRANCH  20  21
HETATM   21  C   UNL     1     -11.282  15.625  68.161  1.00  0.00    -0.345 C  
BRANCH  21  22
HETATM   22  C   UNL     1      -9.770  15.533  68.365  1.00  0.00    -0.203 C  
BRANCH  22  23
HETATM   23  N   UNL     1      -9.004  16.671  67.813  1.00  0.00    -0.209 NA 
HETATM   24  C   UNL     1      -8.303  17.373  68.918  1.00  0.00    -0.160 C  
HETATM   25  C   UNL     1      -7.157  16.545  69.556  1.00  0.00    -0.091 C  
HETATM   26  N   UNL     1      -6.154  16.032  68.599  1.00  0.00    -0.106 NA 
HETATM   27  C   UNL     1      -6.818  15.433  67.420  1.00  0.00    -0.170 C  
HETATM   28  C   UNL     1      -5.237  17.097  68.194  1.00  0.00    -0.120 C  
HETATM   29  C   UNL     1      -7.978  16.270  66.827  1.00  0.00    -0.271 C  
ENDBRANCH  22  23
ENDBRANCH  21  22
ENDBRANCH  20  21
ENDBRANCH  19  20
ENDBRANCH   4   6
ENDBRANCH   3   4
ENDBRANCH   2   3
TORSDOF 7
ENDMDL
MODEL      104
REMARK 921   NORMALIZED FREE ENERGY PREDICTED BY IDOCK:   -4.79 KCAL/MOL
REMARK 922        TOTAL FREE ENERGY PREDICTED BY IDOCK:   -7.71 KCAL/MOL
REMARK 923 INTER-LIGAND FREE ENERGY PREDICTED BY IDOCK:   -6.83 KCAL/MOL
REMARK 924 INTRA-LIGAND FREE ENERGY PREDICTED BY IDOCK:   -0.88 KCAL/MOL
REMARK 927      BINDING AFFINITY PREDICTED BY RF-SCORE:    0.00 PKD
ROOT
HETATM    1  C   UNL     1     -12.076  13.549  63.679  1.00  0.00    -0.459 C  
HETATM    2  C   UNL     1     -11.828  12.060  63.494  1.00  0.00    -0.587 C  
ENDROOT
BRANCH   2   3
HETATM    3  C   UNL     1     -10.880  11.533  64.570  1.00  0.00    -0.390 C  
BRANCH   3   4
HETATM    4  C   UNL     1      -9.994  10.401  64.078  1.00  0.00    -0.235 C  
HETATM    5  O   UNL     1      -9.701  10.241  62.895  1.00  0.00    -0.298 OA 
BRANCH   4   6
HETATM    6  C   UNL     1      -9.425   9.474  65.104  1.00  0.00    -0.305 A  
HETATM    7  C   UNL     1      -9.934   9.515  66.413  1.00  0.00    -0.339 A  
HETATM    8  C   UNL     1      -9.492   8.645  67.443  1.00  0.00    -0.150 A  
HETATM    9  C   UNL     1      -8.476   7.740  67.083  1.00  0.00    -0.124 A  
HETATM   10  S   UNL     1      -7.762   6.551  68.181  1.00  0.00    -0.106 SA 
HETATM   11  C   UNL     1      -7.952   7.713  65.775  1.00  0.00    -0.116 A  
HETATM   12  C   UNL     1      -8.617   6.868  69.700  1.00  0.00    -0.134 A  
HETATM   13  C   UNL     1      -8.422   8.570  64.788  1.00  0.00    -0.146 A  
HETATM   14  C   UNL     1      -8.214   6.046  70.776  1.00  0.00    -0.125 A  
HETATM   15  C   UNL     1      -8.788   6.168  72.029  1.00  0.00    -0.139 A  
HETATM   16  C   UNL     1      -9.775   7.117  72.222  1.00  0.00    -0.173 A  
HETATM   17  C   UNL     1     -10.177   7.937  71.156  1.00  0.00    -0.221 A  
HETATM   18  C   UNL     1      -9.623   7.847  69.857  1.00  0.00    -0.168 A  
HETATM   19  N   UNL     1     -10.038   8.676  68.768  1.00  0.00    -0.191 NA 
BRANCH  19  20
HETATM   20  C   UNL     1     -11.153   9.626  68.986  1.00  0.00    -0.070 C  
BRANCH  20  21
HETATM   21  C   UNL     1     -10.677  11.019  69.433  1.00  0.00    -0.247 C  
BRANCH  21  22
HETATM   22  C   UNL     1     -11.226  12.133  68.541  1.00  0.00    -0.260 C  
BRANCH  22  23
HETATM   23  N   UNL     1     -10.872  13.501  68.976  1.00  0.00    -0.227 NA 
HETATM   24  C   UNL     1      -9.568  13.884  68.376  1.00  0.00    -0.215 C  
HETATM   25  C   UNL     1      -9.621  14.082  66.839  1.00  0.00    -0.271 C  
HETATM   26  N   UNL     1     -10.661  15.022  66.369  1.00  0.00    -0.315 NA 
HETATM   27  C   UNL     1     -11.952  14.749  67.041  1.00  0.00    -0.203 C  
HETATM   28  C   UNL     1     -10.242  16.406  66.591  1.00  0.00    -0.294 C  
HETATM   29  C   UNL     1     -11.858  14.525  68.570  1.00  0.00    -0.320 C  
ENDBRANCH  22  23
ENDBRANCH  21  22
ENDBRANCH  20  21
ENDBRANCH  19  20
ENDBRANCH   4   6
ENDBRANCH   3   4
ENDBRANCH   2   3
TORSDOF 7
ENDMDL
MODEL      105
REMARK 921   NORMALIZED FREE ENERGY PREDICTED BY IDOCK:   -4.79 KCAL/MOL
REMARK 922        TOTAL FREE ENERGY PREDICTED BY IDOCK:   -7.70 KCAL/MOL
REMARK 923 INTER-LIGAND FREE ENERGY PREDICTED BY IDOCK:   -6.65 KCAL/MOL
REMARK 924 INTRA-LIGAND FREE ENERGY PREDICTED BY IDOCK:   -1.05 KCAL/MOL
REMARK 927      BINDING AFFINITY PREDICTED BY RF-SCORE:    0.00 PKD
ROOT
HETATM    1  C   UNL     1      -5.430   8.332  64.570  1.00  0.00    -0.040 C  
HETATM    2  C   UNL     1      -6.318   9.134  63.631  1.00  0.00    -0.089 C  
ENDROOT
BRANCH   2   3
HETATM    3  C   UNL     1      -7.192  10.110  64.415  1.00  0.00    -0.115 C  
BRANCH   3   4
HETATM    4  C   UNL     1      -8.649   9.687  64.475  1.00  0.00    -0.188 C  
HETATM    5  O   UNL     1      -9.486  10.034  63.643  1.00  0.00    -0.282 OA 
BRANCH   4   6
HETATM    6  C   UNL     1      -9.057   8.768  65.581  1.00  0.00    -0.247 A  
HETATM    7  C   UNL     1      -9.421   9.318  66.822  1.00  0.00    -0.228 A  
HETATM    8  C   UNL     1      -9.866   8.533  67.917  1.00  0.00    -0.170 A  
HETATM    9  C   UNL     1      -9.898   7.143  67.697  1.00  0.00    -0.147 A  
HETATM   10  S   UNL     1     -10.420   5.954  68.899  1.00  0.00    -0.279 SA 
HETATM   11  C   UNL     1      -9.515   6.590  66.459  1.00  0.00    -0.190 A  
HETATM   12  C   UNL     1     -10.802   6.966  70.302  1.00  0.00    -0.257 A  
HETATM   13  C   UNL     1      -9.100   7.393  65.405  1.00  0.00     0.257 A  
HETATM   14  C   UNL     1     -11.238   6.246  71.436  1.00  0.00    -0.349 A  
HETATM   15  C   UNL     1     -11.577   6.892  72.612  1.00  0.00    -0.181 A  
HETATM   16  C   UNL     1     -11.483   8.270  72.668  1.00  0.00    -0.423 A  
HETATM   17  C   UNL     1     -11.049   8.990  71.543  1.00  0.00    -0.419 A  
HETATM   18  C   UNL     1     -10.695   8.374  70.318  1.00  0.00    -0.234 A  
HETATM   19  N   UNL     1     -10.261   9.107  69.170  1.00  0.00    -0.201 NA 
BRANCH  19  20
HETATM   20  C   UNL     1     -10.250  10.587  69.235  1.00  0.00    -0.225 C  
BRANCH  20  21
HETATM   21  C   UNL     1     -11.632  11.210  68.973  1.00  0.00    -0.392 C  
BRANCH  21  22
HETATM   22  C   UNL     1     -11.828  12.525  69.728  1.00  0.00    -0.310 C  
BRANCH  22  23
HETATM   23  N   UNL     1     -12.132  13.689  68.869  1.00  0.00    -0.342 NA 
HETATM   24  C   UNL     1     -12.195  14.913  69.707  1.00  0.00    -0.287 C  
HETATM   25  C   UNL     1     -10.824  15.343  70.289  1.00  0.00    -0.311 C  
HETATM   26  N   UNL     1      -9.745  15.499  69.290  1.00  0.00    -0.254 NA 
HETATM   27  C   UNL     1      -9.730  14.351  68.356  1.00  0.00    -0.226 C  
HETATM   28  C   UNL     1      -9.896  16.759  68.562  1.00  0.00    -0.257 C  
HETATM   29  C   UNL     1     -11.119  13.928  67.819  1.00  0.00    -0.262 C  
ENDBRANCH  22  23
ENDBRANCH  21  22
ENDBRANCH  20  21
ENDBRANCH  19  20
ENDBRANCH   4   6
ENDBRANCH   3   4
ENDBRANCH   2   3
TORSDOF 7
ENDMDL
MODEL      106
REMARK 921   NORMALIZED FREE ENERGY PREDICTED BY IDOCK:   -4.76 KCAL/MOL
REMARK 922        TOTAL FREE ENERGY PREDICTED BY IDOCK:   -7.66 KCAL/MOL
REMARK 923 INTER-LIGAND FREE ENERGY PREDICTED BY IDOCK:   -6.76 KCAL/MOL
REMARK 924 INTRA-LIGAND FREE ENERGY PREDICTED BY IDOCK:   -0.90 KCAL/MOL
REMARK 927      BINDING AFFINITY PREDICTED BY RF-SCORE:    0.00 PKD
ROOT
HETATM    1  C   UNL     1      -7.666  16.817  67.654  1.00  0.00    -0.183 C  
HETATM    2  C   UNL     1      -7.447  15.390  67.173  1.00  0.00    -0.224 C  
ENDROOT
BRANCH   2   3
HETATM    3  C   UNL     1      -7.284  14.440  68.357  1.00  0.00    -0.114 C  
BRANCH   3   4
HETATM    4  C   UNL     1      -6.532  13.170  68.000  1.00  0.00    -0.126 C  
HETATM    5  O   UNL     1      -5.707  13.109  67.091  1.00  0.00    -0.341 OA 
BRANCH   4   6
HETATM    6  C   UNL     1      -6.789  11.957  68.836  1.00  0.00    -0.103 A  
HETATM    7  C   UNL     1      -7.900  11.149  68.539  1.00  0.00    -0.136 A  
HETATM    8  C   UNL     1      -8.200   9.956  69.243  1.00  0.00    -0.138 A  
HETATM    9  C   UNL     1      -7.323   9.631  70.295  1.00  0.00    -0.149 A  
HETATM   10  S   UNL     1      -7.477   8.195  71.317  1.00  0.00    -0.081 SA 
HETATM   11  C   UNL     1      -6.220  10.451  70.606  1.00  0.00    -0.083 A  
HETATM   12  C   UNL     1      -8.939   7.423  70.679  1.00  0.00    -0.155 A  
HETATM   13  C   UNL     1      -5.949  11.605  69.882  1.00  0.00    -0.137 A  
HETATM   14  C   UNL     1      -9.306   6.234  71.347  1.00  0.00    -0.160 A  
HETATM   15  C   UNL     1     -10.424   5.511  70.967  1.00  0.00    -0.314 A  
HETATM   16  C   UNL     1     -11.190   5.971  69.911  1.00  0.00    -0.438 A  
HETATM   17  C   UNL     1     -10.829   7.154  69.246  1.00  0.00    -0.204 A  
HETATM   18  C   UNL     1      -9.694   7.925  69.596  1.00  0.00    -0.173 A  
HETATM   19  N   UNL     1      -9.321   9.124  68.914  1.00  0.00    -0.145 NA 
BRANCH  19  20
HETATM   20  C   UNL     1     -10.114   9.546  67.736  1.00  0.00    -0.198 C  
BRANCH  20  21
HETATM   21  C   UNL     1     -11.243  10.529  68.092  1.00  0.00    -0.357 C  
BRANCH  21  22
HETATM   22  C   UNL     1     -11.523  11.524  66.966  1.00  0.00    -0.214 C  
BRANCH  22  23
HETATM   23  N   UNL     1     -10.989  12.882  67.198  1.00  0.00    -0.256 NA 
HETATM   24  C   UNL     1      -9.963  13.189  66.170  1.00  0.00    -0.291 C  
HETATM   25  C   UNL     1     -10.539  13.353  64.740  1.00  0.00    -0.405 C  
HETATM   26  N   UNL     1     -11.642  14.331  64.624  1.00  0.00    -0.397 NA 
HETATM   27  C   UNL     1     -12.628  14.135  65.710  1.00  0.00    -0.447 C  
HETATM   28  C   UNL     1     -11.122  15.697  64.633  1.00  0.00    -0.373 C  
HETATM   29  C   UNL     1     -12.017  13.942  67.120  1.00  0.00    -0.420 C  
ENDBRANCH  22  23
ENDBRANCH  21  22
ENDBRANCH  20  21
ENDBRANCH  19  20
ENDBRANCH   4   6
ENDBRANCH   3   4
ENDBRANCH   2   3
TORSDOF 7
ENDMDL
MODEL      107
REMARK 921   NORMALIZED FREE ENERGY PREDICTED BY IDOCK:   -4.75 KCAL/MOL
REMARK 922        TOTAL FREE ENERGY PREDICTED BY IDOCK:   -7.66 KCAL/MOL
REMARK 923 INTER-LIGAND FREE ENERGY PREDICTED BY IDOCK:   -6.78 KCAL/MOL
REMARK 924 INTRA-LIGAND FREE ENERGY PREDICTED BY IDOCK:   -0.87 KCAL/MOL
REMARK 927      BINDING AFFINITY PREDICTED BY RF-SCORE:    0.00 PKD
ROOT
HETATM    1  C   UNL     1      -9.770  16.435  68.925  1.00  0.00    -0.257 C  
HETATM    2  C   UNL     1     -10.412  15.752  70.123  1.00  0.00    -0.288 C  
ENDROOT
BRANCH   2   3
HETATM    3  C   UNL     1     -11.843  15.330  69.802  1.00  0.00    -0.357 C  
BRANCH   3   4
HETATM    4  C   UNL     1     -11.969  13.851  69.479  1.00  0.00    -0.343 C  
HETATM    5  O   UNL     1     -12.318  13.009  70.305  1.00  0.00    -0.310 OA 
BRANCH   4   6
HETATM    6  C   UNL     1     -11.694  13.424  68.073  1.00  0.00    -0.391 A  
HETATM    7  C   UNL     1     -10.834  12.335  67.849  1.00  0.00    -0.252 A  
HETATM    8  C   UNL     1     -10.548  11.827  66.557  1.00  0.00    -0.253 A  
HETATM    9  C   UNL     1     -11.162  12.503  65.486  1.00  0.00    -0.314 A  
HETATM   10  S   UNL     1     -10.970  12.061  63.783  1.00  0.00    -0.466 SA 
HETATM   11  C   UNL     1     -12.008  13.608  65.708  1.00  0.00    -0.425 A  
HETATM   12  C   UNL     1      -9.859  10.683  63.866  1.00  0.00    -0.338 A  
HETATM   13  C   UNL     1     -12.278  14.067  66.991  1.00  0.00    -0.387 A  
HETATM   14  C   UNL     1      -9.518  10.137  62.609  1.00  0.00    -0.277 A  
HETATM   15  C   UNL     1      -8.661   9.055  62.504  1.00  0.00    -0.193 A  
HETATM   16  C   UNL     1      -8.133   8.506  63.659  1.00  0.00    -0.154 A  
HETATM   17  C   UNL     1      -8.469   9.047  64.910  1.00  0.00    -0.195 A  
HETATM   18  C   UNL     1      -9.343  10.150  65.068  1.00  0.00    -0.243 A  
HETATM   19  N   UNL     1      -9.692  10.697  66.342  1.00  0.00    -0.190 NA 
BRANCH  19  20
HETATM   20  C   UNL     1      -9.175  10.036  67.563  1.00  0.00    -0.137 C  
BRANCH  20  21
HETATM   21  C   UNL     1     -10.158   9.009  68.151  1.00  0.00    -0.229 C  
BRANCH  21  22
HETATM   22  C   UNL     1      -9.442   7.886  68.903  1.00  0.00    -0.150 C  
BRANCH  22  23
HETATM   23  N   UNL     1      -8.001   8.122  69.133  1.00  0.00    -0.111 NA 
HETATM   24  C   UNL     1      -7.819   8.822  70.430  1.00  0.00    -0.098 C  
HETATM   25  C   UNL     1      -8.163   7.950  71.665  1.00  0.00    -0.115 C  
HETATM   26  N   UNL     1      -7.465   6.648  71.720  1.00  0.00    -0.090 NA 
HETATM   27  C   UNL     1      -7.518   5.972  70.404  1.00  0.00    -0.090 C  
HETATM   28  C   UNL     1      -6.080   6.824  72.158  1.00  0.00    -0.038 C  
HETATM   29  C   UNL     1      -7.201   6.879  69.190  1.00  0.00    -0.090 C  
ENDBRANCH  22  23
ENDBRANCH  21  22
ENDBRANCH  20  21
ENDBRANCH  19  20
ENDBRANCH   4   6
ENDBRANCH   3   4
ENDBRANCH   2   3
TORSDOF 7
ENDMDL
MODEL      108
REMARK 921   NORMALIZED FREE ENERGY PREDICTED BY IDOCK:   -4.75 KCAL/MOL
REMARK 922        TOTAL FREE ENERGY PREDICTED BY IDOCK:   -7.65 KCAL/MOL
REMARK 923 INTER-LIGAND FREE ENERGY PREDICTED BY IDOCK:   -6.58 KCAL/MOL
REMARK 924 INTRA-LIGAND FREE ENERGY PREDICTED BY IDOCK:   -1.07 KCAL/MOL
REMARK 927      BINDING AFFINITY PREDICTED BY RF-SCORE:    0.00 PKD
ROOT
HETATM    1  C   UNL     1     -12.155  12.932  63.688  1.00  0.00    -0.611 C  
HETATM    2  C   UNL     1     -11.341  11.656  63.843  1.00  0.00    -0.457 C  
ENDROOT
BRANCH   2   3
HETATM    3  C   UNL     1     -10.411  11.753  65.050  1.00  0.00    -0.325 C  
BRANCH   3   4
HETATM    4  C   UNL     1     -11.129  12.169  66.322  1.00  0.00    -0.310 C  
HETATM    5  O   UNL     1     -11.868  11.416  66.955  1.00  0.00    -0.530 OA 
BRANCH   4   6
HETATM    6  C   UNL     1     -10.878  13.550  66.838  1.00  0.00    -0.286 A  
HETATM    7  C   UNL     1      -9.555  13.952  67.086  1.00  0.00    -0.247 A  
HETATM    8  C   UNL     1      -9.212  15.254  67.532  1.00  0.00    -0.199 A  
HETATM    9  C   UNL     1     -10.293  16.130  67.742  1.00  0.00    -0.283 A  
HETATM   10  S   UNL     1     -10.128  17.805  68.289  1.00  0.00    -0.392 SA 
HETATM   11  C   UNL     1     -11.621  15.722  67.512  1.00  0.00     0.031 A  
HETATM   12  C   UNL     1      -8.376  17.974  68.493  1.00  0.00    -0.304 A  
HETATM   13  C   UNL     1     -11.917  14.442  67.060  1.00  0.00    -0.424 A  
HETATM   14  C   UNL     1      -7.965  19.245  68.951  1.00  0.00    -0.353 A  
HETATM   15  C   UNL     1      -6.628  19.536  69.159  1.00  0.00    -0.362 A  
HETATM   16  C   UNL     1      -5.684  18.556  68.911  1.00  0.00    -0.207 A  
HETATM   17  C   UNL     1      -6.089  17.291  68.457  1.00  0.00    -0.155 A  
HETATM   18  C   UNL     1      -7.443  16.947  68.226  1.00  0.00    -0.192 A  
HETATM   19  N   UNL     1      -7.856  15.662  67.756  1.00  0.00    -0.135 NA 
BRANCH  19  20
HETATM   20  C   UNL     1      -6.816  14.662  67.421  1.00  0.00    -0.055 C  
BRANCH  20  21
HETATM   21  C   UNL     1      -6.420  13.783  68.620  1.00  0.00    -0.093 C  
BRANCH  21  22
HETATM   22  C   UNL     1      -5.912  12.407  68.188  1.00  0.00    -0.062 C  
BRANCH  22  23
HETATM   23  N   UNL     1      -6.948  11.521  67.617  1.00  0.00    -0.084 NA 
HETATM   24  C   UNL     1      -6.334  10.218  67.255  1.00  0.00    -0.066 C  
HETATM   25  C   UNL     1      -5.885   9.376  68.477  1.00  0.00    -0.041 C  
HETATM   26  N   UNL     1      -6.935   9.147  69.492  1.00  0.00    -0.050 NA 
HETATM   27  C   UNL     1      -7.656  10.405  69.790  1.00  0.00    -0.133 C  
HETATM   28  C   UNL     1      -7.864   8.109  69.045  1.00  0.00    -0.108 C  
HETATM   29  C   UNL     1      -8.060  11.236  68.548  1.00  0.00    -0.148 C  
ENDBRANCH  22  23
ENDBRANCH  21  22
ENDBRANCH  20  21
ENDBRANCH  19  20
ENDBRANCH   4   6
ENDBRANCH   3   4
ENDBRANCH   2   3
TORSDOF 7
ENDMDL
MODEL      109
REMARK 921   NORMALIZED FREE ENERGY PREDICTED BY IDOCK:   -4.70 KCAL/MOL
REMARK 922        TOTAL FREE ENERGY PREDICTED BY IDOCK:   -7.58 KCAL/MOL
REMARK 923 INTER-LIGAND FREE ENERGY PREDICTED BY IDOCK:   -6.60 KCAL/MOL
REMARK 924 INTRA-LIGAND FREE ENERGY PREDICTED BY IDOCK:   -0.98 KCAL/MOL
REMARK 927      BINDING AFFINITY PREDICTED BY RF-SCORE:    0.00 PKD
ROOT
HETATM    1  C   UNL     1      -9.151   9.369  64.561  1.00  0.00    -0.205 C  
HETATM    2  C   UNL     1      -7.764   8.763  64.411  1.00  0.00    -0.123 C  
ENDROOT
BRANCH   2   3
HETATM    3  C   UNL     1      -7.044   8.721  65.757  1.00  0.00    -0.080 C  
BRANCH   3   4
HETATM    4  C   UNL     1      -7.147   7.370  66.443  1.00  0.00    -0.074 C  
HETATM    5  O   UNL     1      -6.367   6.443  66.227  1.00  0.00    -0.039 OA 
BRANCH   4   6
HETATM    6  C   UNL     1      -8.227   7.192  67.462  1.00  0.00    -0.117 A  
HETATM    7  C   UNL     1      -8.812   8.333  68.038  1.00  0.00    -0.135 A  
HETATM    8  C   UNL     1      -9.873   8.269  68.977  1.00  0.00    -0.176 A  
HETATM    9  C   UNL     1     -10.299   6.974  69.328  1.00  0.00    -0.200 A  
HETATM   10  S   UNL     1     -11.606   6.628  70.469  1.00  0.00    -0.383 SA 
HETATM   11  C   UNL     1      -9.700   5.830  68.765  1.00  0.00    -0.168 A  
HETATM   12  C   UNL     1     -12.107   8.248  70.983  1.00  0.00    -0.208 A  
HETATM   13  C   UNL     1      -8.673   5.933  67.836  1.00  0.00    -0.104 A  
HETATM   14  C   UNL     1     -13.153   8.258  71.933  1.00  0.00    -0.367 A  
HETATM   15  C   UNL     1     -13.659   9.445  72.433  1.00  0.00    -0.498 A  
HETATM   16  C   UNL     1     -13.123  10.640  71.989  1.00  0.00    -0.501 A  
HETATM   17  C   UNL     1     -12.083  10.634  71.046  1.00  0.00    -0.473 A  
HETATM   18  C   UNL     1     -11.535   9.447  70.503  1.00  0.00    -0.262 A  
HETATM   19  N   UNL     1     -10.481   9.440  69.537  1.00  0.00    -0.210 NA 
BRANCH  19  20
HETATM   20  C   UNL     1      -9.985  10.736  69.020  1.00  0.00    -0.199 C  
BRANCH  20  21
HETATM   21  C   UNL     1     -10.703  11.186  67.736  1.00  0.00    -0.267 C  
BRANCH  21  22
HETATM   22  C   UNL     1      -9.860  12.158  66.911  1.00  0.00    -0.203 C  
BRANCH  22  23
HETATM   23  N   UNL     1     -10.545  13.421  66.560  1.00  0.00    -0.285 NA 
HETATM   24  C   UNL     1     -10.011  13.926  65.269  1.00  0.00    -0.238 C  
HETATM   25  C   UNL     1     -10.394  13.050  64.048  1.00  0.00    -0.249 C  
HETATM   26  N   UNL     1     -11.841  12.788  63.900  1.00  0.00    -0.428 NA 
HETATM   27  C   UNL     1     -12.436  12.399  65.199  1.00  0.00    -0.253 C  
HETATM   28  C   UNL     1     -12.522  13.958  63.346  1.00  0.00     0.251 C  
HETATM   29  C   UNL     1     -12.008  13.276  66.402  1.00  0.00    -0.410 C  
ENDBRANCH  22  23
ENDBRANCH  21  22
ENDBRANCH  20  21
ENDBRANCH  19  20
ENDBRANCH   4   6
ENDBRANCH   3   4
ENDBRANCH   2   3
TORSDOF 7
ENDMDL
MODEL      110
REMARK 921   NORMALIZED FREE ENERGY PREDICTED BY IDOCK:   -4.67 KCAL/MOL
REMARK 922        TOTAL FREE ENERGY PREDICTED BY IDOCK:   -7.54 KCAL/MOL
REMARK 923 INTER-LIGAND FREE ENERGY PREDICTED BY IDOCK:   -6.55 KCAL/MOL
REMARK 924 INTRA-LIGAND FREE ENERGY PREDICTED BY IDOCK:   -0.99 KCAL/MOL
REMARK 927      BINDING AFFINITY PREDICTED BY RF-SCORE:    0.00 PKD
ROOT
HETATM    1  C   UNL     1      -6.042  10.216  65.387  1.00  0.00    -0.103 C  
HETATM    2  C   UNL     1      -6.663   9.827  64.054  1.00  0.00    -0.120 C  
ENDROOT
BRANCH   2   3
HETATM    3  C   UNL     1      -8.018   9.155  64.264  1.00  0.00    -0.139 C  
BRANCH   3   4
HETATM    4  C   UNL     1      -9.139   9.822  63.486  1.00  0.00    -0.228 C  
HETATM    5  O   UNL     1      -9.441   9.507  62.336  1.00  0.00    -0.158 OA 
BRANCH   4   6
HETATM    6  C   UNL     1      -9.933  10.879  64.186  1.00  0.00    -0.403 A  
HETATM    7  C   UNL     1      -9.442  11.410  65.391  1.00  0.00    -0.240 A  
HETATM    8  C   UNL     1     -10.098  12.446  66.104  1.00  0.00    -0.248 A  
HETATM    9  C   UNL     1     -11.304  12.904  65.542  1.00  0.00    -0.307 A  
HETATM   10  S   UNL     1     -12.304  14.190  66.234  1.00  0.00    -0.336 SA 
HETATM   11  C   UNL     1     -11.806  12.359  64.344  1.00  0.00    -0.461 A  
HETATM   12  C   UNL     1     -11.412  14.624  67.702  1.00  0.00    -0.346 A  
HETATM   13  C   UNL     1     -11.127  11.355  63.665  1.00  0.00    -0.411 A  
HETATM   14  C   UNL     1     -12.018  15.642  68.470  1.00  0.00    -0.145 A  
HETATM   15  C   UNL     1     -11.444  16.095  69.645  1.00  0.00    -0.290 A  
HETATM   16  C   UNL     1     -10.253  15.533  70.067  1.00  0.00    -0.286 A  
HETATM   17  C   UNL     1      -9.647  14.520  69.306  1.00  0.00     0.042 A  
HETATM   18  C   UNL     1     -10.194  14.026  68.097  1.00  0.00    -0.243 A  
HETATM   19  N   UNL     1      -9.575  13.000  67.318  1.00  0.00    -0.218 NA 
BRANCH  19  20
HETATM   20  C   UNL     1      -8.259  12.477  67.753  1.00  0.00    -0.166 C  
BRANCH  20  21
HETATM   21  C   UNL     1      -8.362  11.509  68.945  1.00  0.00    -0.005 C  
BRANCH  21  22
HETATM   22  C   UNL     1      -8.749  10.095  68.511  1.00  0.00    -0.123 C  
BRANCH  22  23
HETATM   23  N   UNL     1     -10.200   9.816  68.544  1.00  0.00    -0.179 NA 
HETATM   24  C   UNL     1     -10.424   8.357  68.384  1.00  0.00    -0.164 C  
HETATM   25  C   UNL     1      -9.947   7.515  69.596  1.00  0.00    -0.184 C  
HETATM   26  N   UNL     1     -10.490   7.944  70.902  1.00  0.00    -0.202 NA 
HETATM   27  C   UNL     1     -10.398   9.414  71.048  1.00  0.00    -0.312 C  
HETATM   28  C   UNL     1     -11.873   7.493  71.058  1.00  0.00    -0.293 C  
HETATM   29  C   UNL     1     -10.851  10.223  69.807  1.00  0.00    -0.287 C  
ENDBRANCH  22  23
ENDBRANCH  21  22
ENDBRANCH  20  21
ENDBRANCH  19  20
ENDBRANCH   4   6
ENDBRANCH   3   4
ENDBRANCH   2   3
TORSDOF 7
ENDMDL
MODEL      111
REMARK 921   NORMALIZED FREE ENERGY PREDICTED BY IDOCK:   -4.66 KCAL/MOL
REMARK 922        TOTAL FREE ENERGY PREDICTED BY IDOCK:   -7.52 KCAL/MOL
REMARK 923 INTER-LIGAND FREE ENERGY PREDICTED BY IDOCK:   -6.80 KCAL/MOL
REMARK 924 INTRA-LIGAND FREE ENERGY PREDICTED BY IDOCK:   -0.72 KCAL/MOL
REMARK 927      BINDING AFFINITY PREDICTED BY RF-SCORE:    0.00 PKD
ROOT
HETATM    1  C   UNL     1      -7.468  18.520  67.819  1.00  0.00    -0.240 C  
HETATM    2  C   UNL     1      -7.802  18.067  66.406  1.00  0.00    -0.304 C  
ENDROOT
BRANCH   2   3
HETATM    3  C   UNL     1      -9.031  17.161  66.405  1.00  0.00    -0.291 C  
BRANCH   3   4
HETATM    4  C   UNL     1      -9.114  16.272  67.634  1.00  0.00    -0.194 C  
HETATM    5  O   UNL     1      -9.657  16.620  68.682  1.00  0.00    -0.231 OA 
BRANCH   4   6
HETATM    6  C   UNL     1      -8.544  14.894  67.531  1.00  0.00    -0.195 A  
HETATM    7  C   UNL     1      -9.422  13.800  67.441  1.00  0.00    -0.224 A  
HETATM    8  C   UNL     1      -8.978  12.461  67.294  1.00  0.00    -0.190 A  
HETATM    9  C   UNL     1      -7.582  12.281  67.269  1.00  0.00    -0.152 A  
HETATM   10  S   UNL     1      -6.781  10.713  67.088  1.00  0.00    -0.086 SA 
HETATM   11  C   UNL     1      -6.702  13.375  67.378  1.00  0.00    -0.063 A  
HETATM   12  C   UNL     1      -8.148   9.590  67.000  1.00  0.00    -0.113 A  
HETATM   13  C   UNL     1      -7.174  14.675  67.506  1.00  0.00    -0.216 A  
HETATM   14  C   UNL     1      -7.777   8.233  66.868  1.00  0.00    -0.095 A  
HETATM   15  C   UNL     1      -8.729   7.232  66.783  1.00  0.00    -0.132 A  
HETATM   16  C   UNL     1     -10.067   7.577  66.831  1.00  0.00    -0.336 A  
HETATM   17  C   UNL     1     -10.440   8.924  66.963  1.00  0.00    -0.326 A  
HETATM   18  C   UNL     1      -9.504   9.983  67.050  1.00  0.00    -0.164 A  
HETATM   19  N   UNL     1      -9.882  11.355  67.176  1.00  0.00    -0.189 NA 
BRANCH  19  20
HETATM   20  C   UNL     1     -11.323  11.699  67.141  1.00  0.00    -0.306 C  
BRANCH  20  21
HETATM   21  C   UNL     1     -11.879  12.099  68.519  1.00  0.00    -0.365 C  
BRANCH  21  22
HETATM   22  C   UNL     1     -12.278  10.884  69.357  1.00  0.00    -0.222 C  
BRANCH  22  23
HETATM   23  N   UNL     1     -11.600  10.790  70.667  1.00  0.00    -0.327 NA 
HETATM   24  C   UNL     1     -12.566  10.307  71.686  1.00  0.00    -0.432 C  
HETATM   25  C   UNL     1     -12.999   8.831  71.487  1.00  0.00    -0.319 C  
HETATM   26  N   UNL     1     -11.884   7.865  71.385  1.00  0.00    -0.292 NA 
HETATM   27  C   UNL     1     -10.838   8.372  70.468  1.00  0.00    -0.232 C  
HETATM   28  C   UNL     1     -11.325   7.583  72.707  1.00  0.00    -0.336 C  
HETATM   29  C   UNL     1     -10.453   9.857  70.674  1.00  0.00    -0.231 C  
ENDBRANCH  22  23
ENDBRANCH  21  22
ENDBRANCH  20  21
ENDBRANCH  19  20
ENDBRANCH   4   6
ENDBRANCH   3   4
ENDBRANCH   2   3
TORSDOF 7
ENDMDL
MODEL      112
REMARK 921   NORMALIZED FREE ENERGY PREDICTED BY IDOCK:   -4.65 KCAL/MOL
REMARK 922        TOTAL FREE ENERGY PREDICTED BY IDOCK:   -7.51 KCAL/MOL
REMARK 923 INTER-LIGAND FREE ENERGY PREDICTED BY IDOCK:   -6.86 KCAL/MOL
REMARK 924 INTRA-LIGAND FREE ENERGY PREDICTED BY IDOCK:   -0.64 KCAL/MOL
REMARK 927      BINDING AFFINITY PREDICTED BY RF-SCORE:    0.00 PKD
ROOT
HETATM    1  C   UNL     1      -9.728   4.793  68.055  1.00  0.00    -0.202 C  
HETATM    2  C   UNL     1     -10.276   5.079  69.445  1.00  0.00    -0.268 C  
ENDROOT
BRANCH   2   3
HETATM    3  C   UNL     1     -11.137   6.341  69.437  1.00  0.00    -0.477 C  
BRANCH   3   4
HETATM    4  C   UNL     1     -11.686   6.694  70.809  1.00  0.00    -0.388 C  
HETATM    5  O   UNL     1     -11.834   5.867  71.708  1.00  0.00    -0.204 OA 
BRANCH   4   6
HETATM    6  C   UNL     1     -12.014   8.128  71.074  1.00  0.00    -0.257 A  
HETATM    7  C   UNL     1     -11.466   9.116  70.237  1.00  0.00    -0.174 A  
HETATM    8  C   UNL     1     -11.754  10.497  70.379  1.00  0.00    -0.344 A  
HETATM    9  C   UNL     1     -12.614  10.835  71.441  1.00  0.00    -0.410 A  
HETATM   10  S   UNL     1     -13.130  12.484  71.822  1.00  0.00    -0.249 SA 
HETATM   11  C   UNL     1     -13.148   9.847  72.292  1.00  0.00    -0.419 A  
HETATM   12  C   UNL     1     -12.280  13.446  70.601  1.00  0.00    -0.350 A  
HETATM   13  C   UNL     1     -12.855   8.501  72.111  1.00  0.00    -0.413 A  
HETATM   14  C   UNL     1     -12.510  14.836  70.694  1.00  0.00    -0.407 A  
HETATM   15  C   UNL     1     -11.919  15.723  69.811  1.00  0.00    -0.337 A  
HETATM   16  C   UNL     1     -11.089  15.229  68.822  1.00  0.00    -0.273 A  
HETATM   17  C   UNL     1     -10.857  13.848  68.727  1.00  0.00    -0.282 A  
HETATM   18  C   UNL     1     -11.440  12.901  69.604  1.00  0.00    -0.181 A  
HETATM   19  N   UNL     1     -11.211  11.494  69.503  1.00  0.00    -0.253 NA 
BRANCH  19  20
HETATM   20  C   UNL     1     -10.383  10.989  68.384  1.00  0.00    -0.183 C  
BRANCH  20  21
HETATM   21  C   UNL     1      -8.905  11.401  68.497  1.00  0.00    -0.151 C  
BRANCH  21  22
HETATM   22  C   UNL     1      -7.957  10.218  68.297  1.00  0.00    -0.106 C  
BRANCH  22  23
HETATM   23  N   UNL     1      -8.427   8.946  68.886  1.00  0.00    -0.129 NA 
HETATM   24  C   UNL     1      -7.670   7.818  68.286  1.00  0.00    -0.119 C  
HETATM   25  C   UNL     1      -6.174   7.782  68.694  1.00  0.00    -0.036 C  
HETATM   26  N   UNL     1      -5.927   7.805  70.151  1.00  0.00    -0.023 NA 
HETATM   27  C   UNL     1      -6.760   8.840  70.804  1.00  0.00    -0.053 C  
HETATM   28  C   UNL     1      -6.178   6.489  70.737  1.00  0.00    -0.035 C  
HETATM   29  C   UNL     1      -8.240   8.869  70.351  1.00  0.00    -0.138 C  
ENDBRANCH  22  23
ENDBRANCH  21  22
ENDBRANCH  20  21
ENDBRANCH  19  20
ENDBRANCH   4   6
ENDBRANCH   3   4
ENDBRANCH   2   3
TORSDOF 7
ENDMDL
MODEL      113
REMARK 921   NORMALIZED FREE ENERGY PREDICTED BY IDOCK:   -4.64 KCAL/MOL
REMARK 922        TOTAL FREE ENERGY PREDICTED BY IDOCK:   -7.50 KCAL/MOL
REMARK 923 INTER-LIGAND FREE ENERGY PREDICTED BY IDOCK:   -7.13 KCAL/MOL
REMARK 924 INTRA-LIGAND FREE ENERGY PREDICTED BY IDOCK:   -0.37 KCAL/MOL
REMARK 927      BINDING AFFINITY PREDICTED BY RF-SCORE:    0.00 PKD
ROOT
HETATM    1  C   UNL     1     -10.746   5.209  66.249  1.00  0.00    -0.272 C  
HETATM    2  C   UNL     1      -9.247   5.340  66.472  1.00  0.00    -0.139 C  
ENDROOT
BRANCH   2   3
HETATM    3  C   UNL     1      -8.956   6.013  67.811  1.00  0.00    -0.111 C  
BRANCH   3   4
HETATM    4  C   UNL     1      -9.806   5.468  68.946  1.00  0.00    -0.157 C  
HETATM    5  O   UNL     1      -9.860   4.273  69.233  1.00  0.00    -0.187 OA 
BRANCH   4   6
HETATM    6  C   UNL     1     -10.570   6.453  69.772  1.00  0.00    -0.309 A  
HETATM    7  C   UNL     1     -10.524   7.813  69.422  1.00  0.00    -0.221 A  
HETATM    8  C   UNL     1     -11.250   8.816  70.114  1.00  0.00    -0.152 A  
HETATM    9  C   UNL     1     -12.014   8.370  71.209  1.00  0.00    -0.288 A  
HETATM   10  S   UNL     1     -13.010   9.420  72.226  1.00  0.00    -0.370 SA 
HETATM   11  C   UNL     1     -12.045   7.009  71.572  1.00  0.00    -0.392 A  
HETATM   12  C   UNL     1     -12.730  11.020  71.519  1.00  0.00    -0.415 A  
HETATM   13  C   UNL     1     -11.332   6.053  70.859  1.00  0.00    -0.299 A  
HETATM   14  C   UNL     1     -13.412  12.071  72.171  1.00  0.00    -0.338 A  
HETATM   15  C   UNL     1     -13.298  13.380  71.737  1.00  0.00    -0.479 A  
HETATM   16  C   UNL     1     -12.498  13.655  70.644  1.00  0.00    -0.417 A  
HETATM   17  C   UNL     1     -11.816  12.614  69.994  1.00  0.00    -0.358 A  
HETATM   18  C   UNL     1     -11.904  11.259  70.398  1.00  0.00    -0.350 A  
HETATM   19  N   UNL     1     -11.218  10.197  69.732  1.00  0.00    -0.259 NA 
BRANCH  19  20
HETATM   20  C   UNL     1     -10.434  10.513  68.515  1.00  0.00    -0.188 C  
BRANCH  20  21
HETATM   21  C   UNL     1      -8.924  10.280  68.696  1.00  0.00    -0.144 C  
BRANCH  21  22
HETATM   22  C   UNL     1      -8.135  11.590  68.727  1.00  0.00    -0.093 C  
BRANCH  22  23
HETATM   23  N   UNL     1      -7.908  12.203  67.401  1.00  0.00    -0.159 NA 
HETATM   24  C   UNL     1      -9.085  13.032  67.036  1.00  0.00    -0.230 C  
HETATM   25  C   UNL     1      -9.250  14.303  67.910  1.00  0.00    -0.194 C  
HETATM   26  N   UNL     1      -8.054  15.169  67.979  1.00  0.00    -0.130 NA 
HETATM   27  C   UNL     1      -6.838  14.360  68.219  1.00  0.00    -0.111 C  
HETATM   28  C   UNL     1      -7.920  15.958  66.754  1.00  0.00    -0.252 C  
HETATM   29  C   UNL     1      -6.721  13.082  67.352  1.00  0.00    -0.115 C  
ENDBRANCH  22  23
ENDBRANCH  21  22
ENDBRANCH  20  21
ENDBRANCH  19  20
ENDBRANCH   4   6
ENDBRANCH   3   4
ENDBRANCH   2   3
TORSDOF 7
ENDMDL
MODEL      114
REMARK 921   NORMALIZED FREE ENERGY PREDICTED BY IDOCK:   -4.64 KCAL/MOL
REMARK 922        TOTAL FREE ENERGY PREDICTED BY IDOCK:   -7.49 KCAL/MOL
REMARK 923 INTER-LIGAND FREE ENERGY PREDICTED BY IDOCK:   -6.70 KCAL/MOL
REMARK 924 INTRA-LIGAND FREE ENERGY PREDICTED BY IDOCK:   -0.79 KCAL/MOL
REMARK 927      BINDING AFFINITY PREDICTED BY RF-SCORE:    0.00 PKD
ROOT
HETATM    1  C   UNL     1      -7.959   2.121  63.818  1.00  0.00    -0.072 C  
HETATM    2  C   UNL     1      -8.398   3.074  62.717  1.00  0.00    -0.074 C  
ENDROOT
BRANCH   2   3
HETATM    3  C   UNL     1      -9.347   4.136  63.268  1.00  0.00    -0.140 C  
BRANCH   3   4
HETATM    4  C   UNL     1      -8.653   5.145  64.167  1.00  0.00    -0.101 C  
HETATM    5  O   UNL     1      -7.829   5.960  63.754  1.00  0.00    -0.103 OA 
BRANCH   4   6
HETATM    6  C   UNL     1      -9.036   5.162  65.612  1.00  0.00    -0.161 A  
HETATM    7  C   UNL     1      -9.158   6.399  66.267  1.00  0.00    -0.167 A  
HETATM    8  C   UNL     1      -9.560   6.521  67.622  1.00  0.00    -0.122 A  
HETATM    9  C   UNL     1      -9.811   5.311  68.295  1.00  0.00    -0.155 A  
HETATM   10  S   UNL     1     -10.331   5.196  69.982  1.00  0.00    -0.225 SA 
HETATM   11  C   UNL     1      -9.671   4.070  67.643  1.00  0.00    -0.164 A  
HETATM   12  C   UNL     1     -10.386   6.894  70.485  1.00  0.00    -0.204 A  
HETATM   13  C   UNL     1      -9.289   3.991  66.310  1.00  0.00    -0.180 A  
HETATM   14  C   UNL     1     -10.765   7.089  71.832  1.00  0.00    -0.244 A  
HETATM   15  C   UNL     1     -10.857   8.358  72.377  1.00  0.00    -0.416 A  
HETATM   16  C   UNL     1     -10.569   9.450  71.580  1.00  0.00    -0.331 A  
HETATM   17  C   UNL     1     -10.190   9.260  70.241  1.00  0.00    -0.270 A  
HETATM   18  C   UNL     1     -10.085   7.984  69.638  1.00  0.00    -0.198 A  
HETATM   19  N   UNL     1      -9.708   7.790  68.273  1.00  0.00    -0.155 NA 
BRANCH  19  20
HETATM   20  C   UNL     1      -9.485   8.983  67.423  1.00  0.00    -0.144 C  
BRANCH  20  21
HETATM   21  C   UNL     1     -10.774   9.491  66.752  1.00  0.00    -0.136 C  
BRANCH  21  22
HETATM   22  C   UNL     1     -11.114  10.924  67.162  1.00  0.00    -0.240 C  
BRANCH  22  23
HETATM   23  N   UNL     1     -10.425  11.969  66.376  1.00  0.00    -0.227 NA 
HETATM   24  C   UNL     1     -10.821  11.852  64.950  1.00  0.00    -0.305 C  
HETATM   25  C   UNL     1     -12.301  12.226  64.679  1.00  0.00    -0.369 C  
HETATM   26  N   UNL     1     -12.708  13.554  65.183  1.00  0.00    -0.682 NA 
HETATM   27  C   UNL     1     -12.222  13.758  66.566  1.00  0.00    -0.430 C  
HETATM   28  C   UNL     1     -12.219  14.612  64.299  1.00  0.00    -0.408 C  
HETATM   29  C   UNL     1     -10.750  13.345  66.809  1.00  0.00    -0.277 C  
ENDBRANCH  22  23
ENDBRANCH  21  22
ENDBRANCH  20  21
ENDBRANCH  19  20
ENDBRANCH   4   6
ENDBRANCH   3   4
ENDBRANCH   2   3
TORSDOF 7
ENDMDL
MODEL      115
REMARK 921   NORMALIZED FREE ENERGY PREDICTED BY IDOCK:   -4.64 KCAL/MOL
REMARK 922        TOTAL FREE ENERGY PREDICTED BY IDOCK:   -7.49 KCAL/MOL
REMARK 923 INTER-LIGAND FREE ENERGY PREDICTED BY IDOCK:   -6.51 KCAL/MOL
REMARK 924 INTRA-LIGAND FREE ENERGY PREDICTED BY IDOCK:   -0.98 KCAL/MOL
REMARK 927      BINDING AFFINITY PREDICTED BY RF-SCORE:    0.00 PKD
ROOT
HETATM    1  C   UNL     1      -6.460  10.263  70.182  1.00  0.00    -0.128 C  
HETATM    2  C   UNL     1      -5.642  11.387  70.801  1.00  0.00    -0.111 C  
ENDROOT
BRANCH   2   3
HETATM    3  C   UNL     1      -5.392  12.497  69.783  1.00  0.00    -0.084 C  
BRANCH   3   4
HETATM    4  C   UNL     1      -6.210  13.748  70.055  1.00  0.00    -0.120 C  
HETATM    5  O   UNL     1      -6.067  14.440  71.061  1.00  0.00    -0.195 OA 
BRANCH   4   6
HETATM    6  C   UNL     1      -7.200  14.167  69.015  1.00  0.00    -0.110 A  
HETATM    7  C   UNL     1      -7.806  13.180  68.219  1.00  0.00    -0.143 A  
HETATM    8  C   UNL     1      -8.789  13.473  67.239  1.00  0.00    -0.224 A  
HETATM    9  C   UNL     1      -9.111  14.834  67.086  1.00  0.00    -0.217 A  
HETATM   10  S   UNL     1     -10.308  15.455  65.940  1.00  0.00    -0.368 SA 
HETATM   11  C   UNL     1      -8.490  15.825  67.872  1.00  0.00    -0.161 A  
HETATM   12  C   UNL     1     -10.864  13.981  65.128  1.00  0.00    -0.369 A  
HETATM   13  C   UNL     1      -7.542  15.498  68.833  1.00  0.00    -0.166 A  
HETATM   14  C   UNL     1     -11.835  14.202  64.126  1.00  0.00    -0.364 A  
HETATM   15  C   UNL     1     -12.371  13.152  63.401  1.00  0.00    -0.443 A  
HETATM   16  C   UNL     1     -11.940  11.865  63.669  1.00  0.00    -0.578 A  
HETATM   17  C   UNL     1     -10.974  11.643  64.663  1.00  0.00    -0.363 A  
HETATM   18  C   UNL     1     -10.399  12.683  65.433  1.00  0.00    -0.291 A  
HETATM   19  N   UNL     1      -9.421  12.456  66.451  1.00  0.00    -0.241 NA 
BRANCH  19  20
HETATM   20  C   UNL     1      -9.041  11.060  66.770  1.00  0.00    -0.162 C  
BRANCH  20  21
HETATM   21  C   UNL     1     -10.060  10.354  67.682  1.00  0.00    -0.223 C  
BRANCH  21  22
HETATM   22  C   UNL     1      -9.448   9.166  68.425  1.00  0.00    -0.142 C  
BRANCH  22  23
HETATM   23  N   UNL     1      -8.810   8.158  67.553  1.00  0.00    -0.134 NA 
HETATM   24  C   UNL     1      -8.333   7.022  68.383  1.00  0.00    -0.124 C  
HETATM   25  C   UNL     1      -9.477   6.177  69.001  1.00  0.00    -0.127 C  
HETATM   26  N   UNL     1     -10.475   5.678  68.031  1.00  0.00    -0.210 NA 
HETATM   27  C   UNL     1     -10.884   6.756  67.103  1.00  0.00    -0.392 C  
HETATM   28  C   UNL     1      -9.947   4.530  67.294  1.00  0.00    -0.139 C  
HETATM   29  C   UNL     1      -9.720   7.601  66.529  1.00  0.00    -0.181 C  
ENDBRANCH  22  23
ENDBRANCH  21  22
ENDBRANCH  20  21
ENDBRANCH  19  20
ENDBRANCH   4   6
ENDBRANCH   3   4
ENDBRANCH   2   3
TORSDOF 7
ENDMDL
MODEL      116
REMARK 921   NORMALIZED FREE ENERGY PREDICTED BY IDOCK:   -4.62 KCAL/MOL
REMARK 922        TOTAL FREE ENERGY PREDICTED BY IDOCK:   -7.46 KCAL/MOL
REMARK 923 INTER-LIGAND FREE ENERGY PREDICTED BY IDOCK:   -6.50 KCAL/MOL
REMARK 924 INTRA-LIGAND FREE ENERGY PREDICTED BY IDOCK:   -0.97 KCAL/MOL
REMARK 927      BINDING AFFINITY PREDICTED BY RF-SCORE:    0.00 PKD
ROOT
HETATM    1  C   UNL     1     -10.785   5.672  67.026  1.00  0.00    -0.332 C  
HETATM    2  C   UNL     1     -10.541   6.827  67.985  1.00  0.00    -0.283 C  
ENDROOT
BRANCH   2   3
HETATM    3  C   UNL     1     -10.535   8.158  67.236  1.00  0.00    -0.379 C  
BRANCH   3   4
HETATM    4  C   UNL     1      -9.163   8.535  66.706  1.00  0.00    -0.172 C  
HETATM    5  O   UNL     1      -8.784   8.267  65.567  1.00  0.00    -0.166 OA 
BRANCH   4   6
HETATM    6  C   UNL     1      -8.260   9.310  67.612  1.00  0.00    -0.115 A  
HETATM    7  C   UNL     1      -8.299  10.714  67.570  1.00  0.00    -0.115 A  
HETATM    8  C   UNL     1      -7.516  11.535  68.421  1.00  0.00    -0.109 A  
HETATM    9  C   UNL     1      -6.662  10.855  69.308  1.00  0.00    -0.086 A  
HETATM   10  S   UNL     1      -5.592  11.650  70.473  1.00  0.00    -0.143 SA 
HETATM   11  C   UNL     1      -6.608   9.447  69.337  1.00  0.00    -0.044 A  
HETATM   12  C   UNL     1      -5.892  13.368  70.160  1.00  0.00    -0.148 A  
HETATM   13  C   UNL     1      -7.403   8.675  68.498  1.00  0.00    -0.085 A  
HETATM   14  C   UNL     1      -5.131  14.245  70.964  1.00  0.00    -0.124 A  
HETATM   15  C   UNL     1      -5.252  15.619  70.843  1.00  0.00    -0.145 A  
HETATM   16  C   UNL     1      -6.136  16.132  69.912  1.00  0.00    -0.172 A  
HETATM   17  C   UNL     1      -6.893  15.263  69.110  1.00  0.00    -0.138 A  
HETATM   18  C   UNL     1      -6.807  13.853  69.200  1.00  0.00    -0.108 A  
HETATM   19  N   UNL     1      -7.583  12.967  68.390  1.00  0.00    -0.128 NA 
BRANCH  19  20
HETATM   20  C   UNL     1      -8.581  13.547  67.461  1.00  0.00    -0.193 C  
BRANCH  20  21
HETATM   21  C   UNL     1      -9.951  13.782  68.121  1.00  0.00    -0.242 C  
BRANCH  21  22
HETATM   22  C   UNL     1     -10.972  14.367  67.145  1.00  0.00    -0.303 C  
BRANCH  22  23
HETATM   23  N   UNL     1     -12.039  13.429  66.735  1.00  0.00    -0.386 NA 
HETATM   24  C   UNL     1     -12.816  14.026  65.620  1.00  0.00    -0.406 C  
HETATM   25  C   UNL     1     -12.019  14.143  64.295  1.00  0.00    -0.435 C  
HETATM   26  N   UNL     1     -11.401  12.884  63.828  1.00  0.00    -0.435 NA 
HETATM   27  C   UNL     1     -10.718  12.194  64.946  1.00  0.00    -0.295 C  
HETATM   28  C   UNL     1     -12.404  12.014  63.216  1.00  0.00    -0.438 C  
HETATM   29  C   UNL     1     -11.528  12.124  66.263  1.00  0.00    -0.374 C  
ENDBRANCH  22  23
ENDBRANCH  21  22
ENDBRANCH  20  21
ENDBRANCH  19  20
ENDBRANCH   4   6
ENDBRANCH   3   4
ENDBRANCH   2   3
TORSDOF 7
ENDMDL
MODEL      117
REMARK 921   NORMALIZED FREE ENERGY PREDICTED BY IDOCK:   -4.61 KCAL/MOL
REMARK 922        TOTAL FREE ENERGY PREDICTED BY IDOCK:   -7.45 KCAL/MOL
REMARK 923 INTER-LIGAND FREE ENERGY PREDICTED BY IDOCK:   -6.52 KCAL/MOL
REMARK 924 INTRA-LIGAND FREE ENERGY PREDICTED BY IDOCK:   -0.94 KCAL/MOL
REMARK 927      BINDING AFFINITY PREDICTED BY RF-SCORE:    0.00 PKD
ROOT
HETATM    1  C   UNL     1      -9.796  18.454  67.091  1.00  0.00    -0.329 C  
HETATM    2  C   UNL     1     -10.065  17.018  66.667  1.00  0.00    -0.308 C  
ENDROOT
BRANCH   2   3
HETATM    3  C   UNL     1     -10.719  16.233  67.801  1.00  0.00    -0.325 C  
BRANCH   3   4
HETATM    4  C   UNL     1      -9.713  15.506  68.677  1.00  0.00    -0.208 C  
HETATM    5  O   UNL     1      -9.400  15.889  69.803  1.00  0.00    -0.202 OA 
BRANCH   4   6
HETATM    6  C   UNL     1      -9.121  14.240  68.145  1.00  0.00    -0.193 A  
HETATM    7  C   UNL     1      -9.881  13.059  68.200  1.00  0.00    -0.228 A  
HETATM    8  C   UNL     1      -9.426  11.821  67.681  1.00  0.00    -0.180 A  
HETATM    9  C   UNL     1      -8.135  11.832  67.121  1.00  0.00    -0.169 A  
HETATM   10  S   UNL     1      -7.345  10.420  66.403  1.00  0.00    -0.126 SA 
HETATM   11  C   UNL     1      -7.365  13.011  67.083  1.00  0.00     0.031 A  
HETATM   12  C   UNL     1      -8.554   9.145  66.631  1.00  0.00    -0.127 A  
HETATM   13  C   UNL     1      -7.851  14.210  67.588  1.00  0.00    -0.190 A  
HETATM   14  C   UNL     1      -8.158   7.878  66.149  1.00  0.00    -0.109 A  
HETATM   15  C   UNL     1      -8.992   6.778  66.251  1.00  0.00    -0.170 A  
HETATM   16  C   UNL     1     -10.234   6.932  66.838  1.00  0.00    -0.310 A  
HETATM   17  C   UNL     1     -10.630   8.190  67.319  1.00  0.00    -0.344 A  
HETATM   18  C   UNL     1      -9.815   9.345  67.235  1.00  0.00    -0.179 A  
HETATM   19  N   UNL     1     -10.221  10.628  67.717  1.00  0.00    -0.173 NA 
BRANCH  19  20
HETATM   20  C   UNL     1     -11.589  10.779  68.266  1.00  0.00    -0.221 C  
BRANCH  20  21
HETATM   21  C   UNL     1     -11.612  10.875  69.801  1.00  0.00    -0.399 C  
BRANCH  21  22
HETATM   22  C   UNL     1     -11.897   9.526  70.461  1.00  0.00    -0.183 C  
BRANCH  22  23
HETATM   23  N   UNL     1     -11.054   9.226  71.638  1.00  0.00    -0.369 NA 
HETATM   24  C   UNL     1     -11.682   8.136  72.428  1.00  0.00    -0.399 C  
HETATM   25  C   UNL     1     -11.669   6.760  71.714  1.00  0.00    -0.312 C  
HETATM   26  N   UNL     1     -10.338   6.312  71.251  1.00  0.00    -0.207 NA 
HETATM   27  C   UNL     1      -9.628   7.414  70.564  1.00  0.00    -0.172 C  
HETATM   28  C   UNL     1      -9.548   5.804  72.372  1.00  0.00    -0.149 C  
HETATM   29  C   UNL     1      -9.688   8.782  71.288  1.00  0.00    -0.265 C  
ENDBRANCH  22  23
ENDBRANCH  21  22
ENDBRANCH  20  21
ENDBRANCH  19  20
ENDBRANCH   4   6
ENDBRANCH   3   4
ENDBRANCH   2   3
TORSDOF 7
ENDMDL
MODEL      118
REMARK 921   NORMALIZED FREE ENERGY PREDICTED BY IDOCK:   -4.56 KCAL/MOL
REMARK 922        TOTAL FREE ENERGY PREDICTED BY IDOCK:   -7.38 KCAL/MOL
REMARK 923 INTER-LIGAND FREE ENERGY PREDICTED BY IDOCK:   -6.52 KCAL/MOL
REMARK 924 INTRA-LIGAND FREE ENERGY PREDICTED BY IDOCK:   -0.86 KCAL/MOL
REMARK 927      BINDING AFFINITY PREDICTED BY RF-SCORE:    0.00 PKD
ROOT
HETATM    1  C   UNL     1     -10.637  16.458  65.912  1.00  0.00    -0.294 C  
HETATM    2  C   UNL     1     -10.604  15.297  64.929  1.00  0.00    -0.379 C  
ENDROOT
BRANCH   2   3
HETATM    3  C   UNL     1     -11.879  14.464  65.035  1.00  0.00    -0.400 C  
BRANCH   3   4
HETATM    4  C   UNL     1     -11.961  13.368  63.987  1.00  0.00    -0.464 C  
HETATM    5  O   UNL     1     -12.713  13.420  63.015  1.00  0.00    -0.631 OA 
BRANCH   4   6
HETATM    6  C   UNL     1     -11.042  12.197  64.137  1.00  0.00    -0.424 A  
HETATM    7  C   UNL     1     -10.857  11.638  65.413  1.00  0.00    -0.336 A  
HETATM    8  C   UNL     1     -10.043  10.501  65.649  1.00  0.00    -0.268 A  
HETATM    9  C   UNL     1      -9.397   9.968  64.518  1.00  0.00    -0.286 A  
HETATM   10  S   UNL     1      -8.337   8.551  64.549  1.00  0.00    -0.084 SA 
HETATM   11  C   UNL     1      -9.567  10.540  63.242  1.00  0.00    -0.373 A  
HETATM   12  C   UNL     1      -8.333   8.110  66.265  1.00  0.00    -0.119 A  
HETATM   13  C   UNL     1     -10.385  11.645  63.047  1.00  0.00    -0.284 A  
HETATM   14  C   UNL     1      -7.528   6.992  66.575  1.00  0.00    -0.081 A  
HETATM   15  C   UNL     1      -7.421   6.520  67.871  1.00  0.00    -0.094 A  
HETATM   16  C   UNL     1      -8.118   7.164  68.877  1.00  0.00    -0.121 A  
HETATM   17  C   UNL     1      -8.919   8.277  68.573  1.00  0.00    -0.137 A  
HETATM   18  C   UNL     1      -9.063   8.794  67.262  1.00  0.00    -0.132 A  
HETATM   19  N   UNL     1      -9.884   9.922  66.951  1.00  0.00    -0.189 NA 
BRANCH  19  20
HETATM   20  C   UNL     1     -10.683  10.538  68.035  1.00  0.00    -0.245 C  
BRANCH  20  21
HETATM   21  C   UNL     1     -10.185  11.941  68.425  1.00  0.00    -0.205 C  
BRANCH  21  22
HETATM   22  C   UNL     1      -8.689  11.959  68.741  1.00  0.00     0.061 C  
BRANCH  22  23
HETATM   23  N   UNL     1      -7.877  12.794  67.830  1.00  0.00    -0.141 NA 
HETATM   24  C   UNL     1      -8.554  14.100  67.628  1.00  0.00    -0.189 C  
HETATM   25  C   UNL     1      -8.571  14.998  68.893  1.00  0.00    -0.189 C  
HETATM   26  N   UNL     1      -7.247  15.232  69.507  1.00  0.00    -0.195 NA 
HETATM   27  C   UNL     1      -6.490  13.964  69.612  1.00  0.00    -0.108 C  
HETATM   28  C   UNL     1      -6.494  16.225  68.742  1.00  0.00    -0.128 C  
HETATM   29  C   UNL     1      -6.520  13.078  68.342  1.00  0.00    -0.084 C  
ENDBRANCH  22  23
ENDBRANCH  21  22
ENDBRANCH  20  21
ENDBRANCH  19  20
ENDBRANCH   4   6
ENDBRANCH   3   4
ENDBRANCH   2   3
TORSDOF 7
ENDMDL
MODEL      119
REMARK 921   NORMALIZED FREE ENERGY PREDICTED BY IDOCK:   -4.54 KCAL/MOL
REMARK 922        TOTAL FREE ENERGY PREDICTED BY IDOCK:   -7.36 KCAL/MOL
REMARK 923 INTER-LIGAND FREE ENERGY PREDICTED BY IDOCK:   -6.44 KCAL/MOL
REMARK 924 INTRA-LIGAND FREE ENERGY PREDICTED BY IDOCK:   -0.92 KCAL/MOL
REMARK 927      BINDING AFFINITY PREDICTED BY RF-SCORE:    0.00 PKD
ROOT
HETATM    1  C   UNL     1      -7.525  15.977  68.798  1.00  0.00    -0.176 C  
HETATM    2  C   UNL     1      -6.850  15.125  69.862  1.00  0.00    -0.154 C  
ENDROOT
BRANCH   2   3
HETATM    3  C   UNL     1      -5.555  14.519  69.327  1.00  0.00    -0.092 C  
BRANCH   3   4
HETATM    4  C   UNL     1      -5.790  13.421  68.304  1.00  0.00    -0.097 C  
HETATM    5  O   UNL     1      -5.446  13.513  67.127  1.00  0.00    -0.289 OA 
BRANCH   4   6
HETATM    6  C   UNL     1      -6.431  12.158  68.782  1.00  0.00    -0.078 A  
HETATM    7  C   UNL     1      -7.306  11.473  67.921  1.00  0.00    -0.094 A  
HETATM    8  C   UNL     1      -7.927  10.245  68.264  1.00  0.00    -0.106 A  
HETATM    9  C   UNL     1      -7.634   9.753  69.550  1.00  0.00    -0.114 A  
HETATM   10  S   UNL     1      -8.275   8.241  70.211  1.00  0.00    -0.125 SA 
HETATM   11  C   UNL     1      -6.772  10.449  70.420  1.00  0.00    -0.105 A  
HETATM   12  C   UNL     1      -9.306   7.653  68.895  1.00  0.00    -0.145 A  
HETATM   13  C   UNL     1      -6.170  11.642  70.042  1.00  0.00    -0.140 A  
HETATM   14  C   UNL     1      -9.969   6.438  69.177  1.00  0.00    -0.173 A  
HETATM   15  C   UNL     1     -10.809   5.845  68.250  1.00  0.00    -0.325 A  
HETATM   16  C   UNL     1     -10.997   6.463  67.027  1.00  0.00    -0.463 A  
HETATM   17  C   UNL     1     -10.341   7.672  66.744  1.00  0.00    -0.343 A  
HETATM   18  C   UNL     1      -9.470   8.314  67.658  1.00  0.00    -0.149 A  
HETATM   19  N   UNL     1      -8.795   9.540  67.368  1.00  0.00    -0.128 NA 
BRANCH  19  20
HETATM   20  C   UNL     1      -8.954  10.135  66.020  1.00  0.00    -0.151 C  
BRANCH  20  21
HETATM   21  C   UNL     1     -10.425  10.372  65.637  1.00  0.00    -0.185 C  
BRANCH  21  22
HETATM   22  C   UNL     1     -10.761  11.859  65.522  1.00  0.00    -0.283 C  
BRANCH  22  23
HETATM   23  N   UNL     1     -11.867  12.309  66.395  1.00  0.00    -0.589 NA 
HETATM   24  C   UNL     1     -11.408  12.311  67.807  1.00  0.00    -0.301 C  
HETATM   25  C   UNL     1     -10.345  13.396  68.117  1.00  0.00    -0.247 C  
HETATM   26  N   UNL     1     -10.731  14.771  67.736  1.00  0.00    -0.264 NA 
HETATM   27  C   UNL     1     -11.310  14.790  66.374  1.00  0.00    -0.339 C  
HETATM   28  C   UNL     1     -11.670  15.330  68.708  1.00  0.00    -0.353 C  
HETATM   29  C   UNL     1     -12.344  13.674  66.087  1.00  0.00    -0.426 C  
ENDBRANCH  22  23
ENDBRANCH  21  22
ENDBRANCH  20  21
ENDBRANCH  19  20
ENDBRANCH   4   6
ENDBRANCH   3   4
ENDBRANCH   2   3
TORSDOF 7
ENDMDL
MODEL      120
REMARK 921   NORMALIZED FREE ENERGY PREDICTED BY IDOCK:   -4.54 KCAL/MOL
REMARK 922        TOTAL FREE ENERGY PREDICTED BY IDOCK:   -7.35 KCAL/MOL
REMARK 923 INTER-LIGAND FREE ENERGY PREDICTED BY IDOCK:   -6.63 KCAL/MOL
REMARK 924 INTRA-LIGAND FREE ENERGY PREDICTED BY IDOCK:   -0.72 KCAL/MOL
REMARK 927      BINDING AFFINITY PREDICTED BY RF-SCORE:    0.00 PKD
ROOT
HETATM    1  C   UNL     1     -10.342   8.423  67.663  1.00  0.00    -0.317 C  
HETATM    2  C   UNL     1      -8.974   7.973  68.155  1.00  0.00    -0.135 C  
ENDROOT
BRANCH   2   3
HETATM    3  C   UNL     1      -7.963   9.113  68.056  1.00  0.00    -0.101 C  
BRANCH   3   4
HETATM    4  C   UNL     1      -8.278  10.269  68.989  1.00  0.00    -0.139 C  
HETATM    5  O   UNL     1      -8.679  10.115  70.142  1.00  0.00    -0.100 OA 
BRANCH   4   6
HETATM    6  C   UNL     1      -8.040  11.655  68.479  1.00  0.00    -0.145 A  
HETATM    7  C   UNL     1      -9.020  12.637  68.698  1.00  0.00     0.047 A  
HETATM    8  C   UNL     1      -8.866  13.988  68.293  1.00  0.00    -0.184 A  
HETATM    9  C   UNL     1      -7.666  14.291  67.624  1.00  0.00    -0.177 A  
HETATM   10  S   UNL     1      -7.234  15.900  67.027  1.00  0.00    -0.146 SA 
HETATM   11  C   UNL     1      -6.691  13.302  67.387  1.00  0.00    -0.086 A  
HETATM   12  C   UNL     1      -8.653  16.867  67.465  1.00  0.00    -0.203 A  
HETATM   13  C   UNL     1      -6.871  11.992  67.813  1.00  0.00    -0.100 A  
HETATM   14  C   UNL     1      -8.574  18.222  67.077  1.00  0.00    -0.259 A  
HETATM   15  C   UNL     1      -9.601  19.109  67.348  1.00  0.00    -0.373 A  
HETATM   16  C   UNL     1     -10.723  18.650  68.012  1.00  0.00    -0.273 A  
HETATM   17  C   UNL     1     -10.806  17.302  68.398  1.00  0.00    -0.273 A  
HETATM   18  C   UNL     1      -9.781  16.359  68.146  1.00  0.00    -0.229 A  
HETATM   19  N   UNL     1      -9.861  14.989  68.547  1.00  0.00    -0.211 NA 
BRANCH  19  20
HETATM   20  C   UNL     1     -11.040  14.546  69.328  1.00  0.00    -0.270 C  
BRANCH  20  21
HETATM   21  C   UNL     1     -12.080  13.799  68.475  1.00  0.00    -0.327 C  
BRANCH  21  22
HETATM   22  C   UNL     1     -11.865  14.017  66.977  1.00  0.00    -0.428 C  
BRANCH  22  23
HETATM   23  N   UNL     1     -12.334  12.907  66.120  1.00  0.00    -0.509 NA 
HETATM   24  C   UNL     1     -12.391  13.366  64.709  1.00  0.00    -0.396 C  
HETATM   25  C   UNL     1     -10.999  13.636  64.083  1.00  0.00    -0.190 C  
HETATM   26  N   UNL     1     -10.044  12.512  64.184  1.00  0.00    -0.320 NA 
HETATM   27  C   UNL     1     -10.049  11.945  65.551  1.00  0.00    -0.245 C  
HETATM   28  C   UNL     1     -10.354  11.482  63.193  1.00  0.00    -0.324 C  
HETATM   29  C   UNL     1     -11.456  11.719  66.159  1.00  0.00    -0.220 C  
ENDBRANCH  22  23
ENDBRANCH  21  22
ENDBRANCH  20  21
ENDBRANCH  19  20
ENDBRANCH   4   6
ENDBRANCH   3   4
ENDBRANCH   2   3
TORSDOF 7
ENDMDL
MODEL      121
REMARK 921   NORMALIZED FREE ENERGY PREDICTED BY IDOCK:   -4.52 KCAL/MOL
REMARK 922        TOTAL FREE ENERGY PREDICTED BY IDOCK:   -7.33 KCAL/MOL
REMARK 923 INTER-LIGAND FREE ENERGY PREDICTED BY IDOCK:   -6.58 KCAL/MOL
REMARK 924 INTRA-LIGAND FREE ENERGY PREDICTED BY IDOCK:   -0.75 KCAL/MOL
REMARK 927      BINDING AFFINITY PREDICTED BY RF-SCORE:    0.00 PKD
ROOT
HETATM    1  C   UNL     1      -8.146   3.517  63.267  1.00  0.00    -0.080 C  
HETATM    2  C   UNL     1      -8.673   4.758  63.971  1.00  0.00    -0.138 C  
ENDROOT
BRANCH   2   3
HETATM    3  C   UNL     1      -8.062   6.021  63.369  1.00  0.00    -0.084 C  
BRANCH   3   4
HETATM    4  C   UNL     1      -7.177   6.777  64.346  1.00  0.00    -0.069 C  
HETATM    5  O   UNL     1      -6.055   7.189  64.058  1.00  0.00    -0.039 OA 
BRANCH   4   6
HETATM    6  C   UNL     1      -7.734   7.063  65.704  1.00  0.00    -0.102 A  
HETATM    7  C   UNL     1      -8.566   8.182  65.874  1.00  0.00    -0.171 A  
HETATM    8  C   UNL     1      -9.178   8.511  67.111  1.00  0.00    -0.142 A  
HETATM    9  C   UNL     1      -8.880   7.653  68.186  1.00  0.00    -0.125 A  
HETATM   10  S   UNL     1      -9.522   7.843  69.824  1.00  0.00    -0.163 SA 
HETATM   11  C   UNL     1      -8.030   6.541  68.020  1.00  0.00    -0.109 A  
HETATM   12  C   UNL     1     -10.509   9.308  69.683  1.00  0.00    -0.224 A  
HETATM   13  C   UNL     1      -7.461   6.243  66.788  1.00  0.00    -0.087 A  
HETATM   14  C   UNL     1     -11.137   9.702  70.885  1.00  0.00    -0.422 A  
HETATM   15  C   UNL     1     -11.944  10.826  70.939  1.00  0.00    -0.438 A  
HETATM   16  C   UNL     1     -12.132  11.570  69.790  1.00  0.00    -0.374 A  
HETATM   17  C   UNL     1     -11.508  11.182  68.593  1.00  0.00    -0.363 A  
HETATM   18  C   UNL     1     -10.677  10.040  68.487  1.00  0.00    -0.231 A  
HETATM   19  N   UNL     1     -10.048   9.639  67.267  1.00  0.00    -0.197 NA 
BRANCH  19  20
HETATM   20  C   UNL     1     -10.335  10.411  66.035  1.00  0.00    -0.192 C  
BRANCH  20  21
HETATM   21  C   UNL     1      -9.563  11.740  65.965  1.00  0.00    -0.248 C  
BRANCH  21  22
HETATM   22  C   UNL     1     -10.361  12.837  65.261  1.00  0.00    -0.296 C  
BRANCH  22  23
HETATM   23  N   UNL     1     -11.052  13.775  66.171  1.00  0.00    -0.295 NA 
HETATM   24  C   UNL     1     -10.051  14.445  67.039  1.00  0.00    -0.256 C  
HETATM   25  C   UNL     1      -9.120  15.425  66.279  1.00  0.00    -0.320 C  
HETATM   26  N   UNL     1      -9.820  16.449  65.475  1.00  0.00    -0.533 NA 
HETATM   27  C   UNL     1     -10.911  15.835  64.685  1.00  0.00    -0.314 C  
HETATM   28  C   UNL     1     -10.336  17.514  66.334  1.00  0.00    -0.334 C  
HETATM   29  C   UNL     1     -11.801  14.838  65.467  1.00  0.00    -0.231 C  
ENDBRANCH  22  23
ENDBRANCH  21  22
ENDBRANCH  20  21
ENDBRANCH  19  20
ENDBRANCH   4   6
ENDBRANCH   3   4
ENDBRANCH   2   3
TORSDOF 7
ENDMDL
MODEL      122
REMARK 921   NORMALIZED FREE ENERGY PREDICTED BY IDOCK:   -4.51 KCAL/MOL
REMARK 922        TOTAL FREE ENERGY PREDICTED BY IDOCK:   -7.31 KCAL/MOL
REMARK 923 INTER-LIGAND FREE ENERGY PREDICTED BY IDOCK:   -6.16 KCAL/MOL
REMARK 924 INTRA-LIGAND FREE ENERGY PREDICTED BY IDOCK:   -1.15 KCAL/MOL
REMARK 927      BINDING AFFINITY PREDICTED BY RF-SCORE:    0.00 PKD
ROOT
HETATM    1  C   UNL     1     -10.963   6.126  67.516  1.00  0.00    -0.404 C  
HETATM    2  C   UNL     1     -10.700   5.258  68.737  1.00  0.00    -0.013 C  
ENDROOT
BRANCH   2   3
HETATM    3  C   UNL     1     -10.011   6.065  69.835  1.00  0.00    -0.225 C  
BRANCH   3   4
HETATM    4  C   UNL     1     -10.958   6.484  70.947  1.00  0.00    -0.274 C  
HETATM    5  O   UNL     1     -11.355   5.713  71.819  1.00  0.00    -0.221 OA 
BRANCH   4   6
HETATM    6  C   UNL     1     -11.381   7.917  70.991  1.00  0.00    -0.292 A  
HETATM    7  C   UNL     1     -10.937   8.788  69.981  1.00  0.00    -0.216 A  
HETATM    8  C   UNL     1     -11.320  10.151  69.910  1.00  0.00    -0.275 A  
HETATM    9  C   UNL     1     -12.164  10.602  70.943  1.00  0.00    -0.395 A  
HETATM   10  S   UNL     1     -12.785  12.253  71.076  1.00  0.00    -0.124 SA 
HETATM   11  C   UNL     1     -12.593   9.734  71.967  1.00  0.00    -0.432 A  
HETATM   12  C   UNL     1     -12.053  13.055  69.676  1.00  0.00    -0.241 A  
HETATM   13  C   UNL     1     -12.209   8.399  71.993  1.00  0.00    -0.419 A  
HETATM   14  C   UNL     1     -12.380  14.423  69.554  1.00  0.00    -0.263 A  
HETATM   15  C   UNL     1     -11.889  15.189  68.511  1.00  0.00    -0.307 A  
HETATM   16  C   UNL     1     -11.061  14.595  67.577  1.00  0.00    -0.319 A  
HETATM   17  C   UNL     1     -10.732  13.235  67.696  1.00  0.00    -0.250 A  
HETATM   18  C   UNL     1     -11.212  12.410  68.742  1.00  0.00    -0.273 A  
HETATM   19  N   UNL     1     -10.884  11.024  68.860  1.00  0.00    -0.202 NA 
BRANCH  19  20
HETATM   20  C   UNL     1     -10.062  10.397  67.798  1.00  0.00    -0.181 C  
BRANCH  20  21
HETATM   21  C   UNL     1      -8.553  10.467  68.088  1.00  0.00    -0.125 C  
BRANCH  21  22
HETATM   22  C   UNL     1      -7.922   9.080  68.217  1.00  0.00    -0.104 C  
BRANCH  22  23
HETATM   23  N   UNL     1      -6.838   8.805  67.250  1.00  0.00    -0.066 NA 
HETATM   24  C   UNL     1      -6.413   7.388  67.379  1.00  0.00    -0.060 C  
HETATM   25  C   UNL     1      -7.481   6.369  66.904  1.00  0.00    -0.084 C  
HETATM   26  N   UNL     1      -7.989   6.595  65.534  1.00  0.00    -0.111 NA 
HETATM   27  C   UNL     1      -8.308   8.025  65.326  1.00  0.00    -0.143 C  
HETATM   28  C   UNL     1      -7.019   6.129  64.542  1.00  0.00    -0.051 C  
HETATM   29  C   UNL     1      -7.235   9.016  65.841  1.00  0.00    -0.093 C  
ENDBRANCH  22  23
ENDBRANCH  21  22
ENDBRANCH  20  21
ENDBRANCH  19  20
ENDBRANCH   4   6
ENDBRANCH   3   4
ENDBRANCH   2   3
TORSDOF 7
ENDMDL
MODEL      123
REMARK 921   NORMALIZED FREE ENERGY PREDICTED BY IDOCK:   -4.50 KCAL/MOL
REMARK 922        TOTAL FREE ENERGY PREDICTED BY IDOCK:   -7.29 KCAL/MOL
REMARK 923 INTER-LIGAND FREE ENERGY PREDICTED BY IDOCK:   -7.95 KCAL/MOL
REMARK 924 INTRA-LIGAND FREE ENERGY PREDICTED BY IDOCK:    0.66 KCAL/MOL
REMARK 927      BINDING AFFINITY PREDICTED BY RF-SCORE:    0.00 PKD
ROOT
HETATM    1  C   UNL     1      -8.632   6.069  68.675  1.00  0.00    -0.112 C  
HETATM    2  C   UNL     1      -9.843   6.982  68.795  1.00  0.00    -0.152 C  
ENDROOT
BRANCH   2   3
HETATM    3  C   UNL     1     -11.071   6.194  69.243  1.00  0.00    -0.463 C  
BRANCH   3   4
HETATM    4  C   UNL     1     -11.480   6.493  70.675  1.00  0.00    -0.374 C  
HETATM    5  O   UNL     1     -11.440   5.655  71.575  1.00  0.00    -0.142 OA 
BRANCH   4   6
HETATM    6  C   UNL     1     -11.905   7.890  70.995  1.00  0.00    -0.285 A  
HETATM    7  C   UNL     1     -11.410   8.947  70.213  1.00  0.00    -0.179 A  
HETATM    8  C   UNL     1     -11.790  10.299  70.409  1.00  0.00    -0.309 A  
HETATM    9  C   UNL     1     -12.687  10.533  71.468  1.00  0.00    -0.452 A  
HETATM   10  S   UNL     1     -13.316  12.127  71.911  1.00  0.00    -0.159 SA 
HETATM   11  C   UNL     1     -13.169   9.476  72.265  1.00  0.00    -0.507 A  
HETATM   12  C   UNL     1     -12.512  13.195  70.748  1.00  0.00    -0.308 A  
HETATM   13  C   UNL     1     -12.786   8.161  72.032  1.00  0.00    -0.355 A  
HETATM   14  C   UNL     1     -12.834  14.562  70.897  1.00  0.00    -0.425 A  
HETATM   15  C   UNL     1     -12.289  15.524  70.064  1.00  0.00    -0.345 A  
HETATM   16  C   UNL     1     -11.413  15.129  69.070  1.00  0.00    -0.325 A  
HETATM   17  C   UNL     1     -11.089  13.771  68.920  1.00  0.00    -0.300 A  
HETATM   18  C   UNL     1     -11.623  12.751  69.745  1.00  0.00    -0.218 A  
HETATM   19  N   UNL     1     -11.300  11.367  69.587  1.00  0.00    -0.277 NA 
BRANCH  19  20
HETATM   20  C   UNL     1     -10.423  10.967  68.462  1.00  0.00    -0.188 C  
BRANCH  20  21
HETATM   21  C   UNL     1     -11.088  11.152  67.087  1.00  0.00    -0.352 C  
BRANCH  21  22
HETATM   22  C   UNL     1     -10.072  11.135  65.945  1.00  0.00    -0.247 C  
BRANCH  22  23
HETATM   23  N   UNL     1      -9.839  12.448  65.309  1.00  0.00    -0.211 NA 
HETATM   24  C   UNL     1     -10.037  12.326  63.842  1.00  0.00    -0.347 C  
HETATM   25  C   UNL     1     -11.511  12.071  63.430  1.00  0.00    -0.400 C  
HETATM   26  N   UNL     1     -12.483  13.046  63.967  1.00  0.00    -0.640 NA 
HETATM   27  C   UNL     1     -12.237  13.289  65.406  1.00  0.00    -0.456 C  
HETATM   28  C   UNL     1     -12.428  14.297  63.212  1.00  0.00     0.852 C  
HETATM   29  C   UNL     1     -10.752  13.507  65.787  1.00  0.00    -0.275 C  
ENDBRANCH  22  23
ENDBRANCH  21  22
ENDBRANCH  20  21
ENDBRANCH  19  20
ENDBRANCH   4   6
ENDBRANCH   3   4
ENDBRANCH   2   3
TORSDOF 7
ENDMDL
MODEL      124
REMARK 921   NORMALIZED FREE ENERGY PREDICTED BY IDOCK:   -4.47 KCAL/MOL
REMARK 922        TOTAL FREE ENERGY PREDICTED BY IDOCK:   -7.26 KCAL/MOL
REMARK 923 INTER-LIGAND FREE ENERGY PREDICTED BY IDOCK:   -6.35 KCAL/MOL
REMARK 924 INTRA-LIGAND FREE ENERGY PREDICTED BY IDOCK:   -0.91 KCAL/MOL
REMARK 927      BINDING AFFINITY PREDICTED BY RF-SCORE:    0.00 PKD
ROOT
HETATM    1  C   UNL     1     -11.760  15.410  71.861  1.00  0.00    -0.511 C  
HETATM    2  C   UNL     1     -12.041  14.100  71.140  1.00  0.00    -0.392 C  
ENDROOT
BRANCH   2   3
HETATM    3  C   UNL     1     -12.517  14.360  69.713  1.00  0.00    -0.262 C  
BRANCH   3   4
HETATM    4  C   UNL     1     -11.517  15.151  68.888  1.00  0.00    -0.320 C  
HETATM    5  O   UNL     1     -11.705  16.314  68.535  1.00  0.00    -0.302 OA 
BRANCH   4   6
HETATM    6  C   UNL     1     -10.227  14.481  68.537  1.00  0.00    -0.240 A  
HETATM    7  C   UNL     1     -10.260  13.177  68.012  1.00  0.00    -0.233 A  
HETATM    8  C   UNL     1      -9.095  12.476  67.607  1.00  0.00    -0.187 A  
HETATM    9  C   UNL     1      -7.879  13.160  67.787  1.00  0.00    -0.152 A  
HETATM   10  S   UNL     1      -6.292  12.506  67.354  1.00  0.00    -0.128 SA 
HETATM   11  C   UNL     1      -7.844  14.460  68.330  1.00  0.00    -0.138 A  
HETATM   12  C   UNL     1      -6.695  10.896  66.735  1.00  0.00    -0.120 A  
HETATM   13  C   UNL     1      -9.008  15.120  68.702  1.00  0.00    -0.191 A  
HETATM   14  C   UNL     1      -5.577  10.135  66.327  1.00  0.00    -0.057 A  
HETATM   15  C   UNL     1      -5.725   8.856  65.818  1.00  0.00    -0.050 A  
HETATM   16  C   UNL     1      -6.996   8.322  65.712  1.00  0.00    -0.067 A  
HETATM   17  C   UNL     1      -8.109   9.075  66.118  1.00  0.00    -0.111 A  
HETATM   18  C   UNL     1      -8.009  10.387  66.641  1.00  0.00    -0.120 A  
HETATM   19  N   UNL     1      -9.143  11.158  67.047  1.00  0.00    -0.151 NA 
BRANCH  19  20
HETATM   20  C   UNL     1     -10.496  10.589  66.844  1.00  0.00    -0.246 C  
BRANCH  20  21
HETATM   21  C   UNL     1     -10.782   9.380  67.752  1.00  0.00    -0.290 C  
BRANCH  21  22
HETATM   22  C   UNL     1     -10.886   9.775  69.226  1.00  0.00    -0.216 C  
BRANCH  22  23
HETATM   23  N   UNL     1      -9.961   9.051  70.124  1.00  0.00    -0.180 NA 
HETATM   24  C   UNL     1     -10.393   9.242  71.531  1.00  0.00    -0.294 C  
HETATM   25  C   UNL     1     -11.731   8.537  71.876  1.00  0.00    -0.341 C  
HETATM   26  N   UNL     1     -11.775   7.095  71.552  1.00  0.00    -0.274 NA 
HETATM   27  C   UNL     1     -11.234   6.850  70.196  1.00  0.00    -0.313 C  
HETATM   28  C   UNL     1     -11.041   6.320  72.553  1.00  0.00    -0.272 C  
HETATM   29  C   UNL     1      -9.915   7.594  69.874  1.00  0.00    -0.190 C  
ENDBRANCH  22  23
ENDBRANCH  21  22
ENDBRANCH  20  21
ENDBRANCH  19  20
ENDBRANCH   4   6
ENDBRANCH   3   4
ENDBRANCH   2   3
TORSDOF 7
ENDMDL
MODEL      125
REMARK 921   NORMALIZED FREE ENERGY PREDICTED BY IDOCK:   -4.47 KCAL/MOL
REMARK 922        TOTAL FREE ENERGY PREDICTED BY IDOCK:   -7.26 KCAL/MOL
REMARK 923 INTER-LIGAND FREE ENERGY PREDICTED BY IDOCK:   -6.58 KCAL/MOL
REMARK 924 INTRA-LIGAND FREE ENERGY PREDICTED BY IDOCK:   -0.68 KCAL/MOL
REMARK 927      BINDING AFFINITY PREDICTED BY RF-SCORE:    0.00 PKD
ROOT
HETATM    1  C   UNL     1      -9.045   5.718  67.830  1.00  0.00    -0.109 C  
HETATM    2  C   UNL     1      -9.849   6.315  68.976  1.00  0.00    -0.165 C  
ENDROOT
BRANCH   2   3
HETATM    3  C   UNL     1     -10.166   7.784  68.704  1.00  0.00    -0.217 C  
BRANCH   3   4
HETATM    4  C   UNL     1     -10.871   8.463  69.866  1.00  0.00    -0.207 C  
HETATM    5  O   UNL     1     -11.240   7.863  70.874  1.00  0.00    -0.262 OA 
BRANCH   4   6
HETATM    6  C   UNL     1     -11.076   9.942  69.780  1.00  0.00    -0.294 A  
HETATM    7  C   UNL     1     -10.536  10.640  68.687  1.00  0.00    -0.211 A  
HETATM    8  C   UNL     1     -10.715  12.034  68.493  1.00  0.00    -0.234 A  
HETATM    9  C   UNL     1     -11.456  12.697  69.488  1.00  0.00    -0.225 A  
HETATM   10  S   UNL     1     -11.824  14.428  69.473  1.00  0.00    -0.347 SA 
HETATM   11  C   UNL     1     -11.982  12.001  70.594  1.00  0.00    -0.257 A  
HETATM   12  C   UNL     1     -11.018  14.980  67.995  1.00  0.00    -0.284 A  
HETATM   13  C   UNL     1     -11.799  10.632  70.742  1.00  0.00    -0.459 A  
HETATM   14  C   UNL     1     -11.143  16.365  67.748  1.00  0.00    -0.199 A  
HETATM   15  C   UNL     1     -10.571  16.951  66.632  1.00  0.00    -0.189 A  
HETATM   16  C   UNL     1      -9.864  16.157  65.748  1.00  0.00    -0.354 A  
HETATM   17  C   UNL     1      -9.736  14.780  65.991  1.00  0.00    -0.350 A  
HETATM   18  C   UNL     1     -10.305  14.135  67.115  1.00  0.00    -0.265 A  
HETATM   19  N   UNL     1     -10.183  12.731  67.359  1.00  0.00    -0.221 NA 
BRANCH  19  20
HETATM   20  C   UNL     1      -9.489  11.895  66.352  1.00  0.00    -0.228 C  
BRANCH  20  21
HETATM   21  C   UNL     1     -10.428  11.388  65.244  1.00  0.00    -0.340 C  
BRANCH  21  22
HETATM   22  C   UNL     1      -9.804  10.256  64.428  1.00  0.00    -0.305 C  
BRANCH  22  23
HETATM   23  N   UNL     1      -8.325  10.252  64.411  1.00  0.00    -0.166 NA 
HETATM   24  C   UNL     1      -7.826   9.231  65.367  1.00  0.00    -0.100 C  
HETATM   25  C   UNL     1      -8.117   7.771  64.930  1.00  0.00    -0.136 C  
HETATM   26  N   UNL     1      -7.651   7.426  63.570  1.00  0.00    -0.115 NA 
HETATM   27  C   UNL     1      -8.023   8.486  62.606  1.00  0.00    -0.152 C  
HETATM   28  C   UNL     1      -6.205   7.202  63.563  1.00  0.00    -0.044 C  
HETATM   29  C   UNL     1      -7.750   9.932  63.088  1.00  0.00    -0.141 C  
ENDBRANCH  22  23
ENDBRANCH  21  22
ENDBRANCH  20  21
ENDBRANCH  19  20
ENDBRANCH   4   6
ENDBRANCH   3   4
ENDBRANCH   2   3
TORSDOF 7
ENDMDL
MODEL      126
REMARK 921   NORMALIZED FREE ENERGY PREDICTED BY IDOCK:   -4.44 KCAL/MOL
REMARK 922        TOTAL FREE ENERGY PREDICTED BY IDOCK:   -7.22 KCAL/MOL
REMARK 923 INTER-LIGAND FREE ENERGY PREDICTED BY IDOCK:   -6.22 KCAL/MOL
REMARK 924 INTRA-LIGAND FREE ENERGY PREDICTED BY IDOCK:   -1.00 KCAL/MOL
REMARK 927      BINDING AFFINITY PREDICTED BY RF-SCORE:    0.00 PKD
ROOT
HETATM    1  C   UNL     1     -10.351   6.287  73.397  1.00  0.00    -0.257 C  
HETATM    2  C   UNL     1     -10.179   7.797  73.333  1.00  0.00    -0.315 C  
ENDROOT
BRANCH   2   3
HETATM    3  C   UNL     1      -9.917   8.251  71.899  1.00  0.00    -0.299 C  
BRANCH   3   4
HETATM    4  C   UNL     1     -10.949   7.730  70.913  1.00  0.00    -0.250 C  
HETATM    5  O   UNL     1     -12.154   7.952  71.020  1.00  0.00    -0.298 OA 
BRANCH   4   6
HETATM    6  C   UNL     1     -10.451   6.951  69.738  1.00  0.00    -0.240 A  
HETATM    7  C   UNL     1      -9.984   7.647  68.611  1.00  0.00    -0.181 A  
HETATM    8  C   UNL     1      -9.450   6.999  67.467  1.00  0.00    -0.126 A  
HETATM    9  C   UNL     1      -9.439   5.592  67.513  1.00  0.00    -0.114 A  
HETATM   10  S   UNL     1      -8.820   4.555  66.220  1.00  0.00    -0.116 SA 
HETATM   11  C   UNL     1      -9.925   4.893  68.636  1.00  0.00    -0.195 A  
HETATM   12  C   UNL     1      -8.320   5.730  64.991  1.00  0.00    -0.138 A  
HETATM   13  C   UNL     1     -10.426   5.564  69.745  1.00  0.00    -0.389 A  
HETATM   14  C   UNL     1      -7.792   5.151  63.816  1.00  0.00    -0.091 A  
HETATM   15  C   UNL     1      -7.355   5.935  62.762  1.00  0.00    -0.055 A  
HETATM   16  C   UNL     1      -7.441   7.310  62.871  1.00  0.00    -0.098 A  
HETATM   17  C   UNL     1      -7.967   7.889  64.037  1.00  0.00    -0.124 A  
HETATM   18  C   UNL     1      -8.423   7.130  65.142  1.00  0.00    -0.013 A  
HETATM   19  N   UNL     1      -8.950   7.719  66.333  1.00  0.00    -0.156 NA 
BRANCH  19  20
HETATM   20  C   UNL     1      -8.954   9.196  66.453  1.00  0.00    -0.149 C  
BRANCH  20  21
HETATM   21  C   UNL     1     -10.264   9.835  65.962  1.00  0.00    -0.263 C  
BRANCH  21  22
HETATM   22  C   UNL     1     -10.360  11.316  66.329  1.00  0.00    -0.247 C  
BRANCH  22  23
HETATM   23  N   UNL     1     -11.691  11.747  66.807  1.00  0.00    -0.571 NA 
HETATM   24  C   UNL     1     -11.892  11.267  68.197  1.00  0.00    -0.205 C  
HETATM   25  C   UNL     1     -10.980  11.966  69.238  1.00  0.00    -0.151 C  
HETATM   26  N   UNL     1     -11.041  13.443  69.226  1.00  0.00    -0.207 NA 
HETATM   27  C   UNL     1     -10.968  13.956  67.840  1.00  0.00    -0.250 C  
HETATM   28  C   UNL     1     -12.257  13.913  69.891  1.00  0.00    -0.333 C  
HETATM   29  C   UNL     1     -11.867  13.215  66.820  1.00  0.00    -0.385 C  
ENDBRANCH  22  23
ENDBRANCH  21  22
ENDBRANCH  20  21
ENDBRANCH  19  20
ENDBRANCH   4   6
ENDBRANCH   3   4
ENDBRANCH   2   3
TORSDOF 7
ENDMDL
MODEL      127
REMARK 921   NORMALIZED FREE ENERGY PREDICTED BY IDOCK:   -4.40 KCAL/MOL
REMARK 922        TOTAL FREE ENERGY PREDICTED BY IDOCK:   -7.16 KCAL/MOL
REMARK 923 INTER-LIGAND FREE ENERGY PREDICTED BY IDOCK:   -6.12 KCAL/MOL
REMARK 924 INTRA-LIGAND FREE ENERGY PREDICTED BY IDOCK:   -1.04 KCAL/MOL
REMARK 927      BINDING AFFINITY PREDICTED BY RF-SCORE:    0.00 PKD
ROOT
HETATM    1  C   UNL     1      -6.000   9.148  70.319  1.00  0.00    -0.035 C  
HETATM    2  C   UNL     1      -5.735  10.583  70.750  1.00  0.00    -0.100 C  
ENDROOT
BRANCH   2   3
HETATM    3  C   UNL     1      -5.434  11.464  69.539  1.00  0.00    -0.055 C  
BRANCH   3   4
HETATM    4  C   UNL     1      -5.839  12.913  69.744  1.00  0.00    -0.121 C  
HETATM    5  O   UNL     1      -5.387  13.617  70.646  1.00  0.00    -0.110 OA 
BRANCH   4   6
HETATM    6  C   UNL     1      -6.798  13.509  68.765  1.00  0.00    -0.108 A  
HETATM    7  C   UNL     1      -7.576  12.650  67.969  1.00  0.00    -0.132 A  
HETATM    8  C   UNL     1      -8.545  13.118  67.045  1.00  0.00    -0.162 A  
HETATM    9  C   UNL     1      -8.670  14.516  66.947  1.00  0.00    -0.211 A  
HETATM   10  S   UNL     1      -9.809  15.345  65.876  1.00  0.00    -0.371 SA 
HETATM   11  C   UNL     1      -7.877  15.378  67.731  1.00  0.00    -0.158 A  
HETATM   12  C   UNL     1     -10.609  13.998  65.048  1.00  0.00    -0.410 A  
HETATM   13  C   UNL     1      -6.948  14.882  68.637  1.00  0.00    -0.108 A  
HETATM   14  C   UNL     1     -11.578  14.393  64.100  1.00  0.00    -0.183 A  
HETATM   15  C   UNL     1     -12.293  13.459  63.370  1.00  0.00    -0.343 A  
HETATM   16  C   UNL     1     -12.045  12.115  63.580  1.00  0.00    -0.648 A  
HETATM   17  C   UNL     1     -11.082  11.719  64.521  1.00  0.00    -0.376 A  
HETATM   18  C   UNL     1     -10.328  12.636  65.293  1.00  0.00    -0.289 A  
HETATM   19  N   UNL     1      -9.353  12.233  66.258  1.00  0.00    -0.228 NA 
BRANCH  19  20
HETATM   20  C   UNL     1      -9.170  10.786  66.518  1.00  0.00    -0.168 C  
BRANCH  20  21
HETATM   21  C   UNL     1     -10.276  10.191  67.408  1.00  0.00    -0.267 C  
BRANCH  21  22
HETATM   22  C   UNL     1     -10.681  11.137  68.539  1.00  0.00    -0.201 C  
BRANCH  22  23
HETATM   23  N   UNL     1     -12.040  11.704  68.410  1.00  0.00    -0.518 NA 
HETATM   24  C   UNL     1     -12.853  11.303  69.586  1.00  0.00     0.380 C  
HETATM   25  C   UNL     1     -12.398  11.962  70.914  1.00  0.00    -0.300 C  
HETATM   26  N   UNL     1     -12.303  13.436  70.876  1.00  0.00    -0.375 NA 
HETATM   27  C   UNL     1     -11.604  13.881  69.649  1.00  0.00    -0.286 C  
HETATM   28  C   UNL     1     -13.632  14.040  70.965  1.00  0.00    -0.056 C  
HETATM   29  C   UNL     1     -12.060  13.181  68.346  1.00  0.00    -0.181 C  
ENDBRANCH  22  23
ENDBRANCH  21  22
ENDBRANCH  20  21
ENDBRANCH  19  20
ENDBRANCH   4   6
ENDBRANCH   3   4
ENDBRANCH   2   3
TORSDOF 7
ENDMDL
MODEL      128
REMARK 921   NORMALIZED FREE ENERGY PREDICTED BY IDOCK:   -4.33 KCAL/MOL
REMARK 922        TOTAL FREE ENERGY PREDICTED BY IDOCK:   -7.05 KCAL/MOL
REMARK 923 INTER-LIGAND FREE ENERGY PREDICTED BY IDOCK:   -6.52 KCAL/MOL
REMARK 924 INTRA-LIGAND FREE ENERGY PREDICTED BY IDOCK:   -0.53 KCAL/MOL
REMARK 927      BINDING AFFINITY PREDICTED BY RF-SCORE:    0.00 PKD
ROOT
HETATM    1  C   UNL     1      -5.181   6.899  70.181  1.00  0.00    -0.018 C  
HETATM    2  C   UNL     1      -5.534   7.773  68.987  1.00  0.00    -0.022 C  
ENDROOT
BRANCH   2   3
HETATM    3  C   UNL     1      -7.048   7.854  68.805  1.00  0.00    -0.072 C  
BRANCH   3   4
HETATM    4  C   UNL     1      -7.527   7.195  67.523  1.00  0.00    -0.101 C  
HETATM    5  O   UNL     1      -7.430   5.988  67.308  1.00  0.00    -0.079 OA 
BRANCH   4   6
HETATM    6  C   UNL     1      -8.187   8.067  66.503  1.00  0.00    -0.115 A  
HETATM    7  C   UNL     1      -9.020   9.111  66.939  1.00  0.00    -0.143 A  
HETATM    8  C   UNL     1      -9.654  10.019  66.052  1.00  0.00    -0.222 A  
HETATM    9  C   UNL     1      -9.419   9.796  64.683  1.00  0.00    -0.229 A  
HETATM   10  S   UNL     1     -10.088  10.791  63.380  1.00  0.00    -0.202 SA 
HETATM   11  C   UNL     1      -8.600   8.737  64.244  1.00  0.00    -0.093 A  
HETATM   12  C   UNL     1     -11.056  11.983  64.264  1.00  0.00    -0.351 A  
HETATM   13  C   UNL     1      -7.983   7.878  65.144  1.00  0.00    -0.132 A  
HETATM   14  C   UNL     1     -11.729  12.911  63.439  1.00  0.00    -0.526 A  
HETATM   15  C   UNL     1     -12.524  13.907  63.977  1.00  0.00    -0.263 A  
HETATM   16  C   UNL     1     -12.657  13.987  65.351  1.00  0.00    -0.529 A  
HETATM   17  C   UNL     1     -11.991  13.065  66.175  1.00  0.00    -0.488 A  
HETATM   18  C   UNL     1     -11.164  12.032  65.672  1.00  0.00    -0.327 A  
HETATM   19  N   UNL     1     -10.479  11.098  66.509  1.00  0.00    -0.247 NA 
BRANCH  19  20
HETATM   20  C   UNL     1     -10.576  11.260  67.979  1.00  0.00    -0.195 C  
BRANCH  20  21
HETATM   21  C   UNL     1      -9.423  12.091  68.569  1.00  0.00    -0.136 C  
BRANCH  21  22
HETATM   22  C   UNL     1      -9.049  13.277  67.680  1.00  0.00    -0.204 C  
BRANCH  22  23
HETATM   23  N   UNL     1      -8.720  14.517  68.415  1.00  0.00    -0.170 NA 
HETATM   24  C   UNL     1      -8.347  15.578  67.445  1.00  0.00    -0.182 C  
HETATM   25  C   UNL     1      -9.531  16.072  66.574  1.00  0.00    -0.271 C  
HETATM   26  N   UNL     1     -10.720  16.512  67.334  1.00  0.00    -0.296 NA 
HETATM   27  C   UNL     1     -11.050  15.535  68.396  1.00  0.00    -0.315 C  
HETATM   28  C   UNL     1     -10.505  17.843  67.900  1.00  0.00    -0.396 C  
HETATM   29  C   UNL     1      -9.841  15.038  69.225  1.00  0.00    -0.197 C  
ENDBRANCH  22  23
ENDBRANCH  21  22
ENDBRANCH  20  21
ENDBRANCH  19  20
ENDBRANCH   4   6
ENDBRANCH   3   4
ENDBRANCH   2   3
TORSDOF 7
ENDMDL
MODEL      129
REMARK 921   NORMALIZED FREE ENERGY PREDICTED BY IDOCK:   -4.30 KCAL/MOL
REMARK 922        TOTAL FREE ENERGY PREDICTED BY IDOCK:   -7.02 KCAL/MOL
REMARK 923 INTER-LIGAND FREE ENERGY PREDICTED BY IDOCK:   -6.88 KCAL/MOL
REMARK 924 INTRA-LIGAND FREE ENERGY PREDICTED BY IDOCK:   -0.14 KCAL/MOL
REMARK 927      BINDING AFFINITY PREDICTED BY RF-SCORE:    0.00 PKD
ROOT
HETATM    1  C   UNL     1     -10.702   5.779  68.767  1.00  0.00    -0.318 C  
HETATM    2  C   UNL     1     -10.881   5.784  70.278  1.00  0.00    -0.373 C  
ENDROOT
BRANCH   2   3
HETATM    3  C   UNL     1     -10.063   6.905  70.915  1.00  0.00    -0.207 C  
BRANCH   3   4
HETATM    4  C   UNL     1     -10.923   8.029  71.466  1.00  0.00    -0.234 C  
HETATM    5  O   UNL     1     -11.402   8.017  72.599  1.00  0.00    -0.372 OA 
BRANCH   4   6
HETATM    6  C   UNL     1     -11.150   9.219  70.590  1.00  0.00    -0.335 A  
HETATM    7  C   UNL     1     -10.705   9.177  69.258  1.00  0.00    -0.199 A  
HETATM    8  C   UNL     1     -10.914  10.235  68.337  1.00  0.00    -0.260 A  
HETATM    9  C   UNL     1     -11.581  11.364  68.848  1.00  0.00    -0.323 A  
HETATM   10  S   UNL     1     -11.967  12.810  67.902  1.00  0.00    -0.154 SA 
HETATM   11  C   UNL     1     -12.010  11.415  70.189  1.00  0.00    -0.460 A  
HETATM   12  C   UNL     1     -11.286  12.423  66.313  1.00  0.00    -0.340 A  
HETATM   13  C   UNL     1     -11.801  10.351  71.057  1.00  0.00    -0.458 A  
HETATM   14  C   UNL     1     -11.445  13.443  65.350  1.00  0.00    -0.322 A  
HETATM   15  C   UNL     1     -10.969  13.293  64.058  1.00  0.00    -0.317 A  
HETATM   16  C   UNL     1     -10.326  12.118  63.715  1.00  0.00    -0.465 A  
HETATM   17  C   UNL     1     -10.165  11.102  64.670  1.00  0.00    -0.376 A  
HETATM   18  C   UNL     1     -10.637  11.207  66.001  1.00  0.00    -0.239 A  
HETATM   19  N   UNL     1     -10.481  10.170  66.973  1.00  0.00    -0.242 NA 
BRANCH  19  20
HETATM   20  C   UNL     1      -9.861   8.892  66.551  1.00  0.00    -0.274 C  
BRANCH  20  21
HETATM   21  C   UNL     1      -8.323   8.935  66.573  1.00  0.00    -0.115 C  
BRANCH  21  22
HETATM   22  C   UNL     1      -7.787  10.133  67.356  1.00  0.00    -0.102 C  
BRANCH  22  23
HETATM   23  N   UNL     1      -6.450   9.930  67.954  1.00  0.00    -0.059 NA 
HETATM   24  C   UNL     1      -6.507  10.247  69.404  1.00  0.00    -0.053 C  
HETATM   25  C   UNL     1      -7.343   9.238  70.232  1.00  0.00    -0.100 C  
HETATM   26  N   UNL     1      -6.951   7.822  70.066  1.00  0.00    -0.050 NA 
HETATM   27  C   UNL     1      -6.763   7.499  68.633  1.00  0.00    -0.054 C  
HETATM   28  C   UNL     1      -5.737   7.531  70.828  1.00  0.00    -0.030 C  
HETATM   29  C   UNL     1      -5.952   8.544  67.829  1.00  0.00    -0.047 C  
ENDBRANCH  22  23
ENDBRANCH  21  22
ENDBRANCH  20  21
ENDBRANCH  19  20
ENDBRANCH   4   6
ENDBRANCH   3   4
ENDBRANCH   2   3
TORSDOF 7
ENDMDL
MODEL      130
REMARK 921   NORMALIZED FREE ENERGY PREDICTED BY IDOCK:   -4.29 KCAL/MOL
REMARK 922        TOTAL FREE ENERGY PREDICTED BY IDOCK:   -7.00 KCAL/MOL
REMARK 923 INTER-LIGAND FREE ENERGY PREDICTED BY IDOCK:   -6.39 KCAL/MOL
REMARK 924 INTRA-LIGAND FREE ENERGY PREDICTED BY IDOCK:   -0.60 KCAL/MOL
REMARK 927      BINDING AFFINITY PREDICTED BY RF-SCORE:    0.00 PKD
ROOT
HETATM    1  C   UNL     1     -11.068  15.826  64.520  1.00  0.00    -0.293 C  
HETATM    2  C   UNL     1     -12.342  14.995  64.505  1.00  0.00    -0.276 C  
ENDROOT
BRANCH   2   3
HETATM    3  C   UNL     1     -12.110  13.664  63.794  1.00  0.00    -0.435 C  
BRANCH   3   4
HETATM    4  C   UNL     1     -11.829  12.519  64.752  1.00  0.00    -0.383 C  
HETATM    5  O   UNL     1     -12.489  12.315  65.770  1.00  0.00    -0.564 OA 
BRANCH   4   6
HETATM    6  C   UNL     1     -10.721  11.579  64.399  1.00  0.00    -0.404 A  
HETATM    7  C   UNL     1     -10.087  10.861  65.427  1.00  0.00    -0.336 A  
HETATM    8  C   UNL     1      -9.058   9.914  65.190  1.00  0.00    -0.211 A  
HETATM    9  C   UNL     1      -8.682   9.747  63.844  1.00  0.00    -0.218 A  
HETATM   10  S   UNL     1      -7.433   8.624  63.287  1.00  0.00    -0.111 SA 
HETATM   11  C   UNL     1      -9.305  10.481  62.814  1.00  0.00    -0.342 A  
HETATM   12  C   UNL     1      -6.863   7.901  64.801  1.00  0.00    -0.055 A  
HETATM   13  C   UNL     1     -10.320  11.389  63.085  1.00  0.00    -0.357 A  
HETATM   14  C   UNL     1      -5.825   6.957  64.639  1.00  0.00    -0.036 A  
HETATM   15  C   UNL     1      -5.273   6.301  65.726  1.00  0.00    -0.013 A  
HETATM   16  C   UNL     1      -5.753   6.584  66.992  1.00  0.00    -0.013 A  
HETATM   17  C   UNL     1      -6.783   7.524  67.157  1.00  0.00    -0.067 A  
HETATM   18  C   UNL     1      -7.382   8.216  66.077  1.00  0.00    -0.076 A  
HETATM   19  N   UNL     1      -8.437   9.166  66.243  1.00  0.00    -0.121 NA 
BRANCH  19  20
HETATM   20  C   UNL     1      -8.985   9.387  67.602  1.00  0.00    -0.118 C  
BRANCH  20  21
HETATM   21  C   UNL     1     -10.244   8.549  67.885  1.00  0.00    -0.273 C  
BRANCH  21  22
HETATM   22  C   UNL     1     -10.462   7.458  66.837  1.00  0.00    -0.309 C  
BRANCH  22  23
HETATM   23  N   UNL     1     -11.120   6.236  67.347  1.00  0.00    -0.346 NA 
HETATM   24  C   UNL     1     -10.784   5.092  66.462  1.00  0.00    -0.193 C  
HETATM   25  C   UNL     1      -9.296   4.662  66.534  1.00  0.00    -0.149 C  
HETATM   26  N   UNL     1      -8.795   4.379  67.896  1.00  0.00    -0.105 NA 
HETATM   27  C   UNL     1      -9.218   5.441  68.837  1.00  0.00    -0.120 C  
HETATM   28  C   UNL     1      -9.256   3.068  68.351  1.00  0.00    -0.185 C  
HETATM   29  C   UNL     1     -10.701   5.869  68.717  1.00  0.00    -0.284 C  
ENDBRANCH  22  23
ENDBRANCH  21  22
ENDBRANCH  20  21
ENDBRANCH  19  20
ENDBRANCH   4   6
ENDBRANCH   3   4
ENDBRANCH   2   3
TORSDOF 7
ENDMDL
MODEL      131
REMARK 921   NORMALIZED FREE ENERGY PREDICTED BY IDOCK:   -4.27 KCAL/MOL
REMARK 922        TOTAL FREE ENERGY PREDICTED BY IDOCK:   -6.98 KCAL/MOL
REMARK 923 INTER-LIGAND FREE ENERGY PREDICTED BY IDOCK:   -6.05 KCAL/MOL
REMARK 924 INTRA-LIGAND FREE ENERGY PREDICTED BY IDOCK:   -0.92 KCAL/MOL
REMARK 927      BINDING AFFINITY PREDICTED BY RF-SCORE:    0.00 PKD
ROOT
HETATM    1  C   UNL     1     -10.227  14.441  68.151  1.00  0.00    -0.232 C  
HETATM    2  C   UNL     1     -11.389  13.899  68.970  1.00  0.00    -0.324 C  
ENDROOT
BRANCH   2   3
HETATM    3  C   UNL     1     -11.370  12.373  68.991  1.00  0.00    -0.336 C  
BRANCH   3   4
HETATM    4  C   UNL     1     -11.950  11.788  70.267  1.00  0.00    -0.343 C  
HETATM    5  O   UNL     1     -12.645  12.435  71.049  1.00  0.00    -0.360 OA 
BRANCH   4   6
HETATM    6  C   UNL     1     -11.689  10.343  70.546  1.00  0.00    -0.434 A  
HETATM    7  C   UNL     1     -11.067   9.561  69.557  1.00  0.00    -0.168 A  
HETATM    8  C   UNL     1     -10.737   8.195  69.744  1.00  0.00    -0.229 A  
HETATM    9  C   UNL     1     -11.097   7.645  70.989  1.00  0.00    -0.257 A  
HETATM   10  S   UNL     1     -10.789   5.970  71.468  1.00  0.00    -0.273 SA 
HETATM   11  C   UNL     1     -11.738   8.423  71.974  1.00  0.00    -0.417 A  
HETATM   12  C   UNL     1     -10.011   5.294  70.027  1.00  0.00    -0.245 A  
HETATM   13  C   UNL     1     -12.031   9.764  71.760  1.00  0.00    -0.388 A  
HETATM   14  C   UNL     1      -9.668   3.929  70.139  1.00  0.00    -0.242 A  
HETATM   15  C   UNL     1      -9.051   3.255  69.099  1.00  0.00    -0.207 A  
HETATM   16  C   UNL     1      -8.770   3.940  67.932  1.00  0.00    -0.121 A  
HETATM   17  C   UNL     1      -9.110   5.297  67.816  1.00  0.00    -0.115 A  
HETATM   18  C   UNL     1      -9.738   6.030  68.852  1.00  0.00    -0.132 A  
HETATM   19  N   UNL     1     -10.077   7.414  68.739  1.00  0.00    -0.174 NA 
BRANCH  19  20
HETATM   20  C   UNL     1      -9.689   8.141  67.508  1.00  0.00    -0.161 C  
BRANCH  20  21
HETATM   21  C   UNL     1      -8.165   8.291  67.354  1.00  0.00    -0.121 C  
BRANCH  21  22
HETATM   22  C   UNL     1      -7.606   9.430  68.207  1.00  0.00    -0.082 C  
BRANCH  22  23
HETATM   23  N   UNL     1      -8.060  10.779  67.805  1.00  0.00    -0.110 NA 
HETATM   24  C   UNL     1      -7.903  11.711  68.950  1.00  0.00    -0.040 C  
HETATM   25  C   UNL     1      -6.425  12.008  69.315  1.00  0.00    -0.111 C  
HETATM   26  N   UNL     1      -5.591  12.483  68.191  1.00  0.00    -0.061 NA 
HETATM   27  C   UNL     1      -5.814  11.649  66.989  1.00  0.00    -0.135 C  
HETATM   28  C   UNL     1      -5.864  13.891  67.906  1.00  0.00    -0.127 C  
HETATM   29  C   UNL     1      -7.299  11.345  66.671  1.00  0.00    -0.107 C  
ENDBRANCH  22  23
ENDBRANCH  21  22
ENDBRANCH  20  21
ENDBRANCH  19  20
ENDBRANCH   4   6
ENDBRANCH   3   4
ENDBRANCH   2   3
TORSDOF 7
ENDMDL
MODEL      132
REMARK 921   NORMALIZED FREE ENERGY PREDICTED BY IDOCK:   -4.27 KCAL/MOL
REMARK 922        TOTAL FREE ENERGY PREDICTED BY IDOCK:   -6.97 KCAL/MOL
REMARK 923 INTER-LIGAND FREE ENERGY PREDICTED BY IDOCK:   -6.21 KCAL/MOL
REMARK 924 INTRA-LIGAND FREE ENERGY PREDICTED BY IDOCK:   -0.76 KCAL/MOL
REMARK 927      BINDING AFFINITY PREDICTED BY RF-SCORE:    0.00 PKD
ROOT
HETATM    1  C   UNL     1      -5.605   6.443  67.043  1.00  0.00    -0.013 C  
HETATM    2  C   UNL     1      -5.640   6.361  65.524  1.00  0.00    -0.018 C  
ENDROOT
BRANCH   2   3
HETATM    3  C   UNL     1      -6.263   7.621  64.930  1.00  0.00    -0.038 C  
BRANCH   3   4
HETATM    4  C   UNL     1      -7.770   7.520  64.767  1.00  0.00    -0.117 C  
HETATM    5  O   UNL     1      -8.366   6.448  64.671  1.00  0.00    -0.109 OA 
BRANCH   4   6
HETATM    6  C   UNL     1      -8.554   8.793  64.773  1.00  0.00    -0.161 A  
HETATM    7  C   UNL     1      -8.971   9.328  66.003  1.00  0.00    -0.215 A  
HETATM    8  C   UNL     1      -9.678  10.553  66.115  1.00  0.00    -0.209 A  
HETATM    9  C   UNL     1      -9.968  11.202  64.901  1.00  0.00    -0.278 A  
HETATM   10  S   UNL     1     -10.831  12.742  64.773  1.00  0.00    -0.327 SA 
HETATM   11  C   UNL     1      -9.567  10.656  63.665  1.00  0.00    -0.360 A  
HETATM   12  C   UNL     1     -11.192  13.122  66.465  1.00  0.00    -0.310 A  
HETATM   13  C   UNL     1      -8.861   9.461  63.597  1.00  0.00    -0.198 A  
HETATM   14  C   UNL     1     -11.911  14.324  66.649  1.00  0.00    -0.454 A  
HETATM   15  C   UNL     1     -12.269  14.762  67.912  1.00  0.00    -0.017 A  
HETATM   16  C   UNL     1     -11.912  14.001  69.010  1.00  0.00    -0.392 A  
HETATM   17  C   UNL     1     -11.199  12.804  68.831  1.00  0.00    -0.332 A  
HETATM   18  C   UNL     1     -10.808  12.317  67.560  1.00  0.00    -0.234 A  
HETATM   19  N   UNL     1     -10.075  11.104  67.377  1.00  0.00    -0.182 NA 
BRANCH  19  20
HETATM   20  C   UNL     1      -9.636  10.353  68.577  1.00  0.00    -0.158 C  
BRANCH  20  21
HETATM   21  C   UNL     1     -10.623   9.246  68.987  1.00  0.00    -0.225 C  
BRANCH  21  22
HETATM   22  C   UNL     1     -10.484   8.861  70.460  1.00  0.00    -0.215 C  
BRANCH  22  23
HETATM   23  N   UNL     1      -9.945   7.505  70.693  1.00  0.00    -0.183 NA 
HETATM   24  C   UNL     1      -9.052   7.529  71.879  1.00  0.00    -0.129 C  
HETATM   25  C   UNL     1      -9.797   7.770  73.218  1.00  0.00    -0.299 C  
HETATM   26  N   UNL     1     -10.919   6.845  73.480  1.00  0.00    -0.218 NA 
HETATM   27  C   UNL     1     -11.766   6.698  72.275  1.00  0.00    -0.269 C  
HETATM   28  C   UNL     1     -10.420   5.544  73.926  1.00  0.00    -0.279 C  
HETATM   29  C   UNL     1     -10.989   6.491  70.952  1.00  0.00    -0.274 C  
ENDBRANCH  22  23
ENDBRANCH  21  22
ENDBRANCH  20  21
ENDBRANCH  19  20
ENDBRANCH   4   6
ENDBRANCH   3   4
ENDBRANCH   2   3
TORSDOF 7
ENDMDL
MODEL      133
REMARK 921   NORMALIZED FREE ENERGY PREDICTED BY IDOCK:   -4.23 KCAL/MOL
REMARK 922        TOTAL FREE ENERGY PREDICTED BY IDOCK:   -6.91 KCAL/MOL
REMARK 923 INTER-LIGAND FREE ENERGY PREDICTED BY IDOCK:   -6.45 KCAL/MOL
REMARK 924 INTRA-LIGAND FREE ENERGY PREDICTED BY IDOCK:   -0.46 KCAL/MOL
REMARK 927      BINDING AFFINITY PREDICTED BY RF-SCORE:    0.00 PKD
ROOT
HETATM    1  C   UNL     1     -11.963  16.083  72.465  1.00  0.00    -0.649 C  
HETATM    2  C   UNL     1     -12.915  15.432  71.472  1.00  0.00    -0.521 C  
ENDROOT
BRANCH   2   3
HETATM    3  C   UNL     1     -12.349  14.105  70.972  1.00  0.00    -0.438 C  
BRANCH   3   4
HETATM    4  C   UNL     1     -13.131  12.901  71.466  1.00  0.00    -0.298 C  
HETATM    5  O   UNL     1     -14.150  12.994  72.149  1.00  0.00    -0.327 OA 
BRANCH   4   6
HETATM    6  C   UNL     1     -12.649  11.547  71.054  1.00  0.00    -0.457 A  
HETATM    7  C   UNL     1     -12.006  11.404  69.812  1.00  0.00    -0.422 A  
HETATM    8  C   UNL     1     -11.475  10.172  69.353  1.00  0.00    -0.142 A  
HETATM    9  C   UNL     1     -11.653   9.072  70.214  1.00  0.00    -0.060 A  
HETATM   10  S   UNL     1     -11.076   7.434  69.874  1.00  0.00    -0.137 SA 
HETATM   11  C   UNL     1     -12.314   9.211  71.450  1.00  0.00    -0.404 A  
HETATM   12  C   UNL     1     -10.330   7.612  68.277  1.00  0.00    -0.198 A  
HETATM   13  C   UNL     1     -12.809  10.439  71.873  1.00  0.00    -0.519 A  
HETATM   14  C   UNL     1      -9.792   6.417  67.751  1.00  0.00    -0.136 A  
HETATM   15  C   UNL     1      -9.173   6.390  66.514  1.00  0.00    -0.174 A  
HETATM   16  C   UNL     1      -9.085   7.561  65.785  1.00  0.00    -0.020 A  
HETATM   17  C   UNL     1      -9.620   8.752  66.303  1.00  0.00    -0.328 A  
HETATM   18  C   UNL     1     -10.258   8.830  67.565  1.00  0.00    -0.246 A  
HETATM   19  N   UNL     1     -10.796  10.043  68.097  1.00  0.00    -0.256 NA 
BRANCH  19  20
HETATM   20  C   UNL     1     -10.613  11.296  67.329  1.00  0.00    -0.233 C  
BRANCH  20  21
HETATM   21  C   UNL     1      -9.858  12.380  68.119  1.00  0.00    -0.213 C  
BRANCH  21  22
HETATM   22  C   UNL     1      -8.341  12.220  68.018  1.00  0.00    -0.165 C  
BRANCH  22  23
HETATM   23  N   UNL     1      -7.586  12.779  69.159  1.00  0.00     0.158 NA 
HETATM   24  C   UNL     1      -6.131  12.691  68.876  1.00  0.00    -0.079 C  
HETATM   25  C   UNL     1      -5.658  13.631  67.737  1.00  0.00    -0.071 C  
HETATM   26  N   UNL     1      -6.028  15.052  67.911  1.00  0.00    -0.148 NA 
HETATM   27  C   UNL     1      -7.446  15.175  68.316  1.00  0.00    -0.109 C  
HETATM   28  C   UNL     1      -5.151  15.697  68.887  1.00  0.00    -0.099 C  
HETATM   29  C   UNL     1      -7.894  14.199  69.432  1.00  0.00     0.240 C  
ENDBRANCH  22  23
ENDBRANCH  21  22
ENDBRANCH  20  21
ENDBRANCH  19  20
ENDBRANCH   4   6
ENDBRANCH   3   4
ENDBRANCH   2   3
TORSDOF 7
ENDMDL
MODEL      134
REMARK 921   NORMALIZED FREE ENERGY PREDICTED BY IDOCK:   -4.21 KCAL/MOL
REMARK 922        TOTAL FREE ENERGY PREDICTED BY IDOCK:   -6.88 KCAL/MOL
REMARK 923 INTER-LIGAND FREE ENERGY PREDICTED BY IDOCK:   -6.28 KCAL/MOL
REMARK 924 INTRA-LIGAND FREE ENERGY PREDICTED BY IDOCK:   -0.60 KCAL/MOL
REMARK 927      BINDING AFFINITY PREDICTED BY RF-SCORE:    0.00 PKD
ROOT
HETATM    1  C   UNL     1      -5.983   8.226  70.947  1.00  0.00    -0.033 C  
HETATM    2  C   UNL     1      -7.201   9.042  71.354  1.00  0.00    -0.065 C  
ENDROOT
BRANCH   2   3
HETATM    3  C   UNL     1      -8.447   8.161  71.406  1.00  0.00    -0.154 C  
BRANCH   3   4
HETATM    4  C   UNL     1      -9.703   8.882  70.946  1.00  0.00    -0.239 C  
HETATM    5  O   UNL     1     -10.595   9.237  71.715  1.00  0.00    -0.355 OA 
BRANCH   4   6
HETATM    6  C   UNL     1      -9.821   9.206  69.491  1.00  0.00    -0.182 A  
HETATM    7  C   UNL     1     -10.583  10.322  69.104  1.00  0.00    -0.254 A  
HETATM    8  C   UNL     1     -10.716  10.737  67.754  1.00  0.00    -0.251 A  
HETATM    9  C   UNL     1     -10.054   9.940  66.803  1.00  0.00    -0.230 A  
HETATM   10  S   UNL     1     -10.061  10.250  65.060  1.00  0.00    -0.199 SA 
HETATM   11  C   UNL     1      -9.306   8.810  67.189  1.00  0.00    -0.188 A  
HETATM   12  C   UNL     1     -11.081  11.693  64.931  1.00  0.00    -0.253 A  
HETATM   13  C   UNL     1      -9.185   8.443  68.523  1.00  0.00    -0.135 A  
HETATM   14  C   UNL     1     -11.270  12.153  63.609  1.00  0.00    -0.540 A  
HETATM   15  C   UNL     1     -12.041  13.271  63.340  1.00  0.00    -0.508 A  
HETATM   16  C   UNL     1     -12.634  13.943  64.392  1.00  0.00    -0.213 A  
HETATM   17  C   UNL     1     -12.449  13.488  65.708  1.00  0.00    -0.514 A  
HETATM   18  C   UNL     1     -11.668  12.353  66.033  1.00  0.00    -0.410 A  
HETATM   19  N   UNL     1     -11.473  11.893  67.372  1.00  0.00    -0.402 NA 
BRANCH  19  20
HETATM   20  C   UNL     1     -12.054  12.682  68.484  1.00  0.00    -0.085 C  
BRANCH  20  21
HETATM   21  C   UNL     1     -11.000  13.495  69.258  1.00  0.00    -0.169 C  
BRANCH  21  22
HETATM   22  C   UNL     1     -10.494  14.696  68.460  1.00  0.00    -0.247 C  
BRANCH  22  23
HETATM   23  N   UNL     1      -9.369  14.399  67.548  1.00  0.00    -0.193 NA 
HETATM   24  C   UNL     1      -8.508  15.603  67.422  1.00  0.00    -0.172 C  
HETATM   25  C   UNL     1      -7.734  15.956  68.719  1.00  0.00    -0.181 C  
HETATM   26  N   UNL     1      -6.934  14.849  69.286  1.00  0.00    -0.138 NA 
HETATM   27  C   UNL     1      -7.722  13.597  69.312  1.00  0.00     0.296 C  
HETATM   28  C   UNL     1      -5.696  14.669  68.528  1.00  0.00    -0.099 C  
HETATM   29  C   UNL     1      -8.508  13.291  68.013  1.00  0.00    -0.170 C  
ENDBRANCH  22  23
ENDBRANCH  21  22
ENDBRANCH  20  21
ENDBRANCH  19  20
ENDBRANCH   4   6
ENDBRANCH   3   4
ENDBRANCH   2   3
TORSDOF 7
ENDMDL
MODEL      135
REMARK 921   NORMALIZED FREE ENERGY PREDICTED BY IDOCK:   -4.20 KCAL/MOL
REMARK 922        TOTAL FREE ENERGY PREDICTED BY IDOCK:   -6.88 KCAL/MOL
REMARK 923 INTER-LIGAND FREE ENERGY PREDICTED BY IDOCK:   -5.97 KCAL/MOL
REMARK 924 INTRA-LIGAND FREE ENERGY PREDICTED BY IDOCK:   -0.91 KCAL/MOL
REMARK 927      BINDING AFFINITY PREDICTED BY RF-SCORE:    0.00 PKD
ROOT
HETATM    1  C   UNL     1      -8.104   7.999  70.758  1.00  0.00    -0.101 C  
HETATM    2  C   UNL     1      -6.605   7.951  70.507  1.00  0.00    -0.037 C  
ENDROOT
BRANCH   2   3
HETATM    3  C   UNL     1      -6.177   9.080  69.573  1.00  0.00    -0.040 C  
BRANCH   3   4
HETATM    4  C   UNL     1      -6.367  10.459  70.181  1.00  0.00    -0.123 C  
HETATM    5  O   UNL     1      -6.023  10.742  71.327  1.00  0.00    -0.349 OA 
BRANCH   4   6
HETATM    6  C   UNL     1      -6.962  11.521  69.313  1.00  0.00    -0.098 A  
HETATM    7  C   UNL     1      -8.132  11.232  68.590  1.00  0.00    -0.145 A  
HETATM    8  C   UNL     1      -8.796  12.186  67.777  1.00  0.00    -0.172 A  
HETATM    9  C   UNL     1      -8.193  13.455  67.711  1.00  0.00    -0.172 A  
HETATM   10  S   UNL     1      -8.828  14.816  66.774  1.00  0.00    -0.228 SA 
HETATM   11  C   UNL     1      -7.009  13.741  68.421  1.00  0.00    -0.103 A  
HETATM   12  C   UNL     1     -10.270  14.120  66.016  1.00  0.00    -0.308 A  
HETATM   13  C   UNL     1      -6.396  12.784  69.220  1.00  0.00    -0.108 A  
HETATM   14  C   UNL     1     -10.973  15.014  65.178  1.00  0.00    -0.417 A  
HETATM   15  C   UNL     1     -12.123  14.623  64.514  1.00  0.00    -0.490 A  
HETATM   16  C   UNL     1     -12.584  13.330  64.680  1.00  0.00    -0.354 A  
HETATM   17  C   UNL     1     -11.887  12.438  65.511  1.00  0.00    -0.469 A  
HETATM   18  C   UNL     1     -10.710  12.792  66.213  1.00  0.00    -0.270 A  
HETATM   19  N   UNL     1     -10.004  11.888  67.066  1.00  0.00    -0.201 NA 
BRANCH  19  20
HETATM   20  C   UNL     1     -10.569  10.536  67.288  1.00  0.00    -0.264 C  
BRANCH  20  21
HETATM   21  C   UNL     1      -9.823   9.439  66.509  1.00  0.00    -0.325 C  
BRANCH  21  22
HETATM   22  C   UNL     1     -10.333   8.038  66.849  1.00  0.00    -0.338 C  
BRANCH  22  23
HETATM   23  N   UNL     1      -9.321   7.145  67.453  1.00  0.00    -0.125 NA 
HETATM   24  C   UNL     1     -10.000   5.974  68.062  1.00  0.00    -0.142 C  
HETATM   25  C   UNL     1     -10.641   5.014  67.025  1.00  0.00    -0.078 C  
HETATM   26  N   UNL     1      -9.723   4.541  65.967  1.00  0.00    -0.189 NA 
HETATM   27  C   UNL     1      -8.935   5.668  65.419  1.00  0.00    -0.069 C  
HETATM   28  C   UNL     1      -8.843   3.492  66.480  1.00  0.00    -0.133 C  
HETATM   29  C   UNL     1      -8.337   6.624  66.480  1.00  0.00    -0.117 C  
ENDBRANCH  22  23
ENDBRANCH  21  22
ENDBRANCH  20  21
ENDBRANCH  19  20
ENDBRANCH   4   6
ENDBRANCH   3   4
ENDBRANCH   2   3
TORSDOF 7
ENDMDL
MODEL      136
REMARK 921   NORMALIZED FREE ENERGY PREDICTED BY IDOCK:   -4.18 KCAL/MOL
REMARK 922        TOTAL FREE ENERGY PREDICTED BY IDOCK:   -6.84 KCAL/MOL
REMARK 923 INTER-LIGAND FREE ENERGY PREDICTED BY IDOCK:   -6.37 KCAL/MOL
REMARK 924 INTRA-LIGAND FREE ENERGY PREDICTED BY IDOCK:   -0.47 KCAL/MOL
REMARK 927      BINDING AFFINITY PREDICTED BY RF-SCORE:    0.00 PKD
ROOT
HETATM    1  C   UNL     1      -5.149   6.723  70.277  1.00  0.00    -0.015 C  
HETATM    2  C   UNL     1      -5.358   7.910  69.349  1.00  0.00    -0.026 C  
ENDROOT
BRANCH   2   3
HETATM    3  C   UNL     1      -6.705   8.576  69.619  1.00  0.00    -0.040 C  
BRANCH   3   4
HETATM    4  C   UNL     1      -7.858   7.898  68.898  1.00  0.00    -0.117 C  
HETATM    5  O   UNL     1      -8.338   6.824  69.257  1.00  0.00    -0.123 OA 
BRANCH   4   6
HETATM    6  C   UNL     1      -8.454   8.610  67.726  1.00  0.00    -0.125 A  
HETATM    7  C   UNL     1      -9.183   9.791  67.947  1.00  0.00    -0.133 A  
HETATM    8  C   UNL     1      -9.747  10.560  66.898  1.00  0.00    -0.180 A  
HETATM    9  C   UNL     1      -9.556  10.053  65.599  1.00  0.00    -0.252 A  
HETATM   10  S   UNL     1     -10.154  10.829  64.125  1.00  0.00    -0.338 SA 
HETATM   11  C   UNL     1      -8.842   8.859  65.378  1.00  0.00    -0.234 A  
HETATM   12  C   UNL     1     -10.997  12.254  64.756  1.00  0.00    -0.303 A  
HETATM   13  C   UNL     1      -8.290   8.140  66.431  1.00  0.00    -0.115 A  
HETATM   14  C   UNL     1     -11.597  13.060  63.763  1.00  0.00    -0.517 A  
HETATM   15  C   UNL     1     -12.292  14.211  64.093  1.00  0.00    -0.372 A  
HETATM   16  C   UNL     1     -12.395  14.570  65.425  1.00  0.00    -0.286 A  
HETATM   17  C   UNL     1     -11.801  13.771  66.414  1.00  0.00    -0.434 A  
HETATM   18  C   UNL     1     -11.078  12.588  66.126  1.00  0.00    -0.298 A  
HETATM   19  N   UNL     1     -10.465  11.779  67.132  1.00  0.00    -0.215 NA 
BRANCH  19  20
HETATM   20  C   UNL     1     -10.523  12.234  68.541  1.00  0.00    -0.232 C  
BRANCH  20  21
HETATM   21  C   UNL     1     -11.805  11.785  69.265  1.00  0.00    -0.389 C  
BRANCH  21  22
HETATM   22  C   UNL     1     -11.821  10.281  69.536  1.00  0.00    -0.077 C  
BRANCH  22  23
HETATM   23  N   UNL     1     -11.483   9.903  70.925  1.00  0.00    -0.347 NA 
HETATM   24  C   UNL     1     -12.734   9.655  71.685  1.00  0.00    -0.407 C  
HETATM   25  C   UNL     1     -13.503   8.389  71.227  1.00  0.00    -0.120 C  
HETATM   26  N   UNL     1     -12.700   7.148  71.206  1.00  0.00    -0.384 NA 
HETATM   27  C   UNL     1     -11.388   7.387  70.564  1.00  0.00    -0.271 C  
HETATM   28  C   UNL     1     -12.528   6.624  72.561  1.00  0.00     0.211 C  
HETATM   29  C   UNL     1     -10.663   8.676  71.020  1.00  0.00    -0.228 C  
ENDBRANCH  22  23
ENDBRANCH  21  22
ENDBRANCH  20  21
ENDBRANCH  19  20
ENDBRANCH   4   6
ENDBRANCH   3   4
ENDBRANCH   2   3
TORSDOF 7
ENDMDL
MODEL      137
REMARK 921   NORMALIZED FREE ENERGY PREDICTED BY IDOCK:   -4.18 KCAL/MOL
REMARK 922        TOTAL FREE ENERGY PREDICTED BY IDOCK:   -6.84 KCAL/MOL
REMARK 923 INTER-LIGAND FREE ENERGY PREDICTED BY IDOCK:   -6.10 KCAL/MOL
REMARK 924 INTRA-LIGAND FREE ENERGY PREDICTED BY IDOCK:   -0.74 KCAL/MOL
REMARK 927      BINDING AFFINITY PREDICTED BY RF-SCORE:    0.00 PKD
ROOT
HETATM    1  C   UNL     1      -9.233  14.977  66.727  1.00  0.00    -0.280 C  
HETATM    2  C   UNL     1     -10.445  14.062  66.824  1.00  0.00    -0.277 C  
ENDROOT
BRANCH   2   3
HETATM    3  C   UNL     1     -10.204  12.952  67.843  1.00  0.00    -0.233 C  
BRANCH   3   4
HETATM    4  C   UNL     1     -10.914  11.656  67.490  1.00  0.00    -0.259 C  
HETATM    5  O   UNL     1     -12.106  11.457  67.720  1.00  0.00    -0.637 OA 
BRANCH   4   6
HETATM    6  C   UNL     1     -10.119  10.602  66.788  1.00  0.00    -0.272 A  
HETATM    7  C   UNL     1     -10.385   9.251  67.070  1.00  0.00    -0.325 A  
HETATM    8  C   UNL     1      -9.717   8.180  66.423  1.00  0.00    -0.205 A  
HETATM    9  C   UNL     1      -8.737   8.550  65.485  1.00  0.00    -0.174 A  
HETATM   10  S   UNL     1      -7.772   7.404  64.542  1.00  0.00    -0.131 SA 
HETATM   11  C   UNL     1      -8.456   9.904  65.216  1.00  0.00    -0.158 A  
HETATM   12  C   UNL     1      -8.355   5.837  65.130  1.00  0.00    -0.146 A  
HETATM   13  C   UNL     1      -9.143  10.927  65.858  1.00  0.00    -0.212 A  
HETATM   14  C   UNL     1      -7.720   4.723  64.537  1.00  0.00    -0.082 A  
HETATM   15  C   UNL     1      -8.064   3.429  64.888  1.00  0.00    -0.090 A  
HETATM   16  C   UNL     1      -9.050   3.233  65.838  1.00  0.00    -0.152 A  
HETATM   17  C   UNL     1      -9.682   4.338  66.430  1.00  0.00    -0.228 A  
HETATM   18  C   UNL     1      -9.367   5.679  66.102  1.00  0.00    -0.153 A  
HETATM   19  N   UNL     1     -10.016   6.805  66.698  1.00  0.00    -0.169 NA 
BRANCH  19  20
HETATM   20  C   UNL     1     -11.123   6.561  67.652  1.00  0.00    -0.287 C  
BRANCH  20  21
HETATM   21  C   UNL     1     -10.641   6.007  69.004  1.00  0.00    -0.357 C  
BRANCH  21  22
HETATM   22  C   UNL     1     -10.872   6.992  70.150  1.00  0.00    -0.256 C  
BRANCH  22  23
HETATM   23  N   UNL     1      -9.796   7.021  71.163  1.00  0.00    -0.177 NA 
HETATM   24  C   UNL     1      -8.534   6.528  70.553  1.00  0.00    -0.138 C  
HETATM   25  C   UNL     1      -7.941   7.483  69.485  1.00  0.00    -0.126 C  
HETATM   26  N   UNL     1      -7.744   8.876  69.938  1.00  0.00    -0.071 NA 
HETATM   27  C   UNL     1      -8.939   9.363  70.663  1.00  0.00    -0.228 C  
HETATM   28  C   UNL     1      -6.550   8.980  70.777  1.00  0.00    -0.063 C  
HETATM   29  C   UNL     1      -9.524   8.372  71.699  1.00  0.00    -0.214 C  
ENDBRANCH  22  23
ENDBRANCH  21  22
ENDBRANCH  20  21
ENDBRANCH  19  20
ENDBRANCH   4   6
ENDBRANCH   3   4
ENDBRANCH   2   3
TORSDOF 7
ENDMDL
MODEL      138
REMARK 921   NORMALIZED FREE ENERGY PREDICTED BY IDOCK:   -4.15 KCAL/MOL
REMARK 922        TOTAL FREE ENERGY PREDICTED BY IDOCK:   -6.80 KCAL/MOL
REMARK 923 INTER-LIGAND FREE ENERGY PREDICTED BY IDOCK:   -6.54 KCAL/MOL
REMARK 924 INTRA-LIGAND FREE ENERGY PREDICTED BY IDOCK:   -0.26 KCAL/MOL
REMARK 927      BINDING AFFINITY PREDICTED BY RF-SCORE:    0.00 PKD
ROOT
HETATM    1  C   UNL     1      -6.186   5.475  66.837  1.00  0.00    -0.035 C  
HETATM    2  C   UNL     1      -6.295   6.729  67.690  1.00  0.00    -0.044 C  
ENDROOT
BRANCH   2   3
HETATM    3  C   UNL     1      -7.757   7.054  67.990  1.00  0.00    -0.113 C  
BRANCH   3   4
HETATM    4  C   UNL     1      -8.425   7.856  66.887  1.00  0.00    -0.128 C  
HETATM    5  O   UNL     1      -9.060   7.340  65.968  1.00  0.00    -0.153 OA 
BRANCH   4   6
HETATM    6  C   UNL     1      -8.334   9.347  66.963  1.00  0.00    -0.127 A  
HETATM    7  C   UNL     1      -9.427  10.068  67.472  1.00  0.00    -0.169 A  
HETATM    8  C   UNL     1      -9.419  11.478  67.627  1.00  0.00    -0.168 A  
HETATM    9  C   UNL     1      -8.244  12.131  67.210  1.00  0.00    -0.180 A  
HETATM   10  S   UNL     1      -7.985  13.879  67.306  1.00  0.00    -0.070 SA 
HETATM   11  C   UNL     1      -7.156  11.410  66.682  1.00  0.00    -0.103 A  
HETATM   12  C   UNL     1      -9.517  14.459  67.981  1.00  0.00    -0.209 A  
HETATM   13  C   UNL     1      -7.194  10.026  66.560  1.00  0.00    -0.101 A  
HETATM   14  C   UNL     1      -9.584  15.860  68.147  1.00  0.00    -0.208 A  
HETATM   15  C   UNL     1     -10.714  16.469  68.665  1.00  0.00    -0.334 A  
HETATM   16  C   UNL     1     -11.794  15.682  69.022  1.00  0.00    -0.379 A  
HETATM   17  C   UNL     1     -11.731  14.290  68.856  1.00  0.00    -0.363 A  
HETATM   18  C   UNL     1     -10.597  13.621  68.335  1.00  0.00    -0.251 A  
HETATM   19  N   UNL     1     -10.530  12.202  68.174  1.00  0.00    -0.205 NA 
BRANCH  19  20
HETATM   20  C   UNL     1     -11.670  11.380  68.642  1.00  0.00    -0.329 C  
BRANCH  20  21
HETATM   21  C   UNL     1     -11.331  10.532  69.880  1.00  0.00    -0.380 C  
BRANCH  21  22
HETATM   22  C   UNL     1     -12.543  10.322  70.788  1.00  0.00    -0.352 C  
BRANCH  22  23
HETATM   23  N   UNL     1     -12.247   9.622  72.056  1.00  0.00    -0.323 NA 
HETATM   24  C   UNL     1     -13.277   8.578  72.292  1.00  0.00    -0.327 C  
HETATM   25  C   UNL     1     -13.207   7.394  71.294  1.00  0.00    -0.281 C  
HETATM   26  N   UNL     1     -11.882   6.747  71.189  1.00  0.00    -0.343 NA 
HETATM   27  C   UNL     1     -10.813   7.764  71.076  1.00  0.00    -0.239 C  
HETATM   28  C   UNL     1     -11.646   5.869  72.336  1.00  0.00    -0.288 C  
HETATM   29  C   UNL     1     -10.931   8.948  72.067  1.00  0.00    -0.342 C  
ENDBRANCH  22  23
ENDBRANCH  21  22
ENDBRANCH  20  21
ENDBRANCH  19  20
ENDBRANCH   4   6
ENDBRANCH   3   4
ENDBRANCH   2   3
TORSDOF 7
ENDMDL
MODEL      139
REMARK 921   NORMALIZED FREE ENERGY PREDICTED BY IDOCK:   -4.10 KCAL/MOL
REMARK 922        TOTAL FREE ENERGY PREDICTED BY IDOCK:   -6.73 KCAL/MOL
REMARK 923 INTER-LIGAND FREE ENERGY PREDICTED BY IDOCK:   -6.96 KCAL/MOL
REMARK 924 INTRA-LIGAND FREE ENERGY PREDICTED BY IDOCK:    0.23 KCAL/MOL
REMARK 927      BINDING AFFINITY PREDICTED BY RF-SCORE:    0.00 PKD
ROOT
HETATM    1  C   UNL     1      -6.368  15.435  69.057  1.00  0.00    -0.110 C  
HETATM    2  C   UNL     1      -7.271  14.212  69.109  1.00  0.00    -0.086 C  
ENDROOT
BRANCH   2   3
HETATM    3  C   UNL     1      -6.444  12.928  69.079  1.00  0.00    -0.103 C  
BRANCH   3   4
HETATM    4  C   UNL     1      -6.987  11.894  68.108  1.00  0.00    -0.078 C  
HETATM    5  O   UNL     1      -6.771  11.930  66.897  1.00  0.00    -0.138 OA 
BRANCH   4   6
HETATM    6  C   UNL     1      -7.780  10.761  68.675  1.00  0.00    -0.114 A  
HETATM    7  C   UNL     1      -9.058  11.022  69.198  1.00  0.00    -0.006 A  
HETATM    8  C   UNL     1      -9.905  10.009  69.716  1.00  0.00    -0.235 A  
HETATM    9  C   UNL     1      -9.374   8.706  69.702  1.00  0.00    -0.161 A  
HETATM   10  S   UNL     1     -10.232   7.271  70.284  1.00  0.00    -0.201 SA 
HETATM   11  C   UNL     1      -8.085   8.446  69.196  1.00  0.00    -0.119 A  
HETATM   12  C   UNL     1     -11.769   7.946  70.852  1.00  0.00    -0.257 A  
HETATM   13  C   UNL     1      -7.291   9.464  68.682  1.00  0.00    -0.075 A  
HETATM   14  C   UNL     1     -12.656   6.992  71.396  1.00  0.00    -0.428 A  
HETATM   15  C   UNL     1     -13.900   7.359  71.881  1.00  0.00    -0.352 A  
HETATM   16  C   UNL     1     -14.270   8.690  71.828  1.00  0.00    -0.490 A  
HETATM   17  C   UNL     1     -13.391   9.643  71.289  1.00  0.00    -0.403 A  
HETATM   18  C   UNL     1     -12.111   9.315  70.778  1.00  0.00    -0.171 A  
HETATM   19  N   UNL     1     -11.218  10.282  70.221  1.00  0.00    -0.303 NA 
BRANCH  19  20
HETATM   20  C   UNL     1     -11.677  11.686  70.104  1.00  0.00    -0.296 C  
BRANCH  20  21
HETATM   21  C   UNL     1     -11.039  12.429  68.917  1.00  0.00    -0.307 C  
BRANCH  21  22
HETATM   22  C   UNL     1     -12.083  12.943  67.926  1.00  0.00    -0.157 C  
BRANCH  22  23
HETATM   23  N   UNL     1     -11.535  13.760  66.823  1.00  0.00    -0.333 NA 
HETATM   24  C   UNL     1     -10.222  13.206  66.407  1.00  0.00    -0.286 C  
HETATM   25  C   UNL     1     -10.319  11.823  65.712  1.00  0.00    -0.253 C  
HETATM   26  N   UNL     1     -11.248  11.769  64.564  1.00  0.00    -0.321 NA 
HETATM   27  C   UNL     1     -12.531  12.426  64.901  1.00  0.00    -0.361 C  
HETATM   28  C   UNL     1     -10.644  12.385  63.383  1.00  0.00    -0.332 C  
HETATM   29  C   UNL     1     -12.398  13.789  65.623  1.00  0.00    -0.482 C  
ENDBRANCH  22  23
ENDBRANCH  21  22
ENDBRANCH  20  21
ENDBRANCH  19  20
ENDBRANCH   4   6
ENDBRANCH   3   4
ENDBRANCH   2   3
TORSDOF 7
ENDMDL
MODEL      140
REMARK 921   NORMALIZED FREE ENERGY PREDICTED BY IDOCK:   -4.04 KCAL/MOL
REMARK 922        TOTAL FREE ENERGY PREDICTED BY IDOCK:   -6.65 KCAL/MOL
REMARK 923 INTER-LIGAND FREE ENERGY PREDICTED BY IDOCK:   -5.84 KCAL/MOL
REMARK 924 INTRA-LIGAND FREE ENERGY PREDICTED BY IDOCK:   -0.80 KCAL/MOL
REMARK 927      BINDING AFFINITY PREDICTED BY RF-SCORE:    0.00 PKD
ROOT
HETATM    1  C   UNL     1      -9.837   5.079  68.645  1.00  0.00    -0.227 C  
HETATM    2  C   UNL     1      -8.738   5.694  69.499  1.00  0.00    -0.109 C  
ENDROOT
BRANCH   2   3
HETATM    3  C   UNL     1      -8.244   7.001  68.883  1.00  0.00    -0.122 C  
BRANCH   3   4
HETATM    4  C   UNL     1      -7.786   6.844  67.443  1.00  0.00    -0.111 C  
HETATM    5  O   UNL     1      -7.076   5.915  67.060  1.00  0.00    -0.067 OA 
BRANCH   4   6
HETATM    6  C   UNL     1      -8.270   7.851  66.450  1.00  0.00    -0.121 A  
HETATM    7  C   UNL     1      -9.237   8.789  66.850  1.00  0.00    -0.195 A  
HETATM    8  C   UNL     1      -9.724   9.811  65.996  1.00  0.00    -0.255 A  
HETATM    9  C   UNL     1      -9.195   9.819  64.691  1.00  0.00    -0.255 A  
HETATM   10  S   UNL     1      -9.635  10.993  63.442  1.00  0.00    -0.368 SA 
HETATM   11  C   UNL     1      -8.240   8.867  64.284  1.00  0.00    -0.169 A  
HETATM   12  C   UNL     1     -10.836  12.001  64.267  1.00  0.00    -0.339 A  
HETATM   13  C   UNL     1      -7.775   7.889  65.155  1.00  0.00    -0.103 A  
HETATM   14  C   UNL     1     -11.376  13.033  63.467  1.00  0.00    -0.319 A  
HETATM   15  C   UNL     1     -12.325  13.908  63.966  1.00  0.00    -0.355 A  
HETATM   16  C   UNL     1     -12.747  13.761  65.275  1.00  0.00    -0.481 A  
HETATM   17  C   UNL     1     -12.213  12.736  66.073  1.00  0.00    -0.380 A  
HETATM   18  C   UNL     1     -11.239  11.819  65.609  1.00  0.00    -0.267 A  
HETATM   19  N   UNL     1     -10.690  10.781  66.423  1.00  0.00    -0.205 NA 
BRANCH  19  20
HETATM   20  C   UNL     1     -11.101  10.701  67.844  1.00  0.00    -0.308 C  
BRANCH  20  21
HETATM   21  C   UNL     1     -10.069  11.318  68.804  1.00  0.00    -0.204 C  
BRANCH  21  22
HETATM   22  C   UNL     1     -10.705  12.306  69.781  1.00  0.00     0.602 C  
BRANCH  22  23
HETATM   23  N   UNL     1     -12.101  12.676  69.463  1.00  0.00    -0.240 NA 
HETATM   24  C   UNL     1     -12.990  12.230  70.565  1.00  0.00     0.311 C  
HETATM   25  C   UNL     1     -12.787  13.014  71.888  1.00  0.00    -0.211 C  
HETATM   26  N   UNL     1     -12.879  14.483  71.760  1.00  0.00    -0.327 NA 
HETATM   27  C   UNL     1     -12.101  14.954  70.592  1.00  0.00    -0.307 C  
HETATM   28  C   UNL     1     -14.276  14.905  71.658  1.00  0.00    -0.542 C  
HETATM   29  C   UNL     1     -12.303  14.131  69.297  1.00  0.00    -0.169 C  
ENDBRANCH  22  23
ENDBRANCH  21  22
ENDBRANCH  20  21
ENDBRANCH  19  20
ENDBRANCH   4   6
ENDBRANCH   3   4
ENDBRANCH   2   3
TORSDOF 7
ENDMDL
MODEL      141
REMARK 921   NORMALIZED FREE ENERGY PREDICTED BY IDOCK:   -4.03 KCAL/MOL
REMARK 922        TOTAL FREE ENERGY PREDICTED BY IDOCK:   -6.63 KCAL/MOL
REMARK 923 INTER-LIGAND FREE ENERGY PREDICTED BY IDOCK:   -5.86 KCAL/MOL
REMARK 924 INTRA-LIGAND FREE ENERGY PREDICTED BY IDOCK:   -0.77 KCAL/MOL
REMARK 927      BINDING AFFINITY PREDICTED BY RF-SCORE:    0.00 PKD
ROOT
HETATM    1  C   UNL     1     -10.653   3.418  74.376  1.00  0.00    -0.224 C  
HETATM    2  C   UNL     1     -10.593   4.919  74.132  1.00  0.00    -0.345 C  
ENDROOT
BRANCH   2   3
HETATM    3  C   UNL     1     -11.396   5.297  72.890  1.00  0.00    -0.368 C  
BRANCH   3   4
HETATM    4  C   UNL     1     -10.529   5.822  71.759  1.00  0.00    -0.228 C  
HETATM    5  O   UNL     1     -10.121   6.981  71.705  1.00  0.00    -0.185 OA 
BRANCH   4   6
HETATM    6  C   UNL     1     -10.126   4.855  70.691  1.00  0.00    -0.306 A  
HETATM    7  C   UNL     1     -10.297   5.221  69.345  1.00  0.00    -0.313 A  
HETATM    8  C   UNL     1      -9.904   4.393  68.262  1.00  0.00    -0.064 A  
HETATM    9  C   UNL     1      -9.347   3.150  68.616  1.00  0.00    -0.171 A  
HETATM   10  S   UNL     1      -8.773   1.946  67.454  1.00  0.00    -0.117 SA 
HETATM   11  C   UNL     1      -9.193   2.776  69.966  1.00  0.00    -0.205 A  
HETATM   12  C   UNL     1      -9.125   2.714  65.897  1.00  0.00    -0.113 A  
HETATM   13  C   UNL     1      -9.576   3.620  71.000  1.00  0.00    -0.246 A  
HETATM   14  C   UNL     1      -8.772   1.936  64.772  1.00  0.00    -0.103 A  
HETATM   15  C   UNL     1      -8.982   2.397  63.484  1.00  0.00    -0.092 A  
HETATM   16  C   UNL     1      -9.549   3.645  63.305  1.00  0.00    -0.128 A  
HETATM   17  C   UNL     1      -9.903   4.421  64.421  1.00  0.00    -0.040 A  
HETATM   18  C   UNL     1      -9.705   3.995  65.756  1.00  0.00    -0.190 A  
HETATM   19  N   UNL     1     -10.057   4.787  66.893  1.00  0.00    -0.216 NA 
BRANCH  19  20
HETATM   20  C   UNL     1     -10.587   6.152  66.668  1.00  0.00    -0.228 C  
BRANCH  20  21
HETATM   21  C   UNL     1      -9.487   7.228  66.649  1.00  0.00    -0.228 C  
BRANCH  21  22
HETATM   22  C   UNL     1     -10.059   8.643  66.740  1.00  0.00    -0.296 C  
BRANCH  22  23
HETATM   23  N   UNL     1      -9.235   9.683  66.086  1.00  0.00    -0.163 NA 
HETATM   24  C   UNL     1     -10.125  10.719  65.505  1.00  0.00    -0.274 C  
HETATM   25  C   UNL     1     -10.867  11.573  66.565  1.00  0.00    -0.288 C  
HETATM   26  N   UNL     1      -9.993  12.203  67.578  1.00  0.00    -0.196 NA 
HETATM   27  C   UNL     1      -9.006  11.228  68.093  1.00  0.00    -0.166 C  
HETATM   28  C   UNL     1      -9.321  13.376  67.019  1.00  0.00    -0.243 C  
HETATM   29  C   UNL     1      -8.308  10.370  67.010  1.00  0.00    -0.127 C  
ENDBRANCH  22  23
ENDBRANCH  21  22
ENDBRANCH  20  21
ENDBRANCH  19  20
ENDBRANCH   4   6
ENDBRANCH   3   4
ENDBRANCH   2   3
TORSDOF 7
ENDMDL
MODEL      142
REMARK 921   NORMALIZED FREE ENERGY PREDICTED BY IDOCK:   -4.02 KCAL/MOL
REMARK 922        TOTAL FREE ENERGY PREDICTED BY IDOCK:   -6.62 KCAL/MOL
REMARK 923 INTER-LIGAND FREE ENERGY PREDICTED BY IDOCK:   -6.03 KCAL/MOL
REMARK 924 INTRA-LIGAND FREE ENERGY PREDICTED BY IDOCK:   -0.60 KCAL/MOL
REMARK 927      BINDING AFFINITY PREDICTED BY RF-SCORE:    0.00 PKD
ROOT
HETATM    1  C   UNL     1     -10.635  13.410  68.313  1.00  0.00    -0.264 C  
HETATM    2  C   UNL     1     -11.805  12.806  69.076  1.00  0.00    -0.344 C  
ENDROOT
BRANCH   2   3
HETATM    3  C   UNL     1     -11.618  11.300  69.248  1.00  0.00    -0.390 C  
BRANCH   3   4
HETATM    4  C   UNL     1     -12.122  10.787  70.585  1.00  0.00    -0.370 C  
HETATM    5  O   UNL     1     -12.853  11.444  71.326  1.00  0.00    -0.403 OA 
BRANCH   4   6
HETATM    6  C   UNL     1     -11.739   9.398  70.982  1.00  0.00    -0.395 A  
HETATM    7  C   UNL     1     -11.333   8.494  69.985  1.00  0.00    -0.009 A  
HETATM    8  C   UNL     1     -10.908   7.171  70.266  1.00  0.00    -0.249 A  
HETATM    9  C   UNL     1     -10.939   6.796  71.622  1.00  0.00    -0.235 A  
HETATM   10  S   UNL     1     -10.451   5.207  72.230  1.00  0.00    -0.217 SA 
HETATM   11  C   UNL     1     -11.363   7.695  72.620  1.00  0.00    -0.423 A  
HETATM   12  C   UNL     1     -10.006   4.347  70.747  1.00  0.00    -0.177 A  
HETATM   13  C   UNL     1     -11.759   8.989  72.307  1.00  0.00    -0.283 A  
HETATM   14  C   UNL     1      -9.586   3.014  70.952  1.00  0.00    -0.215 A  
HETATM   15  C   UNL     1      -9.202   2.210  69.893  1.00  0.00    -0.182 A  
HETATM   16  C   UNL     1      -9.235   2.730  68.613  1.00  0.00    -0.238 A  
HETATM   17  C   UNL     1      -9.653   4.053  68.404  1.00  0.00    -0.186 A  
HETATM   18  C   UNL     1     -10.051   4.916  69.454  1.00  0.00    -0.200 A  
HETATM   19  N   UNL     1     -10.470   6.266  69.244  1.00  0.00    -0.218 NA 
BRANCH  19  20
HETATM   20  C   UNL     1     -10.415   6.819  67.871  1.00  0.00    -0.218 C  
BRANCH  20  21
HETATM   21  C   UNL     1      -9.021   7.346  67.490  1.00  0.00    -0.126 C  
BRANCH  21  22
HETATM   22  C   UNL     1      -8.901   8.858  67.680  1.00  0.00    -0.134 C  
BRANCH  22  23
HETATM   23  N   UNL     1      -9.357   9.661  66.525  1.00  0.00    -0.157 NA 
HETATM   24  C   UNL     1      -8.541  10.899  66.435  1.00  0.00    -0.160 C  
HETATM   25  C   UNL     1      -7.064  10.646  66.036  1.00  0.00    -0.127 C  
HETATM   26  N   UNL     1      -6.881   9.858  64.798  1.00  0.00    -0.123 NA 
HETATM   27  C   UNL     1      -7.773   8.677  64.796  1.00  0.00    -0.108 C  
HETATM   28  C   UNL     1      -7.118  10.690  63.619  1.00  0.00     0.218 C  
HETATM   29  C   UNL     1      -9.232   8.959  65.230  1.00  0.00    -0.091 C  
ENDBRANCH  22  23
ENDBRANCH  21  22
ENDBRANCH  20  21
ENDBRANCH  19  20
ENDBRANCH   4   6
ENDBRANCH   3   4
ENDBRANCH   2   3
TORSDOF 7
ENDMDL
MODEL      143
REMARK 921   NORMALIZED FREE ENERGY PREDICTED BY IDOCK:   -4.01 KCAL/MOL
REMARK 922        TOTAL FREE ENERGY PREDICTED BY IDOCK:   -6.60 KCAL/MOL
REMARK 923 INTER-LIGAND FREE ENERGY PREDICTED BY IDOCK:   -6.08 KCAL/MOL
REMARK 924 INTRA-LIGAND FREE ENERGY PREDICTED BY IDOCK:   -0.52 KCAL/MOL
REMARK 927      BINDING AFFINITY PREDICTED BY RF-SCORE:    0.00 PKD
ROOT
HETATM    1  C   UNL     1     -10.800   2.708  63.453  1.00  0.00    -0.216 C  
HETATM    2  C   UNL     1      -9.377   2.542  63.964  1.00  0.00    -0.123 C  
ENDROOT
BRANCH   2   3
HETATM    3  C   UNL     1      -8.477   3.652  63.424  1.00  0.00    -0.090 C  
BRANCH   3   4
HETATM    4  C   UNL     1      -8.264   4.780  64.419  1.00  0.00    -0.116 C  
HETATM    5  O   UNL     1      -7.994   5.932  64.083  1.00  0.00    -0.114 OA 
BRANCH   4   6
HETATM    6  C   UNL     1      -8.440   4.465  65.870  1.00  0.00    -0.114 A  
HETATM    7  C   UNL     1      -9.253   5.301  66.653  1.00  0.00    -0.130 A  
HETATM    8  C   UNL     1      -9.518   5.060  68.025  1.00  0.00    -0.131 A  
HETATM    9  C   UNL     1      -8.888   3.930  68.578  1.00  0.00    -0.109 A  
HETATM   10  S   UNL     1      -9.063   3.412  70.261  1.00  0.00    -0.147 SA 
HETATM   11  C   UNL     1      -8.056   3.102  67.798  1.00  0.00    -0.082 A  
HETATM   12  C   UNL     1     -10.130   4.654  70.938  1.00  0.00    -0.187 A  
HETATM   13  C   UNL     1      -7.833   3.362  66.452  1.00  0.00    -0.084 A  
HETATM   14  C   UNL     1     -10.423   4.484  72.309  1.00  0.00    -0.215 A  
HETATM   15  C   UNL     1     -11.244   5.370  72.984  1.00  0.00    -0.370 A  
HETATM   16  C   UNL     1     -11.783   6.440  72.294  1.00  0.00    -0.333 A  
HETATM   17  C   UNL     1     -11.492   6.614  70.932  1.00  0.00    -0.401 A  
HETATM   18  C   UNL     1     -10.662   5.733  70.197  1.00  0.00    -0.320 A  
HETATM   19  N   UNL     1     -10.372   5.904  68.808  1.00  0.00    -0.196 NA 
BRANCH  19  20
HETATM   20  C   UNL     1     -11.030   7.014  68.079  1.00  0.00    -0.113 C  
BRANCH  20  21
HETATM   21  C   UNL     1     -10.176   8.293  68.035  1.00  0.00    -0.265 C  
BRANCH  21  22
HETATM   22  C   UNL     1     -10.271   9.007  66.686  1.00  0.00    -0.263 C  
BRANCH  22  23
HETATM   23  N   UNL     1      -9.452  10.234  66.580  1.00  0.00    -0.161 NA 
HETATM   24  C   UNL     1      -9.164  10.510  65.150  1.00  0.00    -0.205 C  
HETATM   25  C   UNL     1     -10.412  10.933  64.332  1.00  0.00    -0.333 C  
HETATM   26  N   UNL     1     -11.170  12.069  64.897  1.00  0.00    -0.320 NA 
HETATM   27  C   UNL     1     -11.370  11.888  66.353  1.00  0.00    -0.339 C  
HETATM   28  C   UNL     1     -10.488  13.332  64.619  1.00  0.00    -0.402 C  
HETATM   29  C   UNL     1     -10.113  11.435  67.134  1.00  0.00    -0.198 C  
ENDBRANCH  22  23
ENDBRANCH  21  22
ENDBRANCH  20  21
ENDBRANCH  19  20
ENDBRANCH   4   6
ENDBRANCH   3   4
ENDBRANCH   2   3
TORSDOF 7
ENDMDL
MODEL      144
REMARK 921   NORMALIZED FREE ENERGY PREDICTED BY IDOCK:   -4.00 KCAL/MOL
REMARK 922        TOTAL FREE ENERGY PREDICTED BY IDOCK:   -6.59 KCAL/MOL
REMARK 923 INTER-LIGAND FREE ENERGY PREDICTED BY IDOCK:   -5.83 KCAL/MOL
REMARK 924 INTRA-LIGAND FREE ENERGY PREDICTED BY IDOCK:   -0.77 KCAL/MOL
REMARK 927      BINDING AFFINITY PREDICTED BY RF-SCORE:    0.00 PKD
ROOT
HETATM    1  C   UNL     1     -10.681   5.145  66.364  1.00  0.00    -0.275 C  
HETATM    2  C   UNL     1     -10.710   6.210  67.450  1.00  0.00    -0.403 C  
ENDROOT
BRANCH   2   3
HETATM    3  C   UNL     1     -10.502   7.599  66.850  1.00  0.00    -0.388 C  
BRANCH   3   4
HETATM    4  C   UNL     1      -9.056   7.873  66.474  1.00  0.00    -0.170 C  
HETATM    5  O   UNL     1      -8.565   7.540  65.397  1.00  0.00    -0.130 OA 
BRANCH   4   6
HETATM    6  C   UNL     1      -8.217   8.625  67.458  1.00  0.00    -0.110 A  
HETATM    7  C   UNL     1      -8.202  10.029  67.403  1.00  0.00    -0.118 A  
HETATM    8  C   UNL     1      -7.475  10.832  68.319  1.00  0.00    -0.092 A  
HETATM    9  C   UNL     1      -6.734  10.131  69.289  1.00  0.00    -0.059 A  
HETATM   10  S   UNL     1      -5.754  10.900  70.545  1.00  0.00    -0.125 SA 
HETATM   11  C   UNL     1      -6.734   8.723  69.332  1.00  0.00    -0.049 A  
HETATM   12  C   UNL     1      -5.961  12.624  70.194  1.00  0.00    -0.138 A  
HETATM   13  C   UNL     1      -7.471   7.970  68.427  1.00  0.00    -0.103 A  
HETATM   14  C   UNL     1      -5.250  13.483  71.061  1.00  0.00    -0.156 A  
HETATM   15  C   UNL     1      -5.310  14.859  70.919  1.00  0.00    -0.139 A  
HETATM   16  C   UNL     1      -6.083  15.393  69.905  1.00  0.00    -0.152 A  
HETATM   17  C   UNL     1      -6.790  14.543  69.040  1.00  0.00    -0.109 A  
HETATM   18  C   UNL     1      -6.763  13.131  69.147  1.00  0.00    -0.089 A  
HETATM   19  N   UNL     1      -7.489  12.264  68.272  1.00  0.00    -0.110 NA 
BRANCH  19  20
HETATM   20  C   UNL     1      -8.372  12.869  67.248  1.00  0.00    -0.185 C  
BRANCH  20  21
HETATM   21  C   UNL     1      -9.849  12.914  67.679  1.00  0.00    -0.211 C  
BRANCH  21  22
HETATM   22  C   UNL     1     -10.219  14.239  68.345  1.00  0.00    -0.245 C  
BRANCH  22  23
HETATM   23  N   UNL     1     -11.195  15.055  67.592  1.00  0.00    -0.317 NA 
HETATM   24  C   UNL     1     -11.409  16.342  68.302  1.00  0.00    -0.280 C  
HETATM   25  C   UNL     1     -10.176  17.283  68.276  1.00  0.00    -0.348 C  
HETATM   26  N   UNL     1      -9.635  17.561  66.929  1.00  0.00    -0.268 NA 
HETATM   27  C   UNL     1      -9.523  16.310  66.144  1.00  0.00    -0.339 C  
HETATM   28  C   UNL     1     -10.468  18.539  66.231  1.00  0.00    -0.406 C  
HETATM   29  C   UNL     1     -10.758  15.380  66.218  1.00  0.00    -0.312 C  
ENDBRANCH  22  23
ENDBRANCH  21  22
ENDBRANCH  20  21
ENDBRANCH  19  20
ENDBRANCH   4   6
ENDBRANCH   3   4
ENDBRANCH   2   3
TORSDOF 7
ENDMDL
MODEL      145
REMARK 921   NORMALIZED FREE ENERGY PREDICTED BY IDOCK:   -3.98 KCAL/MOL
REMARK 922        TOTAL FREE ENERGY PREDICTED BY IDOCK:   -6.57 KCAL/MOL
REMARK 923 INTER-LIGAND FREE ENERGY PREDICTED BY IDOCK:   -5.55 KCAL/MOL
REMARK 924 INTRA-LIGAND FREE ENERGY PREDICTED BY IDOCK:   -1.02 KCAL/MOL
REMARK 927      BINDING AFFINITY PREDICTED BY RF-SCORE:    0.00 PKD
ROOT
HETATM    1  C   UNL     1      -8.427   7.247  70.694  1.00  0.00    -0.140 C  
HETATM    2  C   UNL     1      -7.023   7.470  70.150  1.00  0.00    -0.059 C  
ENDROOT
BRANCH   2   3
HETATM    3  C   UNL     1      -6.994   8.667  69.204  1.00  0.00    -0.063 C  
BRANCH   3   4
HETATM    4  C   UNL     1      -6.810   9.991  69.926  1.00  0.00    -0.108 C  
HETATM    5  O   UNL     1      -6.328  10.081  71.054  1.00  0.00    -0.253 OA 
BRANCH   4   6
HETATM    6  C   UNL     1      -7.196  11.237  69.195  1.00  0.00    -0.115 A  
HETATM    7  C   UNL     1      -8.305  11.201  68.332  1.00  0.00    -0.149 A  
HETATM    8  C   UNL     1      -8.777  12.340  67.631  1.00  0.00    -0.175 A  
HETATM    9  C   UNL     1      -8.044  13.525  67.830  1.00  0.00    -0.177 A  
HETATM   10  S   UNL     1      -8.434  15.079  67.077  1.00  0.00    -0.227 SA 
HETATM   11  C   UNL     1      -6.921  13.557  68.680  1.00  0.00    -0.100 A  
HETATM   12  C   UNL     1      -9.849  14.683  66.087  1.00  0.00    -0.312 A  
HETATM   13  C   UNL     1      -6.498  12.423  69.363  1.00  0.00    -0.103 A  
HETATM   14  C   UNL     1     -10.363  15.771  65.348  1.00  0.00    -0.417 A  
HETATM   15  C   UNL     1     -11.468  15.625  64.527  1.00  0.00    -0.304 A  
HETATM   16  C   UNL     1     -12.073  14.385  64.435  1.00  0.00    -0.491 A  
HETATM   17  C   UNL     1     -11.564  13.301  65.168  1.00  0.00    -0.334 A  
HETATM   18  C   UNL     1     -10.440  13.401  66.022  1.00  0.00    -0.294 A  
HETATM   19  N   UNL     1      -9.926  12.300  66.775  1.00  0.00    -0.203 NA 
BRANCH  19  20
HETATM   20  C   UNL     1     -10.645  11.006  66.719  1.00  0.00    -0.266 C  
BRANCH  20  21
HETATM   21  C   UNL     1     -10.261  10.158  65.493  1.00  0.00    -0.288 C  
BRANCH  21  22
HETATM   22  C   UNL     1      -9.387   8.961  65.868  1.00  0.00    -0.236 C  
BRANCH  22  23
HETATM   23  N   UNL     1      -7.947   9.137  65.582  1.00  0.00    -0.105 NA 
HETATM   24  C   UNL     1      -7.268   7.818  65.650  1.00  0.00    -0.068 C  
HETATM   25  C   UNL     1      -7.666   6.850  64.506  1.00  0.00    -0.116 C  
HETATM   26  N   UNL     1      -7.510   7.402  63.143  1.00  0.00    -0.093 NA 
HETATM   27  C   UNL     1      -8.067   8.771  63.068  1.00  0.00    -0.175 C  
HETATM   28  C   UNL     1      -6.103   7.390  62.742  1.00  0.00    -0.054 C  
HETATM   29  C   UNL     1      -7.676   9.701  64.242  1.00  0.00    -0.129 C  
ENDBRANCH  22  23
ENDBRANCH  21  22
ENDBRANCH  20  21
ENDBRANCH  19  20
ENDBRANCH   4   6
ENDBRANCH   3   4
ENDBRANCH   2   3
TORSDOF 7
ENDMDL
MODEL      146
REMARK 921   NORMALIZED FREE ENERGY PREDICTED BY IDOCK:   -3.98 KCAL/MOL
REMARK 922        TOTAL FREE ENERGY PREDICTED BY IDOCK:   -6.57 KCAL/MOL
REMARK 923 INTER-LIGAND FREE ENERGY PREDICTED BY IDOCK:   -5.96 KCAL/MOL
REMARK 924 INTRA-LIGAND FREE ENERGY PREDICTED BY IDOCK:   -0.61 KCAL/MOL
REMARK 927      BINDING AFFINITY PREDICTED BY RF-SCORE:    0.00 PKD
ROOT
HETATM    1  C   UNL     1     -11.037  11.547  64.576  1.00  0.00    -0.340 C  
HETATM    2  C   UNL     1     -10.989  12.910  65.250  1.00  0.00    -0.310 C  
ENDROOT
BRANCH   2   3
HETATM    3  C   UNL     1     -11.425  12.806  66.709  1.00  0.00    -0.399 C  
BRANCH   3   4
HETATM    4  C   UNL     1     -10.331  12.275  67.619  1.00  0.00    -0.204 C  
HETATM    5  O   UNL     1      -9.149  12.597  67.510  1.00  0.00    -0.176 OA 
BRANCH   4   6
HETATM    6  C   UNL     1     -10.738  11.353  68.724  1.00  0.00    -0.240 A  
HETATM    7  C   UNL     1      -9.779  10.483  69.271  1.00  0.00    -0.215 A  
HETATM    8  C   UNL     1     -10.056   9.606  70.350  1.00  0.00    -0.276 A  
HETATM    9  C   UNL     1     -11.376   9.634  70.836  1.00  0.00    -0.360 A  
HETATM   10  S   UNL     1     -11.969   8.643  72.177  1.00  0.00    -0.374 SA 
HETATM   11  C   UNL     1     -12.343  10.492  70.276  1.00  0.00    -0.377 A  
HETATM   12  C   UNL     1     -10.537   7.697  72.618  1.00  0.00    -0.299 A  
HETATM   13  C   UNL     1     -12.030  11.350  69.228  1.00  0.00    -0.400 A  
HETATM   14  C   UNL     1     -10.746   6.788  73.679  1.00  0.00    -0.280 A  
HETATM   15  C   UNL     1      -9.725   5.978  74.144  1.00  0.00    -0.205 A  
HETATM   16  C   UNL     1      -8.479   6.066  73.551  1.00  0.00    -0.119 A  
HETATM   17  C   UNL     1      -8.268   6.967  72.495  1.00  0.00    -0.116 A  
HETATM   18  C   UNL     1      -9.279   7.819  71.988  1.00  0.00    -0.144 A  
HETATM   19  N   UNL     1      -9.062   8.742  70.918  1.00  0.00    -0.188 NA 
BRANCH  19  20
HETATM   20  C   UNL     1      -7.697   8.872  70.359  1.00  0.00    -0.098 C  
BRANCH  20  21
HETATM   21  C   UNL     1      -7.136   7.541  69.829  1.00  0.00    -0.068 C  
BRANCH  21  22
HETATM   22  C   UNL     1      -7.020   7.527  68.304  1.00  0.00    -0.068 C  
BRANCH  22  23
HETATM   23  N   UNL     1      -7.748   8.618  67.622  1.00  0.00    -0.101 NA 
HETATM   24  C   UNL     1      -6.780   9.461  66.875  1.00  0.00    -0.076 C  
HETATM   25  C   UNL     1      -6.138   8.746  65.657  1.00  0.00    -0.052 C  
HETATM   26  N   UNL     1      -7.102   8.159  64.703  1.00  0.00    -0.078 NA 
HETATM   27  C   UNL     1      -8.158   7.411  65.422  1.00  0.00    -0.133 C  
HETATM   28  C   UNL     1      -7.687   9.199  63.857  1.00  0.00    -0.122 C  
HETATM   29  C   UNL     1      -8.754   8.140  66.650  1.00  0.00    -0.139 C  
ENDBRANCH  22  23
ENDBRANCH  21  22
ENDBRANCH  20  21
ENDBRANCH  19  20
ENDBRANCH   4   6
ENDBRANCH   3   4
ENDBRANCH   2   3
TORSDOF 7
ENDMDL
MODEL      147
REMARK 921   NORMALIZED FREE ENERGY PREDICTED BY IDOCK:   -3.98 KCAL/MOL
REMARK 922        TOTAL FREE ENERGY PREDICTED BY IDOCK:   -6.56 KCAL/MOL
REMARK 923 INTER-LIGAND FREE ENERGY PREDICTED BY IDOCK:   -5.44 KCAL/MOL
REMARK 924 INTRA-LIGAND FREE ENERGY PREDICTED BY IDOCK:   -1.12 KCAL/MOL
REMARK 927      BINDING AFFINITY PREDICTED BY RF-SCORE:    0.00 PKD
ROOT
HETATM    1  C   UNL     1      -9.499   3.055  68.903  1.00  0.00    -0.176 C  
HETATM    2  C   UNL     1      -8.261   3.708  69.498  1.00  0.00    -0.069 C  
ENDROOT
BRANCH   2   3
HETATM    3  C   UNL     1      -7.999   5.063  68.846  1.00  0.00    -0.081 C  
BRANCH   3   4
HETATM    4  C   UNL     1      -7.310   4.951  67.497  1.00  0.00    -0.078 C  
HETATM    5  O   UNL     1      -6.640   3.975  67.162  1.00  0.00    -0.044 OA 
BRANCH   4   6
HETATM    6  C   UNL     1      -7.505   6.070  66.526  1.00  0.00    -0.090 A  
HETATM    7  C   UNL     1      -8.542   6.992  66.751  1.00  0.00    -0.120 A  
HETATM    8  C   UNL     1      -8.778   8.112  65.913  1.00  0.00    -0.156 A  
HETATM    9  C   UNL     1      -7.917   8.238  64.807  1.00  0.00    -0.146 A  
HETATM   10  S   UNL     1      -8.001   9.548  63.621  1.00  0.00    -0.152 SA 
HETATM   11  C   UNL     1      -6.890   7.303  64.570  1.00  0.00    -0.050 A  
HETATM   12  C   UNL     1      -9.377  10.503  64.197  1.00  0.00    -0.267 A  
HETATM   13  C   UNL     1      -6.679   6.227  65.422  1.00  0.00    -0.047 A  
HETATM   14  C   UNL     1      -9.679  11.628  63.399  1.00  0.00    -0.369 A  
HETATM   15  C   UNL     1     -10.725  12.476  63.717  1.00  0.00    -0.483 A  
HETATM   16  C   UNL     1     -11.485  12.208  64.841  1.00  0.00    -0.379 A  
HETATM   17  C   UNL     1     -11.189  11.090  65.636  1.00  0.00     0.099 A  
HETATM   18  C   UNL     1     -10.128  10.196  65.354  1.00  0.00    -0.272 A  
HETATM   19  N   UNL     1      -9.821   9.062  66.168  1.00  0.00    -0.286 NA 
BRANCH  19  20
HETATM   20  C   UNL     1     -10.601   8.848  67.409  1.00  0.00    -0.235 C  
BRANCH  20  21
HETATM   21  C   UNL     1     -10.144   9.751  68.569  1.00  0.00    -0.185 C  
BRANCH  21  22
HETATM   22  C   UNL     1      -9.499   8.955  69.704  1.00  0.00    -0.168 C  
BRANCH  22  23
HETATM   23  N   UNL     1     -10.251   8.979  70.976  1.00  0.00    -0.251 NA 
HETATM   24  C   UNL     1     -11.542   8.269  70.797  1.00  0.00    -0.236 C  
HETATM   25  C   UNL     1     -11.391   6.740  70.588  1.00  0.00    -0.334 C  
HETATM   26  N   UNL     1     -10.602   6.046  71.627  1.00  0.00    -0.228 NA 
HETATM   27  C   UNL     1      -9.359   6.794  71.923  1.00  0.00    -0.145 C  
HETATM   28  C   UNL     1     -11.398   5.860  72.840  1.00  0.00    -0.226 C  
HETATM   29  C   UNL     1      -9.541   8.322  72.094  1.00  0.00    -0.268 C  
ENDBRANCH  22  23
ENDBRANCH  21  22
ENDBRANCH  20  21
ENDBRANCH  19  20
ENDBRANCH   4   6
ENDBRANCH   3   4
ENDBRANCH   2   3
TORSDOF 7
ENDMDL
MODEL      148
REMARK 921   NORMALIZED FREE ENERGY PREDICTED BY IDOCK:   -3.96 KCAL/MOL
REMARK 922        TOTAL FREE ENERGY PREDICTED BY IDOCK:   -6.54 KCAL/MOL
REMARK 923 INTER-LIGAND FREE ENERGY PREDICTED BY IDOCK:   -6.50 KCAL/MOL
REMARK 924 INTRA-LIGAND FREE ENERGY PREDICTED BY IDOCK:   -0.04 KCAL/MOL
REMARK 927      BINDING AFFINITY PREDICTED BY RF-SCORE:    0.00 PKD
ROOT
HETATM    1  C   UNL     1     -11.458  15.925  71.596  1.00  0.00    -0.473 C  
HETATM    2  C   UNL     1     -12.333  14.715  71.891  1.00  0.00    -0.410 C  
ENDROOT
BRANCH   2   3
HETATM    3  C   UNL     1     -12.596  13.915  70.618  1.00  0.00    -0.405 C  
BRANCH   3   4
HETATM    4  C   UNL     1     -11.914  14.504  69.395  1.00  0.00    -0.322 C  
HETATM    5  O   UNL     1     -12.171  15.623  68.955  1.00  0.00    -0.251 OA 
BRANCH   4   6
HETATM    6  C   UNL     1     -10.851  13.685  68.735  1.00  0.00    -0.279 A  
HETATM    7  C   UNL     1     -10.819  12.299  68.966  1.00  0.00    -0.197 A  
HETATM    8  C   UNL     1      -9.880  11.433  68.350  1.00  0.00    -0.205 A  
HETATM    9  C   UNL     1      -8.945  12.053  67.500  1.00  0.00    -0.174 A  
HETATM   10  S   UNL     1      -7.679  11.193  66.612  1.00  0.00    -0.145 SA 
HETATM   11  C   UNL     1      -8.965  13.445  67.283  1.00  0.00    -0.221 A  
HETATM   12  C   UNL     1      -7.927   9.513  67.117  1.00  0.00    -0.102 A  
HETATM   13  C   UNL     1      -9.911  14.260  67.892  1.00  0.00    -0.230 A  
HETATM   14  C   UNL     1      -7.013   8.597  66.552  1.00  0.00    -0.079 A  
HETATM   15  C   UNL     1      -7.076   7.245  66.846  1.00  0.00    -0.086 A  
HETATM   16  C   UNL     1      -8.055   6.794  67.712  1.00  0.00    -0.113 A  
HETATM   17  C   UNL     1      -8.965   7.703  68.276  1.00  0.00    -0.127 A  
HETATM   18  C   UNL     1      -8.943   9.092  68.003  1.00  0.00    -0.128 A  
HETATM   19  N   UNL     1      -9.874  10.017  68.571  1.00  0.00    -0.153 NA 
BRANCH  19  20
HETATM   20  C   UNL     1     -10.961   9.492  69.429  1.00  0.00    -0.170 C  
BRANCH  20  21
HETATM   21  C   UNL     1     -10.821   9.913  70.902  1.00  0.00    -0.357 C  
BRANCH  21  22
HETATM   22  C   UNL     1     -10.947   8.727  71.859  1.00  0.00    -0.365 C  
BRANCH  22  23
HETATM   23  N   UNL     1     -10.286   7.489  71.394  1.00  0.00    -0.194 NA 
HETATM   24  C   UNL     1      -9.366   6.998  72.451  1.00  0.00    -0.135 C  
HETATM   25  C   UNL     1     -10.091   6.472  73.717  1.00  0.00    -0.277 C  
HETATM   26  N   UNL     1     -11.122   5.443  73.460  1.00  0.00    -0.275 NA 
HETATM   27  C   UNL     1     -11.986   5.843  72.327  1.00  0.00    -0.152 C  
HETATM   28  C   UNL     1     -10.500   4.144  73.207  1.00  0.00    -0.176 C  
HETATM   29  C   UNL     1     -11.231   6.393  71.092  1.00  0.00    -0.302 C  
ENDBRANCH  22  23
ENDBRANCH  21  22
ENDBRANCH  20  21
ENDBRANCH  19  20
ENDBRANCH   4   6
ENDBRANCH   3   4
ENDBRANCH   2   3
TORSDOF 7
ENDMDL
MODEL      149
REMARK 921   NORMALIZED FREE ENERGY PREDICTED BY IDOCK:   -3.95 KCAL/MOL
REMARK 922        TOTAL FREE ENERGY PREDICTED BY IDOCK:   -6.52 KCAL/MOL
REMARK 923 INTER-LIGAND FREE ENERGY PREDICTED BY IDOCK:   -5.72 KCAL/MOL
REMARK 924 INTRA-LIGAND FREE ENERGY PREDICTED BY IDOCK:   -0.80 KCAL/MOL
REMARK 927      BINDING AFFINITY PREDICTED BY RF-SCORE:    0.00 PKD
ROOT
HETATM    1  C   UNL     1      -8.858  10.230  64.916  1.00  0.00    -0.213 C  
HETATM    2  C   UNL     1     -10.292  10.547  64.520  1.00  0.00    -0.275 C  
ENDROOT
BRANCH   2   3
HETATM    3  C   UNL     1     -11.012  11.288  65.644  1.00  0.00    -0.201 C  
BRANCH   3   4
HETATM    4  C   UNL     1     -12.016  12.308  65.135  1.00  0.00    -0.337 C  
HETATM    5  O   UNL     1     -13.117  12.001  64.682  1.00  0.00    -0.533 OA 
BRANCH   4   6
HETATM    6  C   UNL     1     -11.647  13.753  65.242  1.00  0.00    -0.330 A  
HETATM    7  C   UNL     1     -10.892  14.181  66.347  1.00  0.00    -0.304 A  
HETATM    8  C   UNL     1     -10.455  15.520  66.514  1.00  0.00    -0.300 A  
HETATM    9  C   UNL     1     -10.848  16.420  65.507  1.00  0.00    -0.215 A  
HETATM   10  S   UNL     1     -10.425  18.139  65.481  1.00  0.00     0.307 SA 
HETATM   11  C   UNL     1     -11.621  15.995  64.408  1.00  0.00    -0.212 A  
HETATM   12  C   UNL     1      -9.493  18.328  66.976  1.00  0.00    -0.274 A  
HETATM   13  C   UNL     1     -12.018  14.671  64.271  1.00  0.00    -0.406 A  
HETATM   14  C   UNL     1      -9.039  19.644  67.214  1.00  0.00    -0.396 A  
HETATM   15  C   UNL     1      -8.295  19.956  68.339  1.00  0.00    -0.223 A  
HETATM   16  C   UNL     1      -7.997  18.952  69.242  1.00  0.00    -0.004 A  
HETATM   17  C   UNL     1      -8.448  17.643  69.010  1.00  0.00    -0.021 A  
HETATM   18  C   UNL     1      -9.208  17.275  67.873  1.00  0.00    -0.247 A  
HETATM   19  N   UNL     1      -9.661  15.941  67.632  1.00  0.00    -0.223 NA 
BRANCH  19  20
HETATM   20  C   UNL     1      -9.256  14.873  68.576  1.00  0.00    -0.192 C  
BRANCH  20  21
HETATM   21  C   UNL     1      -8.190  13.929  67.993  1.00  0.00    -0.161 C  
BRANCH  21  22
HETATM   22  C   UNL     1      -8.464  12.464  68.333  1.00  0.00    -0.131 C  
BRANCH  22  23
HETATM   23  N   UNL     1      -7.394  11.528  67.928  1.00  0.00    -0.089 NA 
HETATM   24  C   UNL     1      -6.118  11.934  68.568  1.00  0.00    -0.050 C  
HETATM   25  C   UNL     1      -6.099  11.736  70.106  1.00  0.00    -0.147 C  
HETATM   26  N   UNL     1      -6.453  10.375  70.561  1.00  0.00    -0.262 NA 
HETATM   27  C   UNL     1      -7.655   9.884  69.851  1.00  0.00    -0.163 C  
HETATM   28  C   UNL     1      -5.327   9.460  70.371  1.00  0.00    -0.031 C  
HETATM   29  C   UNL     1      -7.655  10.127  68.322  1.00  0.00    -0.087 C  
ENDBRANCH  22  23
ENDBRANCH  21  22
ENDBRANCH  20  21
ENDBRANCH  19  20
ENDBRANCH   4   6
ENDBRANCH   3   4
ENDBRANCH   2   3
TORSDOF 7
ENDMDL
MODEL      150
REMARK 921   NORMALIZED FREE ENERGY PREDICTED BY IDOCK:   -3.90 KCAL/MOL
REMARK 922        TOTAL FREE ENERGY PREDICTED BY IDOCK:   -6.46 KCAL/MOL
REMARK 923 INTER-LIGAND FREE ENERGY PREDICTED BY IDOCK:   -5.45 KCAL/MOL
REMARK 924 INTRA-LIGAND FREE ENERGY PREDICTED BY IDOCK:   -1.01 KCAL/MOL
REMARK 927      BINDING AFFINITY PREDICTED BY RF-SCORE:    0.00 PKD
ROOT
HETATM    1  C   UNL     1      -5.879   6.033  71.826  1.00  0.00    -0.031 C  
HETATM    2  C   UNL     1      -5.414   6.893  70.660  1.00  0.00    -0.023 C  
ENDROOT
BRANCH   2   3
HETATM    3  C   UNL     1      -6.480   7.922  70.289  1.00  0.00    -0.037 C  
BRANCH   3   4
HETATM    4  C   UNL     1      -6.136   9.327  70.753  1.00  0.00    -0.062 C  
HETATM    5  O   UNL     1      -5.448   9.559  71.745  1.00  0.00    -0.072 OA 
BRANCH   4   6
HETATM    6  C   UNL     1      -6.629  10.468  69.923  1.00  0.00    -0.130 A  
HETATM    7  C   UNL     1      -7.630  10.230  68.965  1.00  0.00    -0.102 A  
HETATM    8  C   UNL     1      -8.194  11.254  68.163  1.00  0.00    -0.140 A  
HETATM    9  C   UNL     1      -7.668  12.544  68.363  1.00  0.00    -0.136 A  
HETATM   10  S   UNL     1      -8.207  13.988  67.493  1.00  0.00    -0.195 SA 
HETATM   11  C   UNL     1      -6.652  12.781  69.309  1.00  0.00    -0.086 A  
HETATM   12  C   UNL     1      -9.444  13.341  66.402  1.00  0.00    -0.217 A  
HETATM   13  C   UNL     1      -6.134  11.753  70.088  1.00  0.00    -0.147 A  
HETATM   14  C   UNL     1     -10.038  14.307  65.560  1.00  0.00    -0.370 A  
HETATM   15  C   UNL     1     -11.023  13.961  64.651  1.00  0.00    -0.406 A  
HETATM   16  C   UNL     1     -11.426  12.641  64.573  1.00  0.00    -0.389 A  
HETATM   17  C   UNL     1     -10.837  11.677  65.407  1.00  0.00    -0.336 A  
HETATM   18  C   UNL     1      -9.829  11.983  66.353  1.00  0.00    -0.220 A  
HETATM   19  N   UNL     1      -9.234  11.004  67.208  1.00  0.00    -0.148 NA 
BRANCH  19  20
HETATM   20  C   UNL     1      -9.745   9.614  67.158  1.00  0.00    -0.174 C  
BRANCH  20  21
HETATM   21  C   UNL     1     -10.706   9.285  68.313  1.00  0.00    -0.195 C  
BRANCH  21  22
HETATM   22  C   UNL     1     -10.451   7.898  68.902  1.00  0.00    -0.190 C  
BRANCH  22  23
HETATM   23  N   UNL     1     -11.299   7.557  70.065  1.00  0.00    -0.161 NA 
HETATM   24  C   UNL     1     -10.844   6.267  70.643  1.00  0.00    -0.280 C  
HETATM   25  C   UNL     1      -9.452   6.343  71.322  1.00  0.00    -0.166 C  
HETATM   26  N   UNL     1      -9.316   7.403  72.344  1.00  0.00    -0.141 NA 
HETATM   27  C   UNL     1      -9.874   8.680  71.847  1.00  0.00    -0.314 C  
HETATM   28  C   UNL     1      -9.967   7.001  73.591  1.00  0.00    -0.310 C  
HETATM   29  C   UNL     1     -11.250   8.564  71.147  1.00  0.00    -0.267 C  
ENDBRANCH  22  23
ENDBRANCH  21  22
ENDBRANCH  20  21
ENDBRANCH  19  20
ENDBRANCH   4   6
ENDBRANCH   3   4
ENDBRANCH   2   3
TORSDOF 7
ENDMDL
MODEL      151
REMARK 921   NORMALIZED FREE ENERGY PREDICTED BY IDOCK:   -3.88 KCAL/MOL
REMARK 922        TOTAL FREE ENERGY PREDICTED BY IDOCK:   -6.42 KCAL/MOL
REMARK 923 INTER-LIGAND FREE ENERGY PREDICTED BY IDOCK:   -5.62 KCAL/MOL
REMARK 924 INTRA-LIGAND FREE ENERGY PREDICTED BY IDOCK:   -0.80 KCAL/MOL
REMARK 927      BINDING AFFINITY PREDICTED BY RF-SCORE:    0.00 PKD
ROOT
HETATM    1  C   UNL     1      -9.096  15.752  68.460  1.00  0.00    -0.194 C  
HETATM    2  C   UNL     1      -8.887  14.274  68.165  1.00  0.00    -0.183 C  
ENDROOT
BRANCH   2   3
HETATM    3  C   UNL     1      -7.425  13.992  67.829  1.00  0.00    -0.169 C  
BRANCH   3   4
HETATM    4  C   UNL     1      -6.763  13.040  68.809  1.00  0.00    -0.100 C  
HETATM    5  O   UNL     1      -6.323  13.396  69.902  1.00  0.00    -0.124 OA 
BRANCH   4   6
HETATM    6  C   UNL     1      -6.692  11.595  68.430  1.00  0.00    -0.064 A  
HETATM    7  C   UNL     1      -7.888  10.888  68.223  1.00  0.00    -0.118 A  
HETATM    8  C   UNL     1      -7.924   9.529  67.817  1.00  0.00    -0.099 A  
HETATM    9  C   UNL     1      -6.672   8.908  67.654  1.00  0.00    -0.066 A  
HETATM   10  S   UNL     1      -6.449   7.227  67.149  1.00  0.00    -0.061 SA 
HETATM   11  C   UNL     1      -5.472   9.611  67.880  1.00  0.00    -0.040 A  
HETATM   12  C   UNL     1      -8.116   6.653  66.975  1.00  0.00    -0.113 A  
HETATM   13  C   UNL     1      -5.477  10.947  68.263  1.00  0.00    -0.039 A  
HETATM   14  C   UNL     1      -8.226   5.299  66.587  1.00  0.00    -0.108 A  
HETATM   15  C   UNL     1      -9.461   4.701  66.406  1.00  0.00    -0.169 A  
HETATM   16  C   UNL     1     -10.604   5.451  66.614  1.00  0.00    -0.359 A  
HETATM   17  C   UNL     1     -10.499   6.797  67.001  1.00  0.00    -0.369 A  
HETATM   18  C   UNL     1      -9.259   7.453  67.195  1.00  0.00    -0.136 A  
HETATM   19  N   UNL     1      -9.151   8.825  67.581  1.00  0.00    -0.134 NA 
BRANCH  19  20
HETATM   20  C   UNL     1     -10.391   9.624  67.716  1.00  0.00    -0.236 C  
BRANCH  20  21
HETATM   21  C   UNL     1     -10.693  10.478  66.472  1.00  0.00    -0.191 C  
BRANCH  21  22
HETATM   22  C   UNL     1     -11.356  11.809  66.830  1.00  0.00    -0.320 C  
BRANCH  22  23
HETATM   23  N   UNL     1     -12.202  12.382  65.762  1.00  0.00    -0.638 NA 
HETATM   24  C   UNL     1     -12.766  13.675  66.223  1.00  0.00    -0.167 C  
HETATM   25  C   UNL     1     -11.709  14.799  66.378  1.00  0.00    -0.263 C  
HETATM   26  N   UNL     1     -10.876  15.038  65.180  1.00  0.00    -0.378 NA 
HETATM   27  C   UNL     1     -10.395  13.757  64.616  1.00  0.00    -0.368 C  
HETATM   28  C   UNL     1     -11.623  15.799  64.178  1.00  0.00    -0.076 C  
HETATM   29  C   UNL     1     -11.469  12.647  64.506  1.00  0.00    -0.339 C  
ENDBRANCH  22  23
ENDBRANCH  21  22
ENDBRANCH  20  21
ENDBRANCH  19  20
ENDBRANCH   4   6
ENDBRANCH   3   4
ENDBRANCH   2   3
TORSDOF 7
ENDMDL
MODEL      152
REMARK 921   NORMALIZED FREE ENERGY PREDICTED BY IDOCK:   -3.87 KCAL/MOL
REMARK 922        TOTAL FREE ENERGY PREDICTED BY IDOCK:   -6.41 KCAL/MOL
REMARK 923 INTER-LIGAND FREE ENERGY PREDICTED BY IDOCK:   -5.96 KCAL/MOL
REMARK 924 INTRA-LIGAND FREE ENERGY PREDICTED BY IDOCK:   -0.45 KCAL/MOL
REMARK 927      BINDING AFFINITY PREDICTED BY RF-SCORE:    0.00 PKD
ROOT
HETATM    1  C   UNL     1     -13.727  14.663  72.554  1.00  0.00    -0.572 C  
HETATM    2  C   UNL     1     -12.464  13.894  72.195  1.00  0.00    -0.159 C  
ENDROOT
BRANCH   2   3
HETATM    3  C   UNL     1     -12.778  12.773  71.207  1.00  0.00    -0.364 C  
BRANCH   3   4
HETATM    4  C   UNL     1     -11.902  12.810  69.967  1.00  0.00    -0.281 C  
HETATM    5  O   UNL     1     -11.525  11.798  69.378  1.00  0.00    -0.267 OA 
BRANCH   4   6
HETATM    6  C   UNL     1     -11.527  14.152  69.426  1.00  0.00    -0.337 A  
HETATM    7  C   UNL     1     -10.274  14.311  68.811  1.00  0.00    -0.226 A  
HETATM    8  C   UNL     1      -9.846  15.531  68.227  1.00  0.00    -0.213 A  
HETATM    9  C   UNL     1     -10.753  16.603  68.322  1.00  0.00    -0.351 A  
HETATM   10  S   UNL     1     -10.459  18.221  67.668  1.00  0.00    -0.400 SA 
HETATM   11  C   UNL     1     -12.002  16.449  68.956  1.00  0.00     0.214 A  
HETATM   12  C   UNL     1      -8.835  18.067  66.977  1.00  0.00    -0.254 A  
HETATM   13  C   UNL     1     -12.392  15.234  69.503  1.00  0.00    -0.210 A  
HETATM   14  C   UNL     1      -8.340  19.253  66.391  1.00  0.00    -0.330 A  
HETATM   15  C   UNL     1      -7.086  19.297  65.806  1.00  0.00    -0.306 A  
HETATM   16  C   UNL     1      -6.311  18.152  65.801  1.00  0.00    -0.297 A  
HETATM   17  C   UNL     1      -6.799  16.972  66.384  1.00  0.00    -0.248 A  
HETATM   18  C   UNL     1      -8.075  16.877  66.990  1.00  0.00    -0.198 A  
HETATM   19  N   UNL     1      -8.577  15.674  67.577  1.00  0.00    -0.166 NA 
BRANCH  19  20
HETATM   20  C   UNL     1      -7.756  14.444  67.483  1.00  0.00    -0.192 C  
BRANCH  20  21
HETATM   21  C   UNL     1      -6.895  14.199  68.734  1.00  0.00    -0.101 C  
BRANCH  21  22
HETATM   22  C   UNL     1      -6.818  12.718  69.105  1.00  0.00    -0.054 C  
BRANCH  22  23
HETATM   23  N   UNL     1      -7.238  11.792  68.031  1.00  0.00    -0.079 NA 
HETATM   24  C   UNL     1      -6.179  10.773  67.819  1.00  0.00    -0.047 C  
HETATM   25  C   UNL     1      -6.021   9.781  69.000  1.00  0.00    -0.034 C  
HETATM   26  N   UNL     1      -7.267   9.100  69.411  1.00  0.00    -0.066 NA 
HETATM   27  C   UNL     1      -8.381  10.070  69.512  1.00  0.00    -0.172 C  
HETATM   28  C   UNL     1      -7.598   8.025  68.476  1.00  0.00    -0.104 C  
HETATM   29  C   UNL     1      -8.490  11.066  68.332  1.00  0.00    -0.144 C  
ENDBRANCH  22  23
ENDBRANCH  21  22
ENDBRANCH  20  21
ENDBRANCH  19  20
ENDBRANCH   4   6
ENDBRANCH   3   4
ENDBRANCH   2   3
TORSDOF 7
ENDMDL
MODEL      153
REMARK 921   NORMALIZED FREE ENERGY PREDICTED BY IDOCK:   -3.85 KCAL/MOL
REMARK 922        TOTAL FREE ENERGY PREDICTED BY IDOCK:   -6.39 KCAL/MOL
REMARK 923 INTER-LIGAND FREE ENERGY PREDICTED BY IDOCK:   -5.47 KCAL/MOL
REMARK 924 INTRA-LIGAND FREE ENERGY PREDICTED BY IDOCK:   -0.91 KCAL/MOL
REMARK 927      BINDING AFFINITY PREDICTED BY RF-SCORE:    0.00 PKD
ROOT
HETATM    1  C   UNL     1      -5.170  10.778  70.885  1.00  0.00    -0.105 C  
HETATM    2  C   UNL     1      -5.365  12.253  71.201  1.00  0.00    -0.103 C  
ENDROOT
BRANCH   2   3
HETATM    3  C   UNL     1      -5.668  13.042  69.930  1.00  0.00    -0.123 C  
BRANCH   3   4
HETATM    4  C   UNL     1      -6.616  14.205  70.165  1.00  0.00    -0.034 C  
HETATM    5  O   UNL     1      -6.405  15.089  70.994  1.00  0.00     0.118 OA 
BRANCH   4   6
HETATM    6  C   UNL     1      -7.838  14.286  69.306  1.00  0.00     0.085 A  
HETATM    7  C   UNL     1      -7.937  13.443  68.186  1.00  0.00    -0.150 A  
HETATM    8  C   UNL     1      -9.074  13.413  67.338  1.00  0.00    -0.216 A  
HETATM    9  C   UNL     1     -10.106  14.310  67.670  1.00  0.00    -0.229 A  
HETATM   10  S   UNL     1     -11.625  14.460  66.775  1.00  0.00    -0.392 SA 
HETATM   11  C   UNL     1      -9.998  15.170  68.781  1.00  0.00    -0.229 A  
HETATM   12  C   UNL     1     -11.421  13.281  65.469  1.00  0.00    -0.311 A  
HETATM   13  C   UNL     1      -8.875  15.160  69.598  1.00  0.00    -0.054 A  
HETATM   14  C   UNL     1     -12.512  13.209  64.576  1.00  0.00    -0.406 A  
HETATM   15  C   UNL     1     -12.508  12.335  63.503  1.00  0.00    -0.642 A  
HETATM   16  C   UNL     1     -11.408  11.519  63.310  1.00  0.00    -0.208 A  
HETATM   17  C   UNL     1     -10.320  11.588  64.196  1.00  0.00    -0.386 A  
HETATM   18  C   UNL     1     -10.280  12.463  65.308  1.00  0.00    -0.282 A  
HETATM   19  N   UNL     1      -9.177  12.528  66.215  1.00  0.00    -0.182 NA 
BRANCH  19  20
HETATM   20  C   UNL     1      -8.050  11.584  66.029  1.00  0.00     0.131 C  
BRANCH  20  21
HETATM   21  C   UNL     1      -8.476  10.110  66.144  1.00  0.00    -0.134 C  
BRANCH  21  22
HETATM   22  C   UNL     1      -8.514   9.629  67.595  1.00  0.00    -0.125 C  
BRANCH  22  23
HETATM   23  N   UNL     1      -9.722   8.857  67.956  1.00  0.00    -0.152 NA 
HETATM   24  C   UNL     1      -9.398   7.931  69.071  1.00  0.00    -0.151 C  
HETATM   25  C   UNL     1      -9.110   8.649  70.415  1.00  0.00    -0.159 C  
HETATM   26  N   UNL     1     -10.165   9.584  70.859  1.00  0.00    -0.300 NA 
HETATM   27  C   UNL     1     -10.604  10.444  69.737  1.00  0.00    -0.258 C  
HETATM   28  C   UNL     1     -11.297   8.851  71.426  1.00  0.00    -0.309 C  
HETATM   29  C   UNL     1     -10.851   9.701  68.402  1.00  0.00    -0.167 C  
ENDBRANCH  22  23
ENDBRANCH  21  22
ENDBRANCH  20  21
ENDBRANCH  19  20
ENDBRANCH   4   6
ENDBRANCH   3   4
ENDBRANCH   2   3
TORSDOF 7
ENDMDL
MODEL      154
REMARK 921   NORMALIZED FREE ENERGY PREDICTED BY IDOCK:   -3.84 KCAL/MOL
REMARK 922        TOTAL FREE ENERGY PREDICTED BY IDOCK:   -6.36 KCAL/MOL
REMARK 923 INTER-LIGAND FREE ENERGY PREDICTED BY IDOCK:   -6.06 KCAL/MOL
REMARK 924 INTRA-LIGAND FREE ENERGY PREDICTED BY IDOCK:   -0.30 KCAL/MOL
REMARK 927      BINDING AFFINITY PREDICTED BY RF-SCORE:    0.00 PKD
ROOT
HETATM    1  C   UNL     1      -5.451  11.731  70.358  1.00  0.00    -0.139 C  
HETATM    2  C   UNL     1      -5.606  10.224  70.503  1.00  0.00    -0.078 C  
ENDROOT
BRANCH   2   3
HETATM    3  C   UNL     1      -6.590   9.681  69.469  1.00  0.00    -0.049 C  
BRANCH   3   4
HETATM    4  C   UNL     1      -8.041   9.845  69.886  1.00  0.00    -0.188 C  
HETATM    5  O   UNL     1      -8.450   9.585  71.017  1.00  0.00    -0.284 OA 
BRANCH   4   6
HETATM    6  C   UNL     1      -8.994  10.393  68.873  1.00  0.00    -0.170 A  
HETATM    7  C   UNL     1      -8.855  11.730  68.463  1.00  0.00    -0.122 A  
HETATM    8  C   UNL     1      -9.680  12.326  67.475  1.00  0.00    -0.190 A  
HETATM    9  C   UNL     1     -10.682  11.499  66.937  1.00  0.00    -0.263 A  
HETATM   10  S   UNL     1     -11.831  12.004  65.689  1.00  0.00    -0.034 SA 
HETATM   11  C   UNL     1     -10.835  10.164  67.362  1.00  0.00    -0.323 A  
HETATM   12  C   UNL     1     -11.378  13.693  65.409  1.00  0.00    -0.301 A  
HETATM   13  C   UNL     1      -9.997   9.610  68.321  1.00  0.00    -0.178 A  
HETATM   14  C   UNL     1     -12.171  14.355  64.446  1.00  0.00    -0.481 A  
HETATM   15  C   UNL     1     -11.943  15.679  64.113  1.00  0.00    -0.048 A  
HETATM   16  C   UNL     1     -10.916  16.359  64.742  1.00  0.00    -0.246 A  
HETATM   17  C   UNL     1     -10.127  15.705  65.701  1.00  0.00    -0.395 A  
HETATM   18  C   UNL     1     -10.319  14.352  66.073  1.00  0.00    -0.309 A  
HETATM   19  N   UNL     1      -9.511  13.683  67.043  1.00  0.00    -0.243 NA 
BRANCH  19  20
HETATM   20  C   UNL     1      -8.368  14.414  67.639  1.00  0.00    -0.179 C  
BRANCH  20  21
HETATM   21  C   UNL     1      -8.806  15.559  68.568  1.00  0.00    -0.186 C  
BRANCH  21  22
HETATM   22  C   UNL     1      -7.757  16.669  68.655  1.00  0.00    -0.224 C  
BRANCH  22  23
HETATM   23  N   UNL     1      -6.813  16.713  67.518  1.00  0.00    -0.139 NA 
HETATM   24  C   UNL     1      -7.505  17.268  66.327  1.00  0.00    -0.319 C  
HETATM   25  C   UNL     1      -7.862  18.771  66.455  1.00  0.00    -0.269 C  
HETATM   26  N   UNL     1      -6.727  19.652  66.805  1.00  0.00    -0.194 NA 
HETATM   27  C   UNL     1      -5.937  19.068  67.913  1.00  0.00    -0.202 C  
HETATM   28  C   UNL     1      -5.883  19.893  65.636  1.00  0.00    -0.173 C  
HETATM   29  C   UNL     1      -5.626  17.558  67.768  1.00  0.00    -0.136 C  
ENDBRANCH  22  23
ENDBRANCH  21  22
ENDBRANCH  20  21
ENDBRANCH  19  20
ENDBRANCH   4   6
ENDBRANCH   3   4
ENDBRANCH   2   3
TORSDOF 7
ENDMDL
MODEL      155
REMARK 921   NORMALIZED FREE ENERGY PREDICTED BY IDOCK:   -3.82 KCAL/MOL
REMARK 922        TOTAL FREE ENERGY PREDICTED BY IDOCK:   -6.34 KCAL/MOL
REMARK 923 INTER-LIGAND FREE ENERGY PREDICTED BY IDOCK:   -5.47 KCAL/MOL
REMARK 924 INTRA-LIGAND FREE ENERGY PREDICTED BY IDOCK:   -0.87 KCAL/MOL
REMARK 927      BINDING AFFINITY PREDICTED BY RF-SCORE:    0.00 PKD
ROOT
HETATM    1  C   UNL     1     -12.835  13.076  72.427  1.00  0.00    -0.122 C  
HETATM    2  C   UNL     1     -13.295  12.674  71.033  1.00  0.00     0.291 C  
ENDROOT
BRANCH   2   3
HETATM    3  C   UNL     1     -12.117  12.183  70.196  1.00  0.00    -0.368 C  
BRANCH   3   4
HETATM    4  C   UNL     1     -11.626  13.218  69.198  1.00  0.00    -0.319 C  
HETATM    5  O   UNL     1     -11.441  14.399  69.488  1.00  0.00    -0.261 OA 
BRANCH   4   6
HETATM    6  C   UNL     1     -11.315  12.749  67.812  1.00  0.00    -0.342 A  
HETATM    7  C   UNL     1     -10.196  11.923  67.611  1.00  0.00    -0.215 A  
HETATM    8  C   UNL     1      -9.845  11.391  66.344  1.00  0.00    -0.211 A  
HETATM    9  C   UNL     1     -10.679  11.763  65.274  1.00  0.00    -0.287 A  
HETATM   10  S   UNL     1     -10.459  11.228  63.601  1.00  0.00    -0.403 SA 
HETATM   11  C   UNL     1     -11.790  12.607  65.472  1.00  0.00    -0.479 A  
HETATM   12  C   UNL     1      -9.002  10.225  63.707  1.00  0.00    -0.239 A  
HETATM   13  C   UNL     1     -12.111  13.097  66.732  1.00  0.00    -0.389 A  
HETATM   14  C   UNL     1      -8.585   9.674  62.475  1.00  0.00    -0.208 A  
HETATM   15  C   UNL     1      -7.465   8.866  62.391  1.00  0.00    -0.103 A  
HETATM   16  C   UNL     1      -6.745   8.599  63.541  1.00  0.00    -0.088 A  
HETATM   17  C   UNL     1      -7.155   9.146  64.767  1.00  0.00    -0.096 A  
HETATM   18  C   UNL     1      -8.295   9.975  64.904  1.00  0.00    -0.157 A  
HETATM   19  N   UNL     1      -8.717  10.526  66.154  1.00  0.00    -0.152 NA 
BRANCH  19  20
HETATM   20  C   UNL     1      -7.973  10.155  67.380  1.00  0.00    -0.110 C  
BRANCH  20  21
HETATM   21  C   UNL     1      -8.426   8.810  67.974  1.00  0.00    -0.126 C  
BRANCH  21  22
HETATM   22  C   UNL     1      -8.806   8.927  69.450  1.00  0.00    -0.143 C  
BRANCH  22  23
HETATM   23  N   UNL     1      -8.773   7.651  70.197  1.00  0.00    -0.140 NA 
HETATM   24  C   UNL     1      -7.374   7.348  70.589  1.00  0.00    -0.070 C  
HETATM   25  C   UNL     1      -6.801   8.314  71.658  1.00  0.00    -0.069 C  
HETATM   26  N   UNL     1      -7.624   8.449  72.879  1.00  0.00    -0.289 NA 
HETATM   27  C   UNL     1      -9.051   8.630  72.528  1.00  0.00    -0.117 C  
HETATM   28  C   UNL     1      -7.446   7.288  73.750  1.00  0.00    -0.101 C  
HETATM   29  C   UNL     1      -9.581   7.670  71.435  1.00  0.00    -0.158 C  
ENDBRANCH  22  23
ENDBRANCH  21  22
ENDBRANCH  20  21
ENDBRANCH  19  20
ENDBRANCH   4   6
ENDBRANCH   3   4
ENDBRANCH   2   3
TORSDOF 7
ENDMDL
MODEL      156
REMARK 921   NORMALIZED FREE ENERGY PREDICTED BY IDOCK:   -3.81 KCAL/MOL
REMARK 922        TOTAL FREE ENERGY PREDICTED BY IDOCK:   -6.32 KCAL/MOL
REMARK 923 INTER-LIGAND FREE ENERGY PREDICTED BY IDOCK:   -5.79 KCAL/MOL
REMARK 924 INTRA-LIGAND FREE ENERGY PREDICTED BY IDOCK:   -0.53 KCAL/MOL
REMARK 927      BINDING AFFINITY PREDICTED BY RF-SCORE:    0.00 PKD
ROOT
HETATM    1  C   UNL     1      -5.339   6.554  65.182  1.00  0.00    -0.021 C  
HETATM    2  C   UNL     1      -5.420   7.085  63.759  1.00  0.00    -0.029 C  
ENDROOT
BRANCH   2   3
HETATM    3  C   UNL     1      -6.161   8.420  63.722  1.00  0.00    -0.072 C  
BRANCH   3   4
HETATM    4  C   UNL     1      -7.634   8.273  63.383  1.00  0.00    -0.131 C  
HETATM    5  O   UNL     1      -8.117   7.244  62.913  1.00  0.00    -0.127 OA 
BRANCH   4   6
HETATM    6  C   UNL     1      -8.532   9.430  63.684  1.00  0.00    -0.203 A  
HETATM    7  C   UNL     1      -8.745   9.793  65.025  1.00  0.00    -0.198 A  
HETATM    8  C   UNL     1      -9.542  10.901  65.409  1.00  0.00    -0.225 A  
HETATM    9  C   UNL     1     -10.140  11.617  64.355  1.00  0.00    -0.279 A  
HETATM   10  S   UNL     1     -11.170  13.039  64.572  1.00  0.00    -0.360 SA 
HETATM   11  C   UNL     1      -9.941  11.242  63.012  1.00  0.00    -0.345 A  
HETATM   12  C   UNL     1     -11.220  13.214  66.334  1.00  0.00    -0.300 A  
HETATM   13  C   UNL     1      -9.141  10.158  62.673  1.00  0.00    -0.305 A  
HETATM   14  C   UNL     1     -12.011  14.292  66.789  1.00  0.00    -0.462 A  
HETATM   15  C   UNL     1     -12.149  14.564  68.139  1.00  0.00    -0.232 A  
HETATM   16  C   UNL     1     -11.498  13.757  69.053  1.00  0.00    -0.349 A  
HETATM   17  C   UNL     1     -10.712  12.683  68.605  1.00  0.00    -0.269 A  
HETATM   18  C   UNL     1     -10.537  12.368  67.236  1.00  0.00    -0.223 A  
HETATM   19  N   UNL     1      -9.731  11.280  66.779  1.00  0.00    -0.191 NA 
BRANCH  19  20
HETATM   20  C   UNL     1      -8.980  10.484  67.779  1.00  0.00    -0.132 C  
BRANCH  20  21
HETATM   21  C   UNL     1      -9.798   9.312  68.350  1.00  0.00    -0.173 C  
BRANCH  21  22
HETATM   22  C   UNL     1      -8.985   8.460  69.325  1.00  0.00    -0.150 C  
BRANCH  22  23
HETATM   23  N   UNL     1      -8.162   7.411  68.686  1.00  0.00    -0.124 NA 
HETATM   24  C   UNL     1      -8.261   6.159  69.480  1.00  0.00    -0.116 C  
HETATM   25  C   UNL     1      -9.660   5.493  69.424  1.00  0.00    -0.147 C  
HETATM   26  N   UNL     1     -10.174   5.240  68.061  1.00  0.00    -0.164 NA 
HETATM   27  C   UNL     1      -9.979   6.429  67.202  1.00  0.00    -0.155 C  
HETATM   28  C   UNL     1      -9.527   4.065  67.477  1.00  0.00    -0.188 C  
HETATM   29  C   UNL     1      -8.582   7.088  67.306  1.00  0.00    -0.121 C  
ENDBRANCH  22  23
ENDBRANCH  21  22
ENDBRANCH  20  21
ENDBRANCH  19  20
ENDBRANCH   4   6
ENDBRANCH   3   4
ENDBRANCH   2   3
TORSDOF 7
ENDMDL
MODEL      157
REMARK 921   NORMALIZED FREE ENERGY PREDICTED BY IDOCK:   -3.76 KCAL/MOL
REMARK 922        TOTAL FREE ENERGY PREDICTED BY IDOCK:   -6.25 KCAL/MOL
REMARK 923 INTER-LIGAND FREE ENERGY PREDICTED BY IDOCK:   -6.51 KCAL/MOL
REMARK 924 INTRA-LIGAND FREE ENERGY PREDICTED BY IDOCK:    0.26 KCAL/MOL
REMARK 927      BINDING AFFINITY PREDICTED BY RF-SCORE:    0.00 PKD
ROOT
HETATM    1  C   UNL     1     -10.996   6.635  71.488  1.00  0.00    -0.287 C  
HETATM    2  C   UNL     1     -10.627   8.084  71.212  1.00  0.00    -0.245 C  
ENDROOT
BRANCH   2   3
HETATM    3  C   UNL     1      -9.464   8.524  72.099  1.00  0.00    -0.375 C  
BRANCH   3   4
HETATM    4  C   UNL     1      -8.210   8.860  71.311  1.00  0.00    -0.157 C  
HETATM    5  O   UNL     1      -7.170   9.255  71.836  1.00  0.00    -0.326 OA 
BRANCH   4   6
HETATM    6  C   UNL     1      -8.246   8.649  69.831  1.00  0.00    -0.121 A  
HETATM    7  C   UNL     1      -8.723   9.685  69.009  1.00  0.00    -0.142 A  
HETATM    8  C   UNL     1      -8.753   9.598  67.594  1.00  0.00    -0.126 A  
HETATM    9  C   UNL     1      -8.296   8.385  67.047  1.00  0.00    -0.114 A  
HETATM   10  S   UNL     1      -8.228   8.033  65.314  1.00  0.00    -0.141 SA 
HETATM   11  C   UNL     1      -7.836   7.339  67.871  1.00  0.00    -0.118 A  
HETATM   12  C   UNL     1      -8.879   9.515  64.594  1.00  0.00    -0.213 A  
HETATM   13  C   UNL     1      -7.807   7.466  69.254  1.00  0.00    -0.116 A  
HETATM   14  C   UNL     1      -8.953   9.491  63.184  1.00  0.00    -0.217 A  
HETATM   15  C   UNL     1      -9.438  10.574  62.471  1.00  0.00    -0.288 A  
HETATM   16  C   UNL     1      -9.856  11.696  63.162  1.00  0.00    -0.407 A  
HETATM   17  C   UNL     1      -9.786  11.722  64.564  1.00  0.00    -0.228 A  
HETATM   18  C   UNL     1      -9.295  10.642  65.336  1.00  0.00    -0.210 A  
HETATM   19  N   UNL     1      -9.216  10.671  66.763  1.00  0.00    -0.155 NA 
BRANCH  19  20
HETATM   20  C   UNL     1      -9.595  11.918  67.469  1.00  0.00    -0.175 C  
BRANCH  20  21
HETATM   21  C   UNL     1      -9.192  13.189  66.701  1.00  0.00    -0.220 C  
BRANCH  21  22
HETATM   22  C   UNL     1      -8.837  14.344  67.638  1.00  0.00    -0.193 C  
BRANCH  22  23
HETATM   23  N   UNL     1      -8.478  15.604  66.953  1.00  0.00    -0.228 NA 
HETATM   24  C   UNL     1      -9.581  15.997  66.040  1.00  0.00    -0.350 C  
HETATM   25  C   UNL     1     -10.875  16.435  66.775  1.00  0.00    -0.098 C  
HETATM   26  N   UNL     1     -10.686  17.496  67.786  1.00  0.00    -0.372 NA 
HETATM   27  C   UNL     1      -9.515  17.199  68.641  1.00  0.00    -0.275 C  
HETATM   28  C   UNL     1     -10.542  18.801  67.142  1.00  0.00    -0.428 C  
HETATM   29  C   UNL     1      -8.250  16.735  67.878  1.00  0.00    -0.187 C  
ENDBRANCH  22  23
ENDBRANCH  21  22
ENDBRANCH  20  21
ENDBRANCH  19  20
ENDBRANCH   4   6
ENDBRANCH   3   4
ENDBRANCH   2   3
TORSDOF 7
ENDMDL
MODEL      158
REMARK 921   NORMALIZED FREE ENERGY PREDICTED BY IDOCK:   -3.75 KCAL/MOL
REMARK 922        TOTAL FREE ENERGY PREDICTED BY IDOCK:   -6.25 KCAL/MOL
REMARK 923 INTER-LIGAND FREE ENERGY PREDICTED BY IDOCK:   -5.40 KCAL/MOL
REMARK 924 INTRA-LIGAND FREE ENERGY PREDICTED BY IDOCK:   -0.85 KCAL/MOL
REMARK 927      BINDING AFFINITY PREDICTED BY RF-SCORE:    0.00 PKD
ROOT
HETATM    1  C   UNL     1      -8.974  19.108  68.684  1.00  0.00    -0.411 C  
HETATM    2  C   UNL     1      -9.622  18.133  67.713  1.00  0.00    -0.286 C  
ENDROOT
BRANCH   2   3
HETATM    3  C   UNL     1     -10.767  17.380  68.387  1.00  0.00    -0.301 C  
BRANCH   3   4
HETATM    4  C   UNL     1     -10.289  16.366  69.412  1.00  0.00    -0.290 C  
HETATM    5  O   UNL     1     -10.793  16.248  70.528  1.00  0.00    -0.269 OA 
BRANCH   4   6
HETATM    6  C   UNL     1      -9.182  15.445  69.009  1.00  0.00    -0.235 A  
HETATM    7  C   UNL     1      -9.504  14.228  68.385  1.00  0.00    -0.213 A  
HETATM    8  C   UNL     1      -8.525  13.310  67.926  1.00  0.00    -0.177 A  
HETATM    9  C   UNL     1      -7.187  13.680  68.158  1.00  0.00    -0.117 A  
HETATM   10  S   UNL     1      -5.786  12.712  67.676  1.00  0.00    -0.140 SA 
HETATM   11  C   UNL     1      -6.864  14.891  68.801  1.00  0.00    -0.102 A  
HETATM   12  C   UNL     1      -6.537  11.290  66.934  1.00  0.00    -0.130 A  
HETATM   13  C   UNL     1      -7.852  15.773  69.223  1.00  0.00    -0.233 A  
HETATM   14  C   UNL     1      -5.617  10.324  66.468  1.00  0.00    -0.053 A  
HETATM   15  C   UNL     1      -6.046   9.157  65.861  1.00  0.00    -0.052 A  
HETATM   16  C   UNL     1      -7.404   8.939  65.714  1.00  0.00    -0.089 A  
HETATM   17  C   UNL     1      -8.321   9.895  66.178  1.00  0.00    -0.123 A  
HETATM   18  C   UNL     1      -7.931  11.106  66.801  1.00  0.00    -0.156 A  
HETATM   19  N   UNL     1      -8.864  12.084  67.266  1.00  0.00    -0.175 NA 
BRANCH  19  20
HETATM   20  C   UNL     1     -10.308  11.859  67.020  1.00  0.00    -0.212 C  
BRANCH  20  21
HETATM   21  C   UNL     1     -11.027  11.211  68.216  1.00  0.00    -0.278 C  
BRANCH  21  22
HETATM   22  C   UNL     1     -10.903   9.687  68.210  1.00  0.00    -0.182 C  
BRANCH  22  23
HETATM   23  N   UNL     1     -10.799   9.073  69.550  1.00  0.00    -0.207 NA 
HETATM   24  C   UNL     1     -10.635   7.604  69.406  1.00  0.00    -0.215 C  
HETATM   25  C   UNL     1      -9.272   7.184  68.796  1.00  0.00    -0.136 C  
HETATM   26  N   UNL     1      -8.087   7.734  69.486  1.00  0.00    -0.123 NA 
HETATM   27  C   UNL     1      -8.266   9.177  69.760  1.00  0.00    -0.128 C  
HETATM   28  C   UNL     1      -7.825   6.999  70.724  1.00  0.00    -0.096 C  
HETATM   29  C   UNL     1      -9.649   9.566  70.338  1.00  0.00    -0.269 C  
ENDBRANCH  22  23
ENDBRANCH  21  22
ENDBRANCH  20  21
ENDBRANCH  19  20
ENDBRANCH   4   6
ENDBRANCH   3   4
ENDBRANCH   2   3
TORSDOF 7
ENDMDL
MODEL      159
REMARK 921   NORMALIZED FREE ENERGY PREDICTED BY IDOCK:   -3.74 KCAL/MOL
REMARK 922        TOTAL FREE ENERGY PREDICTED BY IDOCK:   -6.23 KCAL/MOL
REMARK 923 INTER-LIGAND FREE ENERGY PREDICTED BY IDOCK:   -5.89 KCAL/MOL
REMARK 924 INTRA-LIGAND FREE ENERGY PREDICTED BY IDOCK:   -0.34 KCAL/MOL
REMARK 927      BINDING AFFINITY PREDICTED BY RF-SCORE:    0.00 PKD
ROOT
HETATM    1  C   UNL     1      -9.404   2.451  69.198  1.00  0.00    -0.191 C  
HETATM    2  C   UNL     1      -7.942   2.633  69.579  1.00  0.00    -0.053 C  
ENDROOT
BRANCH   2   3
HETATM    3  C   UNL     1      -7.818   3.416  70.884  1.00  0.00    -0.047 C  
BRANCH   3   4
HETATM    4  C   UNL     1      -9.085   3.382  71.720  1.00  0.00    -0.111 C  
HETATM    5  O   UNL     1      -9.495   2.366  72.281  1.00  0.00    -0.087 OA 
BRANCH   4   6
HETATM    6  C   UNL     1      -9.833   4.665  71.896  1.00  0.00    -0.241 A  
HETATM    7  C   UNL     1      -9.702   5.666  70.918  1.00  0.00    -0.223 A  
HETATM    8  C   UNL     1     -10.405   6.897  70.972  1.00  0.00    -0.205 A  
HETATM    9  C   UNL     1     -11.235   7.076  72.094  1.00  0.00    -0.256 A  
HETATM   10  S   UNL     1     -12.219   8.518  72.388  1.00  0.00    -0.310 SA 
HETATM   11  C   UNL     1     -11.351   6.081  73.084  1.00  0.00    -0.098 A  
HETATM   12  C   UNL     1     -11.828   9.542  70.996  1.00  0.00    -0.330 A  
HETATM   13  C   UNL     1     -10.659   4.880  72.989  1.00  0.00    -0.280 A  
HETATM   14  C   UNL     1     -12.482  10.793  70.994  1.00  0.00    -0.522 A  
HETATM   15  C   UNL     1     -12.284  11.707  69.974  1.00  0.00    -0.338 A  
HETATM   16  C   UNL     1     -11.425  11.379  68.941  1.00  0.00    -0.363 A  
HETATM   17  C   UNL     1     -10.771  10.137  68.940  1.00  0.00    -0.249 A  
HETATM   18  C   UNL     1     -10.945   9.169  69.959  1.00  0.00    -0.220 A  
HETATM   19  N   UNL     1     -10.286   7.900  69.955  1.00  0.00    -0.205 NA 
BRANCH  19  20
HETATM   20  C   UNL     1      -9.437   7.546  68.794  1.00  0.00    -0.148 C  
BRANCH  20  21
HETATM   21  C   UNL     1      -8.077   8.267  68.802  1.00  0.00    -0.115 C  
BRANCH  21  22
HETATM   22  C   UNL     1      -7.724   8.853  67.435  1.00  0.00    -0.096 C  
BRANCH  22  23
HETATM   23  N   UNL     1      -8.486   8.281  66.304  1.00  0.00    -0.122 NA 
HETATM   24  C   UNL     1      -9.581   9.211  65.930  1.00  0.00    -0.273 C  
HETATM   25  C   UNL     1      -9.087  10.537  65.295  1.00  0.00    -0.190 C  
HETATM   26  N   UNL     1      -8.181  10.371  64.138  1.00  0.00    -0.149 NA 
HETATM   27  C   UNL     1      -7.144   9.356  64.430  1.00  0.00    -0.101 C  
HETATM   28  C   UNL     1      -8.937  10.011  62.939  1.00  0.00    -0.262 C  
HETATM   29  C   UNL     1      -7.667   8.059  65.093  1.00  0.00    -0.105 C  
ENDBRANCH  22  23
ENDBRANCH  21  22
ENDBRANCH  20  21
ENDBRANCH  19  20
ENDBRANCH   4   6
ENDBRANCH   3   4
ENDBRANCH   2   3
TORSDOF 7
ENDMDL
MODEL      160
REMARK 921   NORMALIZED FREE ENERGY PREDICTED BY IDOCK:   -3.72 KCAL/MOL
REMARK 922        TOTAL FREE ENERGY PREDICTED BY IDOCK:   -6.20 KCAL/MOL
REMARK 923 INTER-LIGAND FREE ENERGY PREDICTED BY IDOCK:   -5.06 KCAL/MOL
REMARK 924 INTRA-LIGAND FREE ENERGY PREDICTED BY IDOCK:   -1.14 KCAL/MOL
REMARK 927      BINDING AFFINITY PREDICTED BY RF-SCORE:    0.00 PKD
ROOT
HETATM    1  C   UNL     1      -6.652  12.970  69.156  1.00  0.00    -0.104 C  
HETATM    2  C   UNL     1      -6.844  11.460  69.149  1.00  0.00    -0.111 C  
ENDROOT
BRANCH   2   3
HETATM    3  C   UNL     1      -6.103  10.816  70.318  1.00  0.00    -0.133 C  
BRANCH   3   4
HETATM    4  C   UNL     1      -6.713   9.495  70.752  1.00  0.00    -0.105 C  
HETATM    5  O   UNL     1      -7.264   9.333  71.840  1.00  0.00    -0.326 OA 
BRANCH   4   6
HETATM    6  C   UNL     1      -6.671   8.360  69.779  1.00  0.00    -0.039 A  
HETATM    7  C   UNL     1      -7.864   7.959  69.153  1.00  0.00    -0.109 A  
HETATM    8  C   UNL     1      -7.919   6.926  68.183  1.00  0.00    -0.115 A  
HETATM    9  C   UNL     1      -6.695   6.293  67.895  1.00  0.00    -0.064 A  
HETATM   10  S   UNL     1      -6.499   4.984  66.721  1.00  0.00    -0.042 SA 
HETATM   11  C   UNL     1      -5.503   6.682  68.537  1.00  0.00    -0.016 A  
HETATM   12  C   UNL     1      -8.152   4.743  66.133  1.00  0.00    -0.107 A  
HETATM   13  C   UNL     1      -5.485   7.710  69.471  1.00  0.00    -0.023 A  
HETATM   14  C   UNL     1      -8.283   3.715  65.173  1.00  0.00    -0.097 A  
HETATM   15  C   UNL     1      -9.511   3.404  64.615  1.00  0.00    -0.154 A  
HETATM   16  C   UNL     1     -10.626   4.119  65.012  1.00  0.00    -0.158 A  
HETATM   17  C   UNL     1     -10.500   5.141  65.967  1.00  0.00    -0.241 A  
HETATM   18  C   UNL     1      -9.266   5.497  66.563  1.00  0.00    -0.141 A  
HETATM   19  N   UNL     1      -9.136   6.543  67.529  1.00  0.00    -0.116 NA 
BRANCH  19  20
HETATM   20  C   UNL     1     -10.334   7.344  67.873  1.00  0.00    -0.204 C  
BRANCH  20  21
HETATM   21  C   UNL     1     -10.486   8.602  66.999  1.00  0.00    -0.354 C  
BRANCH  21  22
HETATM   22  C   UNL     1     -10.670   9.869  67.834  1.00  0.00    -0.265 C  
BRANCH  22  23
HETATM   23  N   UNL     1     -11.531  10.897  67.210  1.00  0.00    -0.451 NA 
HETATM   24  C   UNL     1     -11.730  12.016  68.166  1.00  0.00    -0.333 C  
HETATM   25  C   UNL     1     -10.447  12.846  68.432  1.00  0.00    -0.251 C  
HETATM   26  N   UNL     1      -9.780  13.363  67.219  1.00  0.00    -0.226 NA 
HETATM   27  C   UNL     1      -9.674  12.304  66.190  1.00  0.00    -0.245 C  
HETATM   28  C   UNL     1     -10.494  14.527  66.694  1.00  0.00    -0.274 C  
HETATM   29  C   UNL     1     -10.963  11.473  65.973  1.00  0.00    -0.259 C  
ENDBRANCH  22  23
ENDBRANCH  21  22
ENDBRANCH  20  21
ENDBRANCH  19  20
ENDBRANCH   4   6
ENDBRANCH   3   4
ENDBRANCH   2   3
TORSDOF 7
ENDMDL
MODEL      161
REMARK 921   NORMALIZED FREE ENERGY PREDICTED BY IDOCK:   -3.71 KCAL/MOL
REMARK 922        TOTAL FREE ENERGY PREDICTED BY IDOCK:   -6.19 KCAL/MOL
REMARK 923 INTER-LIGAND FREE ENERGY PREDICTED BY IDOCK:   -5.50 KCAL/MOL
REMARK 924 INTRA-LIGAND FREE ENERGY PREDICTED BY IDOCK:   -0.69 KCAL/MOL
REMARK 927      BINDING AFFINITY PREDICTED BY RF-SCORE:    0.00 PKD
ROOT
HETATM    1  C   UNL     1      -7.233  15.520  67.654  1.00  0.00    -0.203 C  
HETATM    2  C   UNL     1      -8.627  14.920  67.763  1.00  0.00    -0.171 C  
ENDROOT
BRANCH   2   3
HETATM    3  C   UNL     1      -8.582  13.408  67.555  1.00  0.00    -0.200 C  
BRANCH   3   4
HETATM    4  C   UNL     1      -9.960  12.790  67.388  1.00  0.00    -0.212 C  
HETATM    5  O   UNL     1     -10.695  13.033  66.432  1.00  0.00    -0.278 OA 
BRANCH   4   6
HETATM    6  C   UNL     1     -10.408  11.808  68.422  1.00  0.00    -0.223 A  
HETATM    7  C   UNL     1      -9.857  10.515  68.414  1.00  0.00    -0.171 A  
HETATM    8  C   UNL     1     -10.183   9.528  69.379  1.00  0.00    -0.206 A  
HETATM    9  C   UNL     1     -11.127   9.913  70.349  1.00  0.00    -0.319 A  
HETATM   10  S   UNL     1     -11.693   8.870  71.662  1.00  0.00    -0.368 SA 
HETATM   11  C   UNL     1     -11.694  11.203  70.347  1.00  0.00    -0.415 A  
HETATM   12  C   UNL     1     -10.814   7.361  71.360  1.00  0.00    -0.229 A  
HETATM   13  C   UNL     1     -11.337  12.148  69.393  1.00  0.00    -0.311 A  
HETATM   14  C   UNL     1     -11.104   6.327  72.277  1.00  0.00    -0.311 A  
HETATM   15  C   UNL     1     -10.498   5.087  72.179  1.00  0.00    -0.274 A  
HETATM   16  C   UNL     1      -9.593   4.865  71.157  1.00  0.00    -0.232 A  
HETATM   17  C   UNL     1      -9.303   5.890  70.242  1.00  0.00    -0.181 A  
HETATM   18  C   UNL     1      -9.894   7.175  70.304  1.00  0.00    -0.176 A  
HETATM   19  N   UNL     1      -9.594   8.221  69.378  1.00  0.00    -0.169 NA 
BRANCH  19  20
HETATM   20  C   UNL     1      -8.560   7.979  68.345  1.00  0.00    -0.127 C  
BRANCH  20  21
HETATM   21  C   UNL     1      -9.140   7.426  67.032  1.00  0.00    -0.155 C  
BRANCH  21  22
HETATM   22  C   UNL     1      -8.107   7.404  65.906  1.00  0.00    -0.128 C  
BRANCH  22  23
HETATM   23  N   UNL     1      -7.329   6.150  65.809  1.00  0.00    -0.078 NA 
HETATM   24  C   UNL     1      -8.261   5.005  65.649  1.00  0.00    -0.117 C  
HETATM   25  C   UNL     1      -8.998   4.986  64.285  1.00  0.00    -0.013 C  
HETATM   26  N   UNL     1      -8.116   5.056  63.101  1.00  0.00    -0.092 NA 
HETATM   27  C   UNL     1      -7.091   6.109  63.277  1.00  0.00    -0.052 C  
HETATM   28  C   UNL     1      -7.491   3.759  62.847  1.00  0.00    -0.053 C  
HETATM   29  C   UNL     1      -6.397   6.120  64.661  1.00  0.00    -0.033 C  
ENDBRANCH  22  23
ENDBRANCH  21  22
ENDBRANCH  20  21
ENDBRANCH  19  20
ENDBRANCH   4   6
ENDBRANCH   3   4
ENDBRANCH   2   3
TORSDOF 7
ENDMDL
MODEL      162
REMARK 921   NORMALIZED FREE ENERGY PREDICTED BY IDOCK:   -3.70 KCAL/MOL
REMARK 922        TOTAL FREE ENERGY PREDICTED BY IDOCK:   -6.17 KCAL/MOL
REMARK 923 INTER-LIGAND FREE ENERGY PREDICTED BY IDOCK:   -5.26 KCAL/MOL
REMARK 924 INTRA-LIGAND FREE ENERGY PREDICTED BY IDOCK:   -0.91 KCAL/MOL
REMARK 927      BINDING AFFINITY PREDICTED BY RF-SCORE:    0.00 PKD
ROOT
HETATM    1  C   UNL     1      -7.841  13.423  67.473  1.00  0.00    -0.181 C  
HETATM    2  C   UNL     1      -8.910  12.355  67.297  1.00  0.00    -0.192 C  
ENDROOT
BRANCH   2   3
HETATM    3  C   UNL     1      -8.344  10.970  67.598  1.00  0.00    -0.117 C  
BRANCH   3   4
HETATM    4  C   UNL     1      -9.363   9.859  67.412  1.00  0.00    -0.137 C  
HETATM    5  O   UNL     1      -9.732   9.462  66.308  1.00  0.00    -0.220 OA 
BRANCH   4   6
HETATM    6  C   UNL     1      -9.897   9.197  68.642  1.00  0.00    -0.175 A  
HETATM    7  C   UNL     1      -9.587   7.847  68.876  1.00  0.00    -0.155 A  
HETATM    8  C   UNL     1     -10.007   7.145  70.034  1.00  0.00    -0.179 A  
HETATM    9  C   UNL     1     -10.790   7.881  70.943  1.00  0.00    -0.234 A  
HETATM   10  S   UNL     1     -11.430   7.237  72.462  1.00  0.00    -0.257 SA 
HETATM   11  C   UNL     1     -11.118   9.230  70.699  1.00  0.00    -0.335 A  
HETATM   12  C   UNL     1     -10.859   5.560  72.439  1.00  0.00    -0.248 A  
HETATM   13  C   UNL     1     -10.674   9.888  69.559  1.00  0.00    -0.265 A  
HETATM   14  C   UNL     1     -11.256   4.797  73.559  1.00  0.00    -0.392 A  
HETATM   15  C   UNL     1     -10.889   3.469  73.692  1.00  0.00    -0.324 A  
HETATM   16  C   UNL     1     -10.119   2.887  72.702  1.00  0.00    -0.232 A  
HETATM   17  C   UNL     1      -9.723   3.642  71.586  1.00  0.00    -0.236 A  
HETATM   18  C   UNL     1     -10.071   5.003  71.408  1.00  0.00    -0.199 A  
HETATM   19  N   UNL     1      -9.662   5.775  70.277  1.00  0.00    -0.169 NA 
BRANCH  19  20
HETATM   20  C   UNL     1      -8.769   5.146  69.275  1.00  0.00    -0.096 C  
BRANCH  20  21
HETATM   21  C   UNL     1      -9.523   4.250  68.278  1.00  0.00    -0.212 C  
BRANCH  21  22
HETATM   22  C   UNL     1      -8.639   3.811  67.110  1.00  0.00    -0.107 C  
BRANCH  22  23
HETATM   23  N   UNL     1      -9.227   4.042  65.773  1.00  0.00    -0.142 NA 
HETATM   24  C   UNL     1      -9.657   5.459  65.664  1.00  0.00     0.001 C  
HETATM   25  C   UNL     1      -8.480   6.468  65.632  1.00  0.00    -0.144 C  
HETATM   26  N   UNL     1      -7.455   6.196  64.602  1.00  0.00    -0.079 NA 
HETATM   27  C   UNL     1      -7.090   4.762  64.597  1.00  0.00    -0.058 C  
HETATM   28  C   UNL     1      -7.927   6.617  63.283  1.00  0.00    -0.076 C  
HETATM   29  C   UNL     1      -8.287   3.782  64.662  1.00  0.00    -0.097 C  
ENDBRANCH  22  23
ENDBRANCH  21  22
ENDBRANCH  20  21
ENDBRANCH  19  20
ENDBRANCH   4   6
ENDBRANCH   3   4
ENDBRANCH   2   3
TORSDOF 7
ENDMDL
MODEL      163
REMARK 921   NORMALIZED FREE ENERGY PREDICTED BY IDOCK:   -3.69 KCAL/MOL
REMARK 922        TOTAL FREE ENERGY PREDICTED BY IDOCK:   -6.16 KCAL/MOL
REMARK 923 INTER-LIGAND FREE ENERGY PREDICTED BY IDOCK:   -5.19 KCAL/MOL
REMARK 924 INTRA-LIGAND FREE ENERGY PREDICTED BY IDOCK:   -0.97 KCAL/MOL
REMARK 927      BINDING AFFINITY PREDICTED BY RF-SCORE:    0.00 PKD
ROOT
HETATM    1  C   UNL     1      -5.941   9.128  65.799  1.00  0.00    -0.051 C  
HETATM    2  C   UNL     1      -6.489   8.444  64.555  1.00  0.00    -0.066 C  
ENDROOT
BRANCH   2   3
HETATM    3  C   UNL     1      -8.014   8.392  64.595  1.00  0.00    -0.147 C  
BRANCH   3   4
HETATM    4  C   UNL     1      -8.666   9.252  63.526  1.00  0.00    -0.169 C  
HETATM    5  O   UNL     1      -8.715   8.931  62.340  1.00  0.00    -0.222 OA 
BRANCH   4   6
HETATM    6  C   UNL     1      -9.314  10.527  63.965  1.00  0.00    -0.308 A  
HETATM    7  C   UNL     1      -8.940  11.089  65.197  1.00  0.00    -0.159 A  
HETATM    8  C   UNL     1      -9.463  12.317  65.678  1.00  0.00    -0.068 A  
HETATM    9  C   UNL     1     -10.415  12.940  64.851  1.00  0.00    -0.331 A  
HETATM   10  S   UNL     1     -11.208  14.478  65.222  1.00  0.00    -0.371 SA 
HETATM   11  C   UNL     1     -10.804  12.366  63.624  1.00  0.00    -0.509 A  
HETATM   12  C   UNL     1     -10.518  14.896  66.799  1.00  0.00    -0.284 A  
HETATM   13  C   UNL     1     -10.258  11.169  63.179  1.00  0.00    -0.347 A  
HETATM   14  C   UNL     1     -11.008  16.102  67.346  1.00  0.00    -0.210 A  
HETATM   15  C   UNL     1     -10.565  16.568  68.572  1.00  0.00    -0.318 A  
HETATM   16  C   UNL     1      -9.626  15.830  69.268  1.00  0.00    -0.270 A  
HETATM   17  C   UNL     1      -9.137  14.630  68.729  1.00  0.00    -0.178 A  
HETATM   18  C   UNL     1      -9.556  14.114  67.478  1.00  0.00    -0.223 A  
HETATM   19  N   UNL     1      -9.054  12.896  66.924  1.00  0.00    -0.224 NA 
BRANCH  19  20
HETATM   20  C   UNL     1      -7.988  12.171  67.656  1.00  0.00    -0.157 C  
BRANCH  20  21
HETATM   21  C   UNL     1      -8.540  11.114  68.628  1.00  0.00    -0.151 C  
BRANCH  21  22
HETATM   22  C   UNL     1      -7.528  10.738  69.710  1.00  0.00    -0.018 C  
BRANCH  22  23
HETATM   23  N   UNL     1      -6.824   9.459  69.477  1.00  0.00    -0.047 NA 
HETATM   24  C   UNL     1      -5.437   9.560  69.998  1.00  0.00    -0.032 C  
HETATM   25  C   UNL     1      -5.355   9.648  71.544  1.00  0.00    -0.072 C  
HETATM   26  N   UNL     1      -6.063   8.570  72.266  1.00  0.00    -0.065 NA 
HETATM   27  C   UNL     1      -7.410   8.355  71.691  1.00  0.00    -0.098 C  
HETATM   28  C   UNL     1      -5.283   7.333  72.238  1.00  0.00    -0.036 C  
HETATM   29  C   UNL     1      -7.460   8.304  70.145  1.00  0.00    -0.060 C  
ENDBRANCH  22  23
ENDBRANCH  21  22
ENDBRANCH  20  21
ENDBRANCH  19  20
ENDBRANCH   4   6
ENDBRANCH   3   4
ENDBRANCH   2   3
TORSDOF 7
ENDMDL
MODEL      164
REMARK 921   NORMALIZED FREE ENERGY PREDICTED BY IDOCK:   -3.68 KCAL/MOL
REMARK 922        TOTAL FREE ENERGY PREDICTED BY IDOCK:   -6.15 KCAL/MOL
REMARK 923 INTER-LIGAND FREE ENERGY PREDICTED BY IDOCK:   -5.19 KCAL/MOL
REMARK 924 INTRA-LIGAND FREE ENERGY PREDICTED BY IDOCK:   -0.96 KCAL/MOL
REMARK 927      BINDING AFFINITY PREDICTED BY RF-SCORE:    0.00 PKD
ROOT
HETATM    1  C   UNL     1      -6.372   3.358  69.256  1.00  0.00    -0.029 C  
HETATM    2  C   UNL     1      -6.995   4.576  68.589  1.00  0.00    -0.052 C  
ENDROOT
BRANCH   2   3
HETATM    3  C   UNL     1      -8.337   4.217  67.956  1.00  0.00    -0.098 C  
BRANCH   3   4
HETATM    4  C   UNL     1      -8.394   4.526  66.470  1.00  0.00    -0.106 C  
HETATM    5  O   UNL     1      -8.423   3.655  65.601  1.00  0.00    -0.107 OA 
BRANCH   4   6
HETATM    6  C   UNL     1      -8.464   5.964  66.065  1.00  0.00    -0.137 A  
HETATM    7  C   UNL     1      -9.328   6.825  66.763  1.00  0.00    -0.189 A  
HETATM    8  C   UNL     1      -9.431   8.211  66.485  1.00  0.00    -0.221 A  
HETATM    9  C   UNL     1      -8.624   8.683  65.432  1.00  0.00    -0.181 A  
HETATM   10  S   UNL     1      -8.566  10.369  64.897  1.00  0.00    -0.178 SA 
HETATM   11  C   UNL     1      -7.772   7.817  64.719  1.00  0.00    -0.119 A  
HETATM   12  C   UNL     1      -9.740  11.154  65.967  1.00  0.00    -0.226 A  
HETATM   13  C   UNL     1      -7.687   6.466  65.032  1.00  0.00    -0.098 A  
HETATM   14  C   UNL     1      -9.905  12.537  65.733  1.00  0.00    -0.244 A  
HETATM   15  C   UNL     1     -10.784  13.294  66.488  1.00  0.00    -0.290 A  
HETATM   16  C   UNL     1     -11.513  12.675  67.486  1.00  0.00    -0.397 A  
HETATM   17  C   UNL     1     -11.353  11.300  67.720  1.00  0.00    -0.354 A  
HETATM   18  C   UNL     1     -10.464  10.485  66.979  1.00  0.00    -0.249 A  
HETATM   19  N   UNL     1     -10.295   9.086  67.222  1.00  0.00    -0.257 NA 
BRANCH  19  20
HETATM   20  C   UNL     1     -11.028   8.469  68.352  1.00  0.00     0.202 C  
BRANCH  20  21
HETATM   21  C   UNL     1     -10.206   8.430  69.652  1.00  0.00    -0.209 C  
BRANCH  21  22
HETATM   22  C   UNL     1     -11.062   8.080  70.869  1.00  0.00    -0.255 C  
BRANCH  22  23
HETATM   23  N   UNL     1     -11.499   6.668  70.928  1.00  0.00    -0.327 NA 
HETATM   24  C   UNL     1     -10.344   5.784  70.629  1.00  0.00    -0.245 C  
HETATM   25  C   UNL     1      -9.252   5.788  71.730  1.00  0.00    -0.145 C  
HETATM   26  N   UNL     1      -9.743   5.492  73.092  1.00  0.00    -0.149 NA 
HETATM   27  C   UNL     1     -10.970   6.266  73.383  1.00  0.00    -0.147 C  
HETATM   28  C   UNL     1      -9.982   4.058  73.253  1.00  0.00    -0.137 C  
HETATM   29  C   UNL     1     -12.026   6.268  72.250  1.00  0.00    -0.247 C  
ENDBRANCH  22  23
ENDBRANCH  21  22
ENDBRANCH  20  21
ENDBRANCH  19  20
ENDBRANCH   4   6
ENDBRANCH   3   4
ENDBRANCH   2   3
TORSDOF 7
ENDMDL
MODEL      165
REMARK 921   NORMALIZED FREE ENERGY PREDICTED BY IDOCK:   -3.66 KCAL/MOL
REMARK 922        TOTAL FREE ENERGY PREDICTED BY IDOCK:   -6.12 KCAL/MOL
REMARK 923 INTER-LIGAND FREE ENERGY PREDICTED BY IDOCK:   -5.27 KCAL/MOL
REMARK 924 INTRA-LIGAND FREE ENERGY PREDICTED BY IDOCK:   -0.85 KCAL/MOL
REMARK 927      BINDING AFFINITY PREDICTED BY RF-SCORE:    0.00 PKD
ROOT
HETATM    1  C   UNL     1      -8.900   2.292  63.331  1.00  0.00    -0.085 C  
HETATM    2  C   UNL     1      -9.821   3.456  63.001  1.00  0.00    -0.118 C  
ENDROOT
BRANCH   2   3
HETATM    3  C   UNL     1     -10.398   4.067  64.276  1.00  0.00    -0.203 C  
BRANCH   3   4
HETATM    4  C   UNL     1      -9.380   4.877  65.060  1.00  0.00    -0.067 C  
HETATM    5  O   UNL     1      -8.587   5.654  64.532  1.00  0.00    -0.110 OA 
BRANCH   4   6
HETATM    6  C   UNL     1      -9.389   4.743  66.549  1.00  0.00    -0.145 A  
HETATM    7  C   UNL     1      -9.228   5.897  67.336  1.00  0.00    -0.108 A  
HETATM    8  C   UNL     1      -9.268   5.879  68.753  1.00  0.00    -0.115 A  
HETATM    9  C   UNL     1      -9.455   4.615  69.342  1.00  0.00    -0.169 A  
HETATM   10  S   UNL     1      -9.548   4.329  71.086  1.00  0.00    -0.190 SA 
HETATM   11  C   UNL     1      -9.598   3.455  68.555  1.00  0.00    -0.138 A  
HETATM   12  C   UNL     1      -9.318   5.954  71.755  1.00  0.00    -0.148 A  
HETATM   13  C   UNL     1      -9.569   3.515  67.167  1.00  0.00    -0.160 A  
HETATM   14  C   UNL     1      -9.331   6.007  73.167  1.00  0.00    -0.139 A  
HETATM   15  C   UNL     1      -9.166   7.204  73.843  1.00  0.00    -0.270 A  
HETATM   16  C   UNL     1      -8.984   8.364  73.113  1.00  0.00    -0.221 A  
HETATM   17  C   UNL     1      -8.969   8.315  71.710  1.00  0.00    -0.241 A  
HETATM   18  C   UNL     1      -9.137   7.116  70.974  1.00  0.00    -0.151 A  
HETATM   19  N   UNL     1      -9.130   7.066  69.545  1.00  0.00    -0.146 NA 
BRANCH  19  20
HETATM   20  C   UNL     1      -9.016   8.337  68.792  1.00  0.00    -0.144 C  
BRANCH  20  21
HETATM   21  C   UNL     1     -10.382   8.948  68.434  1.00  0.00    -0.237 C  
BRANCH  21  22
HETATM   22  C   UNL     1     -10.257  10.375  67.900  1.00  0.00    -0.179 C  
BRANCH  22  23
HETATM   23  N   UNL     1     -11.546  11.066  67.684  1.00  0.00    -0.562 NA 
HETATM   24  C   UNL     1     -12.094  11.503  68.993  1.00  0.00    -0.238 C  
HETATM   25  C   UNL     1     -11.276  12.636  69.667  1.00  0.00    -0.007 C  
HETATM   26  N   UNL     1     -11.048  13.826  68.820  1.00  0.00    -0.256 NA 
HETATM   27  C   UNL     1     -10.618  13.424  67.462  1.00  0.00    -0.250 C  
HETATM   28  C   UNL     1     -12.253  14.653  68.759  1.00  0.00    -0.119 C  
HETATM   29  C   UNL     1     -11.435  12.269  66.832  1.00  0.00    -0.356 C  
ENDBRANCH  22  23
ENDBRANCH  21  22
ENDBRANCH  20  21
ENDBRANCH  19  20
ENDBRANCH   4   6
ENDBRANCH   3   4
ENDBRANCH   2   3
TORSDOF 7
ENDMDL
MODEL      166
REMARK 921   NORMALIZED FREE ENERGY PREDICTED BY IDOCK:   -3.62 KCAL/MOL
REMARK 922        TOTAL FREE ENERGY PREDICTED BY IDOCK:   -6.06 KCAL/MOL
REMARK 923 INTER-LIGAND FREE ENERGY PREDICTED BY IDOCK:   -5.44 KCAL/MOL
REMARK 924 INTRA-LIGAND FREE ENERGY PREDICTED BY IDOCK:   -0.61 KCAL/MOL
REMARK 927      BINDING AFFINITY PREDICTED BY RF-SCORE:    0.00 PKD
ROOT
HETATM    1  C   UNL     1      -6.512   7.487  68.086  1.00  0.00    -0.049 C  
HETATM    2  C   UNL     1      -5.857   8.593  67.273  1.00  0.00    -0.043 C  
ENDROOT
BRANCH   2   3
HETATM    3  C   UNL     1      -6.478   9.948  67.606  1.00  0.00    -0.064 C  
BRANCH   3   4
HETATM    4  C   UNL     1      -7.621  10.322  66.679  1.00  0.00    -0.110 C  
HETATM    5  O   UNL     1      -7.807   9.785  65.588  1.00  0.00    -0.107 OA 
BRANCH   4   6
HETATM    6  C   UNL     1      -8.583  11.364  67.153  1.00  0.00    -0.151 A  
HETATM    7  C   UNL     1      -9.400  11.081  68.261  1.00  0.00    -0.172 A  
HETATM    8  C   UNL     1     -10.309  12.019  68.812  1.00  0.00    -0.160 A  
HETATM    9  C   UNL     1     -10.370  13.265  68.160  1.00  0.00    -0.244 A  
HETATM   10  S   UNL     1     -11.416  14.603  68.658  1.00  0.00    -0.318 SA 
HETATM   11  C   UNL     1      -9.565  13.543  67.038  1.00  0.00    -0.248 A  
HETATM   12  C   UNL     1     -12.278  13.921  70.048  1.00  0.00    -0.344 A  
HETATM   13  C   UNL     1      -8.674  12.603  66.535  1.00  0.00    -0.011 A  
HETATM   14  C   UNL     1     -13.213  14.799  70.638  1.00  0.00    -0.292 A  
HETATM   15  C   UNL     1     -13.966  14.417  71.735  1.00  0.00    -0.537 A  
HETATM   16  C   UNL     1     -13.792  13.148  72.255  1.00  0.00    -0.586 A  
HETATM   17  C   UNL     1     -12.864  12.271  71.671  1.00  0.00    -0.378 A  
HETATM   18  C   UNL     1     -12.069  12.618  70.551  1.00  0.00    -0.275 A  
HETATM   19  N   UNL     1     -11.118  11.729  69.960  1.00  0.00     0.081 NA 
BRANCH  19  20
HETATM   20  C   UNL     1     -10.895  10.407  70.590  1.00  0.00    -0.018 C  
BRANCH  20  21
HETATM   21  C   UNL     1     -11.442   9.241  69.749  1.00  0.00     0.059 C  
BRANCH  21  22
HETATM   22  C   UNL     1     -10.589   7.980  69.882  1.00  0.00    -0.242 C  
BRANCH  22  23
HETATM   23  N   UNL     1     -11.303   6.719  69.588  1.00  0.00    -0.293 NA 
HETATM   24  C   UNL     1     -11.084   6.352  68.166  1.00  0.00    -0.263 C  
HETATM   25  C   UNL     1      -9.626   5.931  67.846  1.00  0.00    -0.115 C  
HETATM   26  N   UNL     1      -9.086   4.858  68.708  1.00  0.00    -0.107 NA 
HETATM   27  C   UNL     1      -9.394   5.128  70.130  1.00  0.00    -0.154 C  
HETATM   28  C   UNL     1      -9.612   3.556  68.300  1.00  0.00    -0.095 C  
HETATM   29  C   UNL     1     -10.849   5.577  70.410  1.00  0.00    -0.204 C  
ENDBRANCH  22  23
ENDBRANCH  21  22
ENDBRANCH  20  21
ENDBRANCH  19  20
ENDBRANCH   4   6
ENDBRANCH   3   4
ENDBRANCH   2   3
TORSDOF 7
ENDMDL
MODEL      167
REMARK 921   NORMALIZED FREE ENERGY PREDICTED BY IDOCK:   -3.61 KCAL/MOL
REMARK 922        TOTAL FREE ENERGY PREDICTED BY IDOCK:   -6.04 KCAL/MOL
REMARK 923 INTER-LIGAND FREE ENERGY PREDICTED BY IDOCK:   -5.40 KCAL/MOL
REMARK 924 INTRA-LIGAND FREE ENERGY PREDICTED BY IDOCK:   -0.64 KCAL/MOL
REMARK 927      BINDING AFFINITY PREDICTED BY RF-SCORE:    0.00 PKD
ROOT
HETATM    1  C   UNL     1     -10.514  19.964  66.701  1.00  0.00    -0.580 C  
HETATM    2  C   UNL     1     -10.178  19.744  68.168  1.00  0.00    -0.577 C  
ENDROOT
BRANCH   2   3
HETATM    3  C   UNL     1      -9.347  18.476  68.348  1.00  0.00    -0.359 C  
BRANCH   3   4
HETATM    4  C   UNL     1     -10.186  17.209  68.337  1.00  0.00    -0.340 C  
HETATM    5  O   UNL     1     -11.413  17.214  68.414  1.00  0.00     0.019 OA 
BRANCH   4   6
HETATM    6  C   UNL     1      -9.469  15.907  68.178  1.00  0.00    -0.203 A  
HETATM    7  C   UNL     1     -10.222  14.725  68.072  1.00  0.00    -0.226 A  
HETATM    8  C   UNL     1      -9.637  13.449  67.874  1.00  0.00    -0.216 A  
HETATM    9  C   UNL     1      -8.231  13.426  67.813  1.00  0.00    -0.172 A  
HETATM   10  S   UNL     1      -7.266  11.963  67.565  1.00  0.00    -0.136 SA 
HETATM   11  C   UNL     1      -7.474  14.607  67.938  1.00  0.00    -0.158 A  
HETATM   12  C   UNL     1      -8.502  10.697  67.470  1.00  0.00    -0.121 A  
HETATM   13  C   UNL     1      -8.085  15.842  68.116  1.00  0.00    -0.145 A  
HETATM   14  C   UNL     1      -7.987   9.395  67.288  1.00  0.00    -0.106 A  
HETATM   15  C   UNL     1      -8.824   8.297  67.192  1.00  0.00    -0.145 A  
HETATM   16  C   UNL     1     -10.191   8.489  67.279  1.00  0.00    -0.346 A  
HETATM   17  C   UNL     1     -10.707   9.782  67.462  1.00  0.00    -0.327 A  
HETATM   18  C   UNL     1      -9.892  10.936  67.562  1.00  0.00    -0.168 A  
HETATM   19  N   UNL     1     -10.416  12.253  67.739  1.00  0.00    -0.206 NA 
BRANCH  19  20
HETATM   20  C   UNL     1     -11.887  12.436  67.746  1.00  0.00    -0.298 C  
BRANCH  20  21
HETATM   21  C   UNL     1     -12.534  12.049  69.088  1.00  0.00     0.298 C  
BRANCH  21  22
HETATM   22  C   UNL     1     -11.992  12.878  70.253  1.00  0.00    -0.283 C  
BRANCH  22  23
HETATM   23  N   UNL     1     -12.920  13.012  71.396  1.00  0.00    -0.334 NA 
HETATM   24  C   UNL     1     -12.165  13.468  72.590  1.00  0.00     0.886 C  
HETATM   25  C   UNL     1     -11.640  14.923  72.481  1.00  0.00    -0.122 C  
HETATM   26  N   UNL     1     -12.670  15.931  72.150  1.00  0.00    -0.446 NA 
HETATM   27  C   UNL     1     -13.526  15.457  71.040  1.00  0.00    -0.444 C  
HETATM   28  C   UNL     1     -13.476  16.249  73.329  1.00  0.00    -0.196 C  
HETATM   29  C   UNL     1     -14.005  13.990  71.165  1.00  0.00     0.050 C  
ENDBRANCH  22  23
ENDBRANCH  21  22
ENDBRANCH  20  21
ENDBRANCH  19  20
ENDBRANCH   4   6
ENDBRANCH   3   4
ENDBRANCH   2   3
TORSDOF 7
ENDMDL
MODEL      168
REMARK 921   NORMALIZED FREE ENERGY PREDICTED BY IDOCK:   -3.61 KCAL/MOL
REMARK 922        TOTAL FREE ENERGY PREDICTED BY IDOCK:   -6.04 KCAL/MOL
REMARK 923 INTER-LIGAND FREE ENERGY PREDICTED BY IDOCK:   -5.24 KCAL/MOL
REMARK 924 INTRA-LIGAND FREE ENERGY PREDICTED BY IDOCK:   -0.80 KCAL/MOL
REMARK 927      BINDING AFFINITY PREDICTED BY RF-SCORE:    0.00 PKD
ROOT
HETATM    1  C   UNL     1     -12.426  13.722  63.499  1.00  0.00    -0.057 C  
HETATM    2  C   UNL     1     -11.950  12.282  63.377  1.00  0.00    -0.588 C  
ENDROOT
BRANCH   2   3
HETATM    3  C   UNL     1     -10.774  12.021  64.316  1.00  0.00    -0.382 C  
BRANCH   3   4
HETATM    4  C   UNL     1      -9.673  11.196  63.672  1.00  0.00    -0.317 C  
HETATM    5  O   UNL     1      -9.412  11.241  62.471  1.00  0.00    -0.299 OA 
BRANCH   4   6
HETATM    6  C   UNL     1      -8.847  10.328  64.567  1.00  0.00    -0.223 A  
HETATM    7  C   UNL     1      -8.567  10.770  65.872  1.00  0.00    -0.182 A  
HETATM    8  C   UNL     1      -7.832   9.999  66.809  1.00  0.00    -0.110 A  
HETATM    9  C   UNL     1      -7.367   8.755  66.343  1.00  0.00    -0.084 A  
HETATM   10  S   UNL     1      -6.435   7.609  67.318  1.00  0.00    -0.060 SA 
HETATM   11  C   UNL     1      -7.631   8.321  65.029  1.00  0.00    -0.095 A  
HETATM   12  C   UNL     1      -6.274   8.460  68.864  1.00  0.00    -0.044 A  
HETATM   13  C   UNL     1      -8.368   9.097  64.145  1.00  0.00    -0.182 A  
HETATM   14  C   UNL     1      -5.538   7.755  69.841  1.00  0.00    -0.023 A  
HETATM   15  C   UNL     1      -5.325   8.284  71.102  1.00  0.00    -0.029 A  
HETATM   16  C   UNL     1      -5.846   9.529  71.401  1.00  0.00    -0.067 A  
HETATM   17  C   UNL     1      -6.577  10.234  70.432  1.00  0.00    -0.126 A  
HETATM   18  C   UNL     1      -6.824   9.733  69.131  1.00  0.00    -0.054 A  
HETATM   19  N   UNL     1      -7.576  10.447  68.146  1.00  0.00    -0.090 NA 
BRANCH  19  20
HETATM   20  C   UNL     1      -8.190  11.741  68.524  1.00  0.00    -0.134 C  
BRANCH  20  21
HETATM   21  C   UNL     1      -7.300  12.950  68.186  1.00  0.00    -0.119 C  
BRANCH  21  22
HETATM   22  C   UNL     1      -8.026  14.280  68.392  1.00  0.00    -0.143 C  
BRANCH  22  23
HETATM   23  N   UNL     1      -8.521  14.909  67.149  1.00  0.00    -0.207 NA 
HETATM   24  C   UNL     1      -9.999  15.040  67.220  1.00  0.00    -0.233 C  
HETATM   25  C   UNL     1     -10.486  16.070  68.271  1.00  0.00    -0.269 C  
HETATM   26  N   UNL     1      -9.890  17.417  68.143  1.00  0.00    -0.287 NA 
HETATM   27  C   UNL     1      -8.426  17.323  67.945  1.00  0.00    -0.218 C  
HETATM   28  C   UNL     1     -10.515  18.154  67.045  1.00  0.00    -0.370 C  
HETATM   29  C   UNL     1      -7.973  16.262  66.913  1.00  0.00    -0.243 C  
ENDBRANCH  22  23
ENDBRANCH  21  22
ENDBRANCH  20  21
ENDBRANCH  19  20
ENDBRANCH   4   6
ENDBRANCH   3   4
ENDBRANCH   2   3
TORSDOF 7
ENDMDL
MODEL      169
REMARK 921   NORMALIZED FREE ENERGY PREDICTED BY IDOCK:   -3.58 KCAL/MOL
REMARK 922        TOTAL FREE ENERGY PREDICTED BY IDOCK:   -6.00 KCAL/MOL
REMARK 923 INTER-LIGAND FREE ENERGY PREDICTED BY IDOCK:   -5.51 KCAL/MOL
REMARK 924 INTRA-LIGAND FREE ENERGY PREDICTED BY IDOCK:   -0.50 KCAL/MOL
REMARK 927      BINDING AFFINITY PREDICTED BY RF-SCORE:    0.00 PKD
ROOT
HETATM    1  C   UNL     1     -12.318  13.590  64.336  1.00  0.00    -0.391 C  
HETATM    2  C   UNL     1     -11.294  13.743  65.451  1.00  0.00    -0.314 C  
ENDROOT
BRANCH   2   3
HETATM    3  C   UNL     1     -11.939  13.504  66.814  1.00  0.00    -0.453 C  
BRANCH   3   4
HETATM    4  C   UNL     1     -10.964  13.659  67.968  1.00  0.00    -0.250 C  
HETATM    5  O   UNL     1     -11.185  14.374  68.945  1.00  0.00    -0.238 OA 
BRANCH   4   6
HETATM    6  C   UNL     1      -9.701  12.861  67.918  1.00  0.00    -0.218 A  
HETATM    7  C   UNL     1      -9.762  11.517  67.511  1.00  0.00    -0.189 A  
HETATM    8  C   UNL     1      -8.615  10.693  67.388  1.00  0.00    -0.122 A  
HETATM    9  C   UNL     1      -7.391  11.297  67.727  1.00  0.00    -0.094 A  
HETATM   10  S   UNL     1      -5.820  10.484  67.651  1.00  0.00    -0.044 SA 
HETATM   11  C   UNL     1      -7.331  12.639  68.153  1.00  0.00    -0.112 A  
HETATM   12  C   UNL     1      -6.256   8.854  67.110  1.00  0.00    -0.059 A  
HETATM   13  C   UNL     1      -8.475  13.420  68.247  1.00  0.00    -0.166 A  
HETATM   14  C   UNL     1      -5.160   7.973  66.981  1.00  0.00    -0.027 A  
HETATM   15  C   UNL     1      -5.335   6.664  66.566  1.00  0.00    -0.017 A  
HETATM   16  C   UNL     1      -6.612   6.219  66.276  1.00  0.00    -0.048 A  
HETATM   17  C   UNL     1      -7.704   7.092  66.405  1.00  0.00    -0.100 A  
HETATM   18  C   UNL     1      -7.576   8.439  66.822  1.00  0.00    -0.090 A  
HETATM   19  N   UNL     1      -8.686   9.331  66.946  1.00  0.00    -0.126 NA 
BRANCH  19  20
HETATM   20  C   UNL     1     -10.030   8.849  66.549  1.00  0.00    -0.288 C  
BRANCH  20  21
HETATM   21  C   UNL     1     -10.786   8.164  67.701  1.00  0.00    -0.203 C  
BRANCH  21  22
HETATM   22  C   UNL     1     -10.212   8.530  69.070  1.00  0.00    -0.207 C  
BRANCH  22  23
HETATM   23  N   UNL     1      -9.645   7.392  69.824  1.00  0.00    -0.163 NA 
HETATM   24  C   UNL     1      -9.086   7.884  71.108  1.00  0.00    -0.143 C  
HETATM   25  C   UNL     1     -10.162   8.378  72.110  1.00  0.00    -0.320 C  
HETATM   26  N   UNL     1     -11.238   7.405  72.396  1.00  0.00    -0.275 NA 
HETATM   27  C   UNL     1     -11.738   6.799  71.142  1.00  0.00    -0.345 C  
HETATM   28  C   UNL     1     -10.767   6.374  73.320  1.00  0.00    -0.263 C  
HETATM   29  C   UNL     1     -10.638   6.346  70.150  1.00  0.00    -0.240 C  
ENDBRANCH  22  23
ENDBRANCH  21  22
ENDBRANCH  20  21
ENDBRANCH  19  20
ENDBRANCH   4   6
ENDBRANCH   3   4
ENDBRANCH   2   3
TORSDOF 7
ENDMDL
MODEL      170
REMARK 921   NORMALIZED FREE ENERGY PREDICTED BY IDOCK:   -3.58 KCAL/MOL
REMARK 922        TOTAL FREE ENERGY PREDICTED BY IDOCK:   -6.00 KCAL/MOL
REMARK 923 INTER-LIGAND FREE ENERGY PREDICTED BY IDOCK:   -5.33 KCAL/MOL
REMARK 924 INTRA-LIGAND FREE ENERGY PREDICTED BY IDOCK:   -0.67 KCAL/MOL
REMARK 927      BINDING AFFINITY PREDICTED BY RF-SCORE:    0.00 PKD
ROOT
HETATM    1  C   UNL     1      -7.184   6.275  73.042  1.00  0.00    -0.087 C  
HETATM    2  C   UNL     1      -7.601   7.719  73.279  1.00  0.00    -0.149 C  
ENDROOT
BRANCH   2   3
HETATM    3  C   UNL     1      -8.489   8.218  72.142  1.00  0.00    -0.239 C  
BRANCH   3   4
HETATM    4  C   UNL     1      -9.496   7.181  71.675  1.00  0.00    -0.152 C  
HETATM    5  O   UNL     1     -10.486   6.861  72.331  1.00  0.00    -0.199 OA 
BRANCH   4   6
HETATM    6  C   UNL     1      -9.279   6.563  70.331  1.00  0.00    -0.156 A  
HETATM    7  C   UNL     1      -9.012   7.400  69.234  1.00  0.00    -0.136 A  
HETATM    8  C   UNL     1      -8.748   6.907  67.931  1.00  0.00    -0.121 A  
HETATM    9  C   UNL     1      -8.796   5.508  67.786  1.00  0.00    -0.105 A  
HETATM   10  S   UNL     1      -8.497   4.650  66.268  1.00  0.00    -0.113 SA 
HETATM   11  C   UNL     1      -9.082   4.670  68.882  1.00  0.00    -0.163 A  
HETATM   12  C   UNL     1      -8.195   5.974  65.130  1.00  0.00    -0.142 A  
HETATM   13  C   UNL     1      -9.320   5.189  70.148  1.00  0.00    -0.208 A  
HETATM   14  C   UNL     1      -7.939   5.555  63.806  1.00  0.00    -0.112 A  
HETATM   15  C   UNL     1      -7.682   6.469  62.799  1.00  0.00    -0.097 A  
HETATM   16  C   UNL     1      -7.679   7.817  63.105  1.00  0.00    -0.135 A  
HETATM   17  C   UNL     1      -7.934   8.238  64.420  1.00  0.00    -0.144 A  
HETATM   18  C   UNL     1      -8.198   7.342  65.484  1.00  0.00    -0.139 A  
HETATM   19  N   UNL     1      -8.449   7.769  66.824  1.00  0.00    -0.123 NA 
BRANCH  19  20
HETATM   20  C   UNL     1      -8.357   9.214  67.137  1.00  0.00    -0.117 C  
BRANCH  20  21
HETATM   21  C   UNL     1      -9.734   9.880  67.311  1.00  0.00    -0.213 C  
BRANCH  21  22
HETATM   22  C   UNL     1     -10.432  10.126  65.974  1.00  0.00    -0.095 C  
BRANCH  22  23
HETATM   23  N   UNL     1     -10.069  11.398  65.315  1.00  0.00    -0.254 NA 
HETATM   24  C   UNL     1     -11.026  11.669  64.211  1.00  0.00    -0.355 C  
HETATM   25  C   UNL     1     -12.461  12.002  64.695  1.00  0.00    -0.103 C  
HETATM   26  N   UNL     1     -12.544  13.098  65.684  1.00  0.00    -0.491 NA 
HETATM   27  C   UNL     1     -11.519  12.928  66.738  1.00  0.00    -0.340 C  
HETATM   28  C   UNL     1     -12.403  14.397  65.026  1.00  0.00    -0.396 C  
HETATM   29  C   UNL     1     -10.105  12.565  66.222  1.00  0.00    -0.250 C  
ENDBRANCH  22  23
ENDBRANCH  21  22
ENDBRANCH  20  21
ENDBRANCH  19  20
ENDBRANCH   4   6
ENDBRANCH   3   4
ENDBRANCH   2   3
TORSDOF 7
ENDMDL
MODEL      171
REMARK 921   NORMALIZED FREE ENERGY PREDICTED BY IDOCK:   -3.53 KCAL/MOL
REMARK 922        TOTAL FREE ENERGY PREDICTED BY IDOCK:   -5.93 KCAL/MOL
REMARK 923 INTER-LIGAND FREE ENERGY PREDICTED BY IDOCK:   -5.12 KCAL/MOL
REMARK 924 INTRA-LIGAND FREE ENERGY PREDICTED BY IDOCK:   -0.81 KCAL/MOL
REMARK 927      BINDING AFFINITY PREDICTED BY RF-SCORE:    0.00 PKD
ROOT
HETATM    1  C   UNL     1      -9.367   8.903  65.810  1.00  0.00    -0.286 C  
HETATM    2  C   UNL     1      -8.357   8.046  66.558  1.00  0.00    -0.121 C  
ENDROOT
BRANCH   2   3
HETATM    3  C   UNL     1      -7.259   8.915  67.168  1.00  0.00    -0.083 C  
BRANCH   3   4
HETATM    4  C   UNL     1      -7.421   9.112  68.665  1.00  0.00    -0.080 C  
HETATM    5  O   UNL     1      -7.966   8.289  69.398  1.00  0.00    -0.109 OA 
BRANCH   4   6
HETATM    6  C   UNL     1      -6.841  10.353  69.266  1.00  0.00    -0.073 A  
HETATM    7  C   UNL     1      -7.033  11.579  68.607  1.00  0.00    -0.089 A  
HETATM    8  C   UNL     1      -6.562  12.815  69.119  1.00  0.00    -0.101 A  
HETATM    9  C   UNL     1      -5.856  12.742  70.334  1.00  0.00    -0.153 A  
HETATM   10  S   UNL     1      -5.175  14.140  71.180  1.00  0.00    -0.166 SA 
HETATM   11  C   UNL     1      -5.646  11.510  70.985  1.00  0.00    -0.011 A  
HETATM   12  C   UNL     1      -5.596  15.483  70.103  1.00  0.00    -0.142 A  
HETATM   13  C   UNL     1      -6.137  10.321  70.460  1.00  0.00    -0.114 A  
HETATM   14  C   UNL     1      -5.142  16.745  70.546  1.00  0.00    -0.224 A  
HETATM   15  C   UNL     1      -5.392  17.895  69.818  1.00  0.00    -0.214 A  
HETATM   16  C   UNL     1      -6.099  17.796  68.634  1.00  0.00    -0.192 A  
HETATM   17  C   UNL     1      -6.550  16.543  68.189  1.00  0.00    -0.145 A  
HETATM   18  C   UNL     1      -6.322  15.340  68.901  1.00  0.00    -0.095 A  
HETATM   19  N   UNL     1      -6.788  14.065  68.453  1.00  0.00    -0.089 NA 
BRANCH  19  20
HETATM   20  C   UNL     1      -7.612  14.002  67.224  1.00  0.00    -0.070 C  
BRANCH  20  21
HETATM   21  C   UNL     1      -9.105  13.766  67.513  1.00  0.00    -0.209 C  
BRANCH  21  22
HETATM   22  C   UNL     1      -9.698  14.846  68.418  1.00  0.00    -0.209 C  
BRANCH  22  23
HETATM   23  N   UNL     1     -10.858  15.561  67.844  1.00  0.00    -0.298 NA 
HETATM   24  C   UNL     1     -11.249  16.670  68.750  1.00  0.00    -0.217 C  
HETATM   25  C   UNL     1     -10.212  17.821  68.813  1.00  0.00    -0.373 C  
HETATM   26  N   UNL     1      -9.830  18.385  67.501  1.00  0.00    -0.304 NA 
HETATM   27  C   UNL     1      -9.551  17.303  66.530  1.00  0.00    -0.273 C  
HETATM   28  C   UNL     1     -10.875  19.277  66.999  1.00  0.00    -0.414 C  
HETATM   29  C   UNL     1     -10.589  16.154  66.516  1.00  0.00    -0.268 C  
ENDBRANCH  22  23
ENDBRANCH  21  22
ENDBRANCH  20  21
ENDBRANCH  19  20
ENDBRANCH   4   6
ENDBRANCH   3   4
ENDBRANCH   2   3
TORSDOF 7
ENDMDL
MODEL      172
REMARK 921   NORMALIZED FREE ENERGY PREDICTED BY IDOCK:   -3.48 KCAL/MOL
REMARK 922        TOTAL FREE ENERGY PREDICTED BY IDOCK:   -5.87 KCAL/MOL
REMARK 923 INTER-LIGAND FREE ENERGY PREDICTED BY IDOCK:   -5.02 KCAL/MOL
REMARK 924 INTRA-LIGAND FREE ENERGY PREDICTED BY IDOCK:   -0.85 KCAL/MOL
REMARK 927      BINDING AFFINITY PREDICTED BY RF-SCORE:    0.00 PKD
ROOT
HETATM    1  C   UNL     1      -7.889   2.632  65.117  1.00  0.00    -0.081 C  
HETATM    2  C   UNL     1      -7.822   4.078  64.647  1.00  0.00    -0.085 C  
ENDROOT
BRANCH   2   3
HETATM    3  C   UNL     1      -8.814   4.944  65.420  1.00  0.00    -0.149 C  
BRANCH   3   4
HETATM    4  C   UNL     1      -8.186   5.650  66.609  1.00  0.00    -0.105 C  
HETATM    5  O   UNL     1      -7.004   5.988  66.644  1.00  0.00    -0.064 OA 
BRANCH   4   6
HETATM    6  C   UNL     1      -9.075   5.981  67.765  1.00  0.00    -0.109 A  
HETATM    7  C   UNL     1      -9.446   7.320  67.974  1.00  0.00    -0.139 A  
HETATM    8  C   UNL     1     -10.320   7.728  69.013  1.00  0.00    -0.211 A  
HETATM    9  C   UNL     1     -10.785   6.702  69.857  1.00  0.00    -0.250 A  
HETATM   10  S   UNL     1     -11.888   6.951  71.218  1.00  0.00    -0.359 SA 
HETATM   11  C   UNL     1     -10.398   5.362  69.660  1.00  0.00    -0.361 A  
HETATM   12  C   UNL     1     -12.147   8.703  71.189  1.00  0.00    -0.260 A  
HETATM   13  C   UNL     1      -9.551   4.999  68.620  1.00  0.00    -0.204 A  
HETATM   14  C   UNL     1     -12.998   9.182  72.209  1.00  0.00    -0.492 A  
HETATM   15  C   UNL     1     -13.302  10.527  72.321  1.00  0.00    -0.211 A  
HETATM   16  C   UNL     1     -12.756  11.413  71.411  1.00  0.00    -0.489 A  
HETATM   17  C   UNL     1     -11.908  10.942  70.396  1.00  0.00    -0.449 A  
HETATM   18  C   UNL     1     -11.571   9.576  70.239  1.00  0.00    -0.169 A  
HETATM   19  N   UNL     1     -10.714   9.094  69.201  1.00  0.00    -0.207 NA 
BRANCH  19  20
HETATM   20  C   UNL     1     -10.211  10.056  68.193  1.00  0.00    -0.175 C  
BRANCH  20  21
HETATM   21  C   UNL     1     -11.234  10.354  67.083  1.00  0.00    -0.086 C  
BRANCH  21  22
HETATM   22  C   UNL     1     -10.584  10.975  65.847  1.00  0.00    -0.206 C  
BRANCH  22  23
HETATM   23  N   UNL     1     -10.252  10.012  64.776  1.00  0.00    -0.101 NA 
HETATM   24  C   UNL     1      -9.886  10.755  63.544  1.00  0.00    -0.347 C  
HETATM   25  C   UNL     1      -8.546  11.527  63.653  1.00  0.00     0.580 C  
HETATM   26  N   UNL     1      -7.391  10.710  64.082  1.00  0.00     0.138 NA 
HETATM   27  C   UNL     1      -7.755   9.860  65.238  1.00  0.00    -0.129 C  
HETATM   28  C   UNL     1      -6.897   9.895  62.973  1.00  0.00    -0.122 C  
HETATM   29  C   UNL     1      -9.114   9.128  65.109  1.00  0.00    -0.176 C  
ENDBRANCH  22  23
ENDBRANCH  21  22
ENDBRANCH  20  21
ENDBRANCH  19  20
ENDBRANCH   4   6
ENDBRANCH   3   4
ENDBRANCH   2   3
TORSDOF 7
ENDMDL
MODEL      173
REMARK 921   NORMALIZED FREE ENERGY PREDICTED BY IDOCK:   -3.46 KCAL/MOL
REMARK 922        TOTAL FREE ENERGY PREDICTED BY IDOCK:   -5.84 KCAL/MOL
REMARK 923 INTER-LIGAND FREE ENERGY PREDICTED BY IDOCK:   -6.03 KCAL/MOL
REMARK 924 INTRA-LIGAND FREE ENERGY PREDICTED BY IDOCK:    0.19 KCAL/MOL
REMARK 927      BINDING AFFINITY PREDICTED BY RF-SCORE:    0.00 PKD
ROOT
HETATM    1  C   UNL     1      -9.837  10.479  65.054  1.00  0.00    -0.369 C  
HETATM    2  C   UNL     1      -8.909   9.988  66.156  1.00  0.00    -0.165 C  
ENDROOT
BRANCH   2   3
HETATM    3  C   UNL     1      -7.760  10.969  66.372  1.00  0.00    -0.146 C  
BRANCH   3   4
HETATM    4  C   UNL     1      -7.551  11.328  67.833  1.00  0.00    -0.100 C  
HETATM    5  O   UNL     1      -7.581  10.498  68.741  1.00  0.00    -0.087 OA 
BRANCH   4   6
HETATM    6  C   UNL     1      -7.251  12.756  68.158  1.00  0.00    -0.115 A  
HETATM    7  C   UNL     1      -7.836  13.768  67.378  1.00  0.00    -0.167 A  
HETATM    8  C   UNL     1      -7.650  15.150  67.636  1.00  0.00    -0.174 A  
HETATM    9  C   UNL     1      -6.808  15.459  68.721  1.00  0.00    -0.113 A  
HETATM   10  S   UNL     1      -6.423  17.104  69.249  1.00  0.00    -0.232 SA 
HETATM   11  C   UNL     1      -6.206  14.445  69.491  1.00  0.00    -0.121 A  
HETATM   12  C   UNL     1      -7.308  18.100  68.081  1.00  0.00    -0.251 A  
HETATM   13  C   UNL     1      -6.425  13.101  69.217  1.00  0.00    -0.107 A  
HETATM   14  C   UNL     1      -7.153  19.491  68.270  1.00  0.00    -0.330 A  
HETATM   15  C   UNL     1      -7.782  20.404  67.441  1.00  0.00    -0.364 A  
HETATM   16  C   UNL     1      -8.575  19.935  66.410  1.00  0.00    -0.386 A  
HETATM   17  C   UNL     1      -8.730  18.553  66.218  1.00  0.00    -0.219 A  
HETATM   18  C   UNL     1      -8.110  17.581  67.041  1.00  0.00    -0.217 A  
HETATM   19  N   UNL     1      -8.274  16.174  66.851  1.00  0.00    -0.211 NA 
BRANCH  19  20
HETATM   20  C   UNL     1      -9.194  15.704  65.789  1.00  0.00    -0.211 C  
BRANCH  20  21
HETATM   21  C   UNL     1     -10.272  14.738  66.313  1.00  0.00    -0.309 C  
BRANCH  21  22
HETATM   22  C   UNL     1     -11.093  15.347  67.449  1.00  0.00    -0.311 C  
BRANCH  22  23
HETATM   23  N   UNL     1     -12.275  14.553  67.848  1.00  0.00    -0.211 NA 
HETATM   24  C   UNL     1     -12.234  13.235  67.164  1.00  0.00    -0.227 C  
HETATM   25  C   UNL     1     -11.093  12.309  67.658  1.00  0.00    -0.268 C  
HETATM   26  N   UNL     1     -11.057  12.093  69.119  1.00  0.00    -0.227 NA 
HETATM   27  C   UNL     1     -11.219  13.375  69.840  1.00  0.00     0.098 C  
HETATM   28  C   UNL     1     -12.086  11.135  69.524  1.00  0.00    -0.326 C  
HETATM   29  C   UNL     1     -12.346  14.289  69.301  1.00  0.00    -0.162 C  
ENDBRANCH  22  23
ENDBRANCH  21  22
ENDBRANCH  20  21
ENDBRANCH  19  20
ENDBRANCH   4   6
ENDBRANCH   3   4
ENDBRANCH   2   3
TORSDOF 7
ENDMDL
MODEL      174
REMARK 921   NORMALIZED FREE ENERGY PREDICTED BY IDOCK:   -3.45 KCAL/MOL
REMARK 922        TOTAL FREE ENERGY PREDICTED BY IDOCK:   -5.82 KCAL/MOL
REMARK 923 INTER-LIGAND FREE ENERGY PREDICTED BY IDOCK:   -5.51 KCAL/MOL
REMARK 924 INTRA-LIGAND FREE ENERGY PREDICTED BY IDOCK:   -0.30 KCAL/MOL
REMARK 927      BINDING AFFINITY PREDICTED BY RF-SCORE:    0.00 PKD
ROOT
HETATM    1  C   UNL     1     -10.051  16.085  69.917  1.00  0.00    -0.142 C  
HETATM    2  C   UNL     1     -10.823  15.566  71.121  1.00  0.00    -0.147 C  
ENDROOT
BRANCH   2   3
HETATM    3  C   UNL     1     -12.327  15.624  70.865  1.00  0.00    -0.479 C  
BRANCH   3   4
HETATM    4  C   UNL     1     -12.898  14.305  70.375  1.00  0.00    -0.218 C  
HETATM    5  O   UNL     1     -13.908  13.789  70.853  1.00  0.00     0.083 OA 
BRANCH   4   6
HETATM    6  C   UNL     1     -12.212  13.639  69.225  1.00  0.00    -0.283 A  
HETATM    7  C   UNL     1     -11.795  12.304  69.364  1.00  0.00    -0.370 A  
HETATM    8  C   UNL     1     -11.177  11.573  68.318  1.00  0.00    -0.261 A  
HETATM    9  C   UNL     1     -10.978  12.278  67.116  1.00  0.00    -0.262 A  
HETATM   10  S   UNL     1     -10.237  11.589  65.664  1.00  0.00    -0.259 SA 
HETATM   11  C   UNL     1     -11.379  13.622  66.983  1.00  0.00    -0.344 A  
HETATM   12  C   UNL     1      -9.848   9.939  66.177  1.00  0.00    -0.260 A  
HETATM   13  C   UNL     1     -11.995  14.301  68.026  1.00  0.00    -0.353 A  
HETATM   14  C   UNL     1      -9.215   9.157  65.185  1.00  0.00    -0.218 A  
HETATM   15  C   UNL     1      -8.849   7.845  65.430  1.00  0.00    -0.020 A  
HETATM   16  C   UNL     1      -9.110   7.298  66.672  1.00  0.00    -0.181 A  
HETATM   17  C   UNL     1      -9.738   8.072  67.661  1.00  0.00    -0.198 A  
HETATM   18  C   UNL     1     -10.134   9.416  67.458  1.00  0.00    -0.215 A  
HETATM   19  N   UNL     1     -10.781  10.203  68.461  1.00  0.00    -0.218 NA 
BRANCH  19  20
HETATM   20  C   UNL     1     -11.121   9.563  69.754  1.00  0.00    -0.191 C  
BRANCH  20  21
HETATM   21  C   UNL     1      -9.890   9.313  70.642  1.00  0.00    -0.332 C  
BRANCH  21  22
HETATM   22  C   UNL     1      -9.635   7.824  70.873  1.00  0.00    -0.167 C  
BRANCH  22  23
HETATM   23  N   UNL     1      -8.430   7.523  71.676  1.00  0.00    -0.110 NA 
HETATM   24  C   UNL     1      -8.082   6.088  71.520  1.00  0.00    -0.114 C  
HETATM   25  C   UNL     1      -7.576   5.717  70.102  1.00  0.00    -0.085 C  
HETATM   26  N   UNL     1      -6.451   6.540  69.609  1.00  0.00    -0.045 NA 
HETATM   27  C   UNL     1      -6.707   7.976  69.860  1.00  0.00    -0.037 C  
HETATM   28  C   UNL     1      -5.195   6.120  70.230  1.00  0.00    -0.013 C  
HETATM   29  C   UNL     1      -7.242   8.307  71.275  1.00  0.00    -0.073 C  
ENDBRANCH  22  23
ENDBRANCH  21  22
ENDBRANCH  20  21
ENDBRANCH  19  20
ENDBRANCH   4   6
ENDBRANCH   3   4
ENDBRANCH   2   3
TORSDOF 7
ENDMDL
MODEL      175
REMARK 921   NORMALIZED FREE ENERGY PREDICTED BY IDOCK:   -3.44 KCAL/MOL
REMARK 922        TOTAL FREE ENERGY PREDICTED BY IDOCK:   -5.80 KCAL/MOL
REMARK 923 INTER-LIGAND FREE ENERGY PREDICTED BY IDOCK:   -4.97 KCAL/MOL
REMARK 924 INTRA-LIGAND FREE ENERGY PREDICTED BY IDOCK:   -0.83 KCAL/MOL
REMARK 927      BINDING AFFINITY PREDICTED BY RF-SCORE:    0.00 PKD
ROOT
HETATM    1  C   UNL     1      -7.799  14.700  69.100  1.00  0.00    -0.107 C  
HETATM    2  C   UNL     1      -8.715  15.362  68.082  1.00  0.00    -0.161 C  
ENDROOT
BRANCH   2   3
HETATM    3  C   UNL     1     -10.155  14.888  68.264  1.00  0.00    -0.221 C  
BRANCH   3   4
HETATM    4  C   UNL     1     -10.931  14.832  66.959  1.00  0.00    -0.324 C  
HETATM    5  O   UNL     1     -11.826  15.626  66.672  1.00  0.00     0.245 OA 
BRANCH   4   6
HETATM    6  C   UNL     1     -10.542  13.781  65.968  1.00  0.00    -0.290 A  
HETATM    7  C   UNL     1     -10.045  12.554  66.440  1.00  0.00    -0.255 A  
HETATM    8  C   UNL     1      -9.693  11.481  65.583  1.00  0.00    -0.232 A  
HETATM    9  C   UNL     1      -9.847  11.725  64.205  1.00  0.00    -0.206 A  
HETATM   10  S   UNL     1      -9.484  10.547  62.935  1.00  0.00    -0.324 SA 
HETATM   11  C   UNL     1     -10.328  12.961  63.731  1.00  0.00    -0.143 A  
HETATM   12  C   UNL     1      -8.902   9.152  63.859  1.00  0.00    -0.070 A  
HETATM   13  C   UNL     1     -10.677  13.985  64.603  1.00  0.00    -0.416 A  
HETATM   14  C   UNL     1      -8.518   8.049  63.065  1.00  0.00     0.086 A  
HETATM   15  C   UNL     1      -8.043   6.881  63.637  1.00  0.00     0.005 A  
HETATM   16  C   UNL     1      -7.945   6.803  65.013  1.00  0.00    -0.125 A  
HETATM   17  C   UNL     1      -8.324   7.898  65.807  1.00  0.00    -0.139 A  
HETATM   18  C   UNL     1      -8.818   9.111  65.269  1.00  0.00    -0.199 A  
HETATM   19  N   UNL     1      -9.212  10.223  66.075  1.00  0.00    -0.158 NA 
BRANCH  19  20
HETATM   20  C   UNL     1      -9.172  10.079  67.550  1.00  0.00    -0.137 C  
BRANCH  20  21
HETATM   21  C   UNL     1     -10.476   9.505  68.132  1.00  0.00    -0.268 C  
BRANCH  21  22
HETATM   22  C   UNL     1     -10.216   8.518  69.270  1.00  0.00    -0.208 C  
BRANCH  22  23
HETATM   23  N   UNL     1     -10.689   7.141  69.011  1.00  0.00    -0.207 NA 
HETATM   24  C   UNL     1      -9.548   6.308  68.554  1.00  0.00    -0.126 C  
HETATM   25  C   UNL     1      -8.489   6.040  69.655  1.00  0.00    -0.126 C  
HETATM   26  N   UNL     1      -9.028   5.471  70.909  1.00  0.00    -0.138 NA 
HETATM   27  C   UNL     1     -10.244   6.201  71.332  1.00  0.00    -0.205 C  
HETATM   28  C   UNL     1      -9.307   4.044  70.749  1.00  0.00    -0.147 C  
HETATM   29  C   UNL     1     -11.265   6.480  70.201  1.00  0.00    -0.377 C  
ENDBRANCH  22  23
ENDBRANCH  21  22
ENDBRANCH  20  21
ENDBRANCH  19  20
ENDBRANCH   4   6
ENDBRANCH   3   4
ENDBRANCH   2   3
TORSDOF 7
ENDMDL
MODEL      176
REMARK 921   NORMALIZED FREE ENERGY PREDICTED BY IDOCK:   -3.43 KCAL/MOL
REMARK 922        TOTAL FREE ENERGY PREDICTED BY IDOCK:   -5.79 KCAL/MOL
REMARK 923 INTER-LIGAND FREE ENERGY PREDICTED BY IDOCK:   -4.75 KCAL/MOL
REMARK 924 INTRA-LIGAND FREE ENERGY PREDICTED BY IDOCK:   -1.04 KCAL/MOL
REMARK 927      BINDING AFFINITY PREDICTED BY RF-SCORE:    0.00 PKD
ROOT
HETATM    1  C   UNL     1      -6.524   6.950  73.833  1.00  0.00    -0.067 C  
HETATM    2  C   UNL     1      -6.673   8.429  73.506  1.00  0.00    -0.127 C  
ENDROOT
BRANCH   2   3
HETATM    3  C   UNL     1      -7.268   8.616  72.113  1.00  0.00    -0.058 C  
BRANCH   3   4
HETATM    4  C   UNL     1      -8.683   8.076  71.994  1.00  0.00    -0.147 C  
HETATM    5  O   UNL     1      -9.634   8.533  72.626  1.00  0.00    -0.280 OA 
BRANCH   4   6
HETATM    6  C   UNL     1      -8.919   6.964  71.022  1.00  0.00    -0.151 A  
HETATM    7  C   UNL     1      -8.657   7.187  69.659  1.00  0.00    -0.137 A  
HETATM    8  C   UNL     1      -8.806   6.184  68.668  1.00  0.00    -0.114 A  
HETATM    9  C   UNL     1      -9.264   4.935  69.129  1.00  0.00    -0.118 A  
HETATM   10  S   UNL     1      -9.523   3.523  68.094  1.00  0.00    -0.112 SA 
HETATM   11  C   UNL     1      -9.544   4.717  70.492  1.00  0.00    -0.268 A  
HETATM   12  C   UNL     1      -9.104   4.140  66.488  1.00  0.00    -0.134 A  
HETATM   13  C   UNL     1      -9.371   5.721  71.437  1.00  0.00    -0.164 A  
HETATM   14  C   UNL     1      -9.245   3.194  65.448  1.00  0.00    -0.148 A  
HETATM   15  C   UNL     1      -8.954   3.521  64.135  1.00  0.00    -0.106 A  
HETATM   16  C   UNL     1      -8.519   4.801  63.845  1.00  0.00    -0.132 A  
HETATM   17  C   UNL     1      -8.379   5.744  64.875  1.00  0.00    -0.127 A  
HETATM   18  C   UNL     1      -8.660   5.457  66.233  1.00  0.00    -0.122 A  
HETATM   19  N   UNL     1      -8.510   6.414  67.284  1.00  0.00    -0.112 NA 
BRANCH  19  20
HETATM   20  C   UNL     1      -7.964   7.751  66.953  1.00  0.00    -0.112 C  
BRANCH  20  21
HETATM   21  C   UNL     1      -9.050   8.754  66.528  1.00  0.00    -0.203 C  
BRANCH  21  22
HETATM   22  C   UNL     1      -8.683  10.193  66.891  1.00  0.00    -0.129 C  
BRANCH  22  23
HETATM   23  N   UNL     1      -9.368  10.719  68.091  1.00  0.00    -0.150 NA 
HETATM   24  C   UNL     1      -8.873  12.089  68.378  1.00  0.00    -0.149 C  
HETATM   25  C   UNL     1      -9.304  13.142  67.325  1.00  0.00    -0.225 C  
HETATM   26  N   UNL     1     -10.758  13.201  67.064  1.00  0.00    -0.261 NA 
HETATM   27  C   UNL     1     -11.312  11.839  66.895  1.00  0.00    -0.320 C  
HETATM   28  C   UNL     1     -11.446  13.912  68.141  1.00  0.00    -0.312 C  
HETATM   29  C   UNL     1     -10.836  10.805  67.944  1.00  0.00    -0.264 C  
ENDBRANCH  22  23
ENDBRANCH  21  22
ENDBRANCH  20  21
ENDBRANCH  19  20
ENDBRANCH   4   6
ENDBRANCH   3   4
ENDBRANCH   2   3
TORSDOF 7
ENDMDL
MODEL      177
REMARK 921   NORMALIZED FREE ENERGY PREDICTED BY IDOCK:   -3.42 KCAL/MOL
REMARK 922        TOTAL FREE ENERGY PREDICTED BY IDOCK:   -5.77 KCAL/MOL
REMARK 923 INTER-LIGAND FREE ENERGY PREDICTED BY IDOCK:   -4.88 KCAL/MOL
REMARK 924 INTRA-LIGAND FREE ENERGY PREDICTED BY IDOCK:   -0.89 KCAL/MOL
REMARK 927      BINDING AFFINITY PREDICTED BY RF-SCORE:    0.00 PKD
ROOT
HETATM    1  C   UNL     1      -7.030  11.167  68.881  1.00  0.00    -0.095 C  
HETATM    2  C   UNL     1      -6.509  10.907  70.286  1.00  0.00    -0.106 C  
ENDROOT
BRANCH   2   3
HETATM    3  C   UNL     1      -6.147   9.434  70.464  1.00  0.00    -0.059 C  
BRANCH   3   4
HETATM    4  C   UNL     1      -7.294   8.603  71.013  1.00  0.00    -0.083 C  
HETATM    5  O   UNL     1      -7.917   8.904  72.030  1.00  0.00    -0.350 OA 
BRANCH   4   6
HETATM    6  C   UNL     1      -7.700   7.389  70.240  1.00  0.00    -0.093 A  
HETATM    7  C   UNL     1      -7.840   7.487  68.845  1.00  0.00    -0.124 A  
HETATM    8  C   UNL     1      -8.176   6.382  68.022  1.00  0.00    -0.116 A  
HETATM    9  C   UNL     1      -8.392   5.165  68.693  1.00  0.00    -0.088 A  
HETATM   10  S   UNL     1      -8.815   3.644  67.892  1.00  0.00    -0.129 SA 
HETATM   11  C   UNL     1      -8.271   5.070  70.093  1.00  0.00    -0.081 A  
HETATM   12  C   UNL     1      -8.900   4.117  66.187  1.00  0.00    -0.118 A  
HETATM   13  C   UNL     1      -7.925   6.172  70.866  1.00  0.00    -0.116 A  
HETATM   14  C   UNL     1      -9.246   3.066  65.309  1.00  0.00    -0.146 A  
HETATM   15  C   UNL     1      -9.352   3.274  63.945  1.00  0.00    -0.125 A  
HETATM   16  C   UNL     1      -9.113   4.539  63.441  1.00  0.00    -0.114 A  
HETATM   17  C   UNL     1      -8.770   5.587  64.310  1.00  0.00     0.063 A  
HETATM   18  C   UNL     1      -8.646   5.423  65.711  1.00  0.00    -0.139 A  
HETATM   19  N   UNL     1      -8.289   6.487  66.596  1.00  0.00    -0.111 NA 
BRANCH  19  20
HETATM   20  C   UNL     1      -7.959   7.810  66.017  1.00  0.00    -0.108 C  
BRANCH  20  21
HETATM   21  C   UNL     1      -9.071   8.853  66.228  1.00  0.00    -0.236 C  
BRANCH  21  22
HETATM   22  C   UNL     1      -9.492   9.525  64.921  1.00  0.00    -0.160 C  
BRANCH  22  23
HETATM   23  N   UNL     1      -9.140  10.958  64.826  1.00  0.00    -0.197 NA 
HETATM   24  C   UNL     1      -9.788  11.543  63.624  1.00  0.00    -0.353 C  
HETATM   25  C   UNL     1     -11.332  11.638  63.730  1.00  0.00    -0.393 C  
HETATM   26  N   UNL     1     -11.830  12.338  64.934  1.00  0.00    -0.370 NA 
HETATM   27  C   UNL     1     -11.117  11.867  66.142  1.00  0.00    -0.326 C  
HETATM   28  C   UNL     1     -11.693  13.786  64.780  1.00  0.00    -0.381 C  
HETATM   29  C   UNL     1      -9.580  11.753  65.991  1.00  0.00    -0.230 C  
ENDBRANCH  22  23
ENDBRANCH  21  22
ENDBRANCH  20  21
ENDBRANCH  19  20
ENDBRANCH   4   6
ENDBRANCH   3   4
ENDBRANCH   2   3
TORSDOF 7
ENDMDL
MODEL      178
REMARK 921   NORMALIZED FREE ENERGY PREDICTED BY IDOCK:   -3.37 KCAL/MOL
REMARK 922        TOTAL FREE ENERGY PREDICTED BY IDOCK:   -5.71 KCAL/MOL
REMARK 923 INTER-LIGAND FREE ENERGY PREDICTED BY IDOCK:   -5.25 KCAL/MOL
REMARK 924 INTRA-LIGAND FREE ENERGY PREDICTED BY IDOCK:   -0.46 KCAL/MOL
REMARK 927      BINDING AFFINITY PREDICTED BY RF-SCORE:    0.00 PKD
ROOT
HETATM    1  C   UNL     1     -10.316   7.747  67.421  1.00  0.00    -0.354 C  
HETATM    2  C   UNL     1     -10.984   8.247  68.693  1.00  0.00     0.161 C  
ENDROOT
BRANCH   2   3
HETATM    3  C   UNL     1     -11.536   9.657  68.495  1.00  0.00     0.246 C  
BRANCH   3   4
HETATM    4  C   UNL     1     -11.573  10.466  69.780  1.00  0.00    -0.269 C  
HETATM    5  O   UNL     1     -11.619   9.954  70.897  1.00  0.00    -0.313 OA 
BRANCH   4   6
HETATM    6  C   UNL     1     -11.503  11.955  69.661  1.00  0.00    -0.337 A  
HETATM    7  C   UNL     1     -10.570  12.523  68.777  1.00  0.00    -0.204 A  
HETATM    8  C   UNL     1     -10.459  13.920  68.561  1.00  0.00    -0.250 A  
HETATM    9  C   UNL     1     -11.333  14.725  69.316  1.00  0.00    -0.294 A  
HETATM   10  S   UNL     1     -11.395  16.491  69.222  1.00  0.00    -0.024 SA 
HETATM   11  C   UNL     1     -12.255  14.157  70.217  1.00  0.00    -0.416 A  
HETATM   12  C   UNL     1     -10.127  16.860  68.042  1.00  0.00    -0.293 A  
HETATM   13  C   UNL     1     -12.345  12.782  70.390  1.00  0.00    -0.324 A  
HETATM   14  C   UNL     1      -9.951  18.238  67.790  1.00  0.00    -0.343 A  
HETATM   15  C   UNL     1      -9.001  18.690  66.891  1.00  0.00    -0.296 A  
HETATM   16  C   UNL     1      -8.212  17.765  66.231  1.00  0.00    -0.252 A  
HETATM   17  C   UNL     1      -8.383  16.394  66.480  1.00  0.00    -0.337 A  
HETATM   18  C   UNL     1      -9.343  15.884  67.387  1.00  0.00    -0.210 A  
HETATM   19  N   UNL     1      -9.523  14.488  67.635  1.00  0.00    -0.206 NA 
BRANCH  19  20
HETATM   20  C   UNL     1      -8.720  13.519  66.853  1.00  0.00    -0.145 C  
BRANCH  20  21
HETATM   21  C   UNL     1      -9.580  12.605  65.963  1.00  0.00    -0.190 C  
BRANCH  21  22
HETATM   22  C   UNL     1      -9.039  11.176  65.906  1.00  0.00    -0.203 C  
BRANCH  22  23
HETATM   23  N   UNL     1      -7.637  11.067  65.451  1.00  0.00     0.138 NA 
HETATM   24  C   UNL     1      -6.811  10.489  66.541  1.00  0.00    -0.113 C  
HETATM   25  C   UNL     1      -7.126   9.001  66.843  1.00  0.00    -0.078 C  
HETATM   26  N   UNL     1      -7.069   8.104  65.670  1.00  0.00    -0.066 NA 
HETATM   27  C   UNL     1      -7.780   8.705  64.519  1.00  0.00    -0.124 C  
HETATM   28  C   UNL     1      -5.682   7.799  65.321  1.00  0.00    -0.037 C  
HETATM   29  C   UNL     1      -7.467  10.200  64.265  1.00  0.00    -0.116 C  
ENDBRANCH  22  23
ENDBRANCH  21  22
ENDBRANCH  20  21
ENDBRANCH  19  20
ENDBRANCH   4   6
ENDBRANCH   3   4
ENDBRANCH   2   3
TORSDOF 7
ENDMDL
MODEL      179
REMARK 921   NORMALIZED FREE ENERGY PREDICTED BY IDOCK:   -3.36 KCAL/MOL
REMARK 922        TOTAL FREE ENERGY PREDICTED BY IDOCK:   -5.69 KCAL/MOL
REMARK 923 INTER-LIGAND FREE ENERGY PREDICTED BY IDOCK:   -4.94 KCAL/MOL
REMARK 924 INTRA-LIGAND FREE ENERGY PREDICTED BY IDOCK:   -0.75 KCAL/MOL
REMARK 927      BINDING AFFINITY PREDICTED BY RF-SCORE:    0.00 PKD
ROOT
HETATM    1  C   UNL     1      -9.098  17.868  68.151  1.00  0.00    -0.278 C  
HETATM    2  C   UNL     1      -9.994  16.968  68.989  1.00  0.00    -0.269 C  
ENDROOT
BRANCH   2   3
HETATM    3  C   UNL     1      -9.577  15.506  68.845  1.00  0.00    -0.220 C  
BRANCH   3   4
HETATM    4  C   UNL     1     -10.693  14.618  68.324  1.00  0.00    -0.239 C  
HETATM    5  O   UNL     1     -11.121  14.680  67.172  1.00  0.00    -0.307 OA 
BRANCH   4   6
HETATM    6  C   UNL     1     -11.256  13.595  69.258  1.00  0.00    -0.284 A  
HETATM    7  C   UNL     1     -10.814  12.265  69.153  1.00  0.00    -0.149 A  
HETATM    8  C   UNL     1     -11.253  11.232  70.021  1.00  0.00    -0.132 A  
HETATM    9  C   UNL     1     -12.193  11.614  70.995  1.00  0.00    -0.231 A  
HETATM   10  S   UNL     1     -12.888  10.517  72.198  1.00  0.00     0.016 SA 
HETATM   11  C   UNL     1     -12.651  12.944  71.089  1.00  0.00    -0.373 A  
HETATM   12  C   UNL     1     -12.128   8.969  71.791  1.00  0.00    -0.368 A  
HETATM   13  C   UNL     1     -12.186  13.931  70.230  1.00  0.00    -0.428 A  
HETATM   14  C   UNL     1     -12.533   7.891  72.608  1.00  0.00    -0.042 A  
HETATM   15  C   UNL     1     -12.029   6.616  72.419  1.00  0.00    -0.181 A  
HETATM   16  C   UNL     1     -11.112   6.403  71.406  1.00  0.00    -0.328 A  
HETATM   17  C   UNL     1     -10.708   7.472  70.591  1.00  0.00    -0.239 A  
HETATM   18  C   UNL     1     -11.192   8.794  70.747  1.00  0.00    -0.266 A  
HETATM   19  N   UNL     1     -10.775   9.884  69.923  1.00  0.00    -0.259 NA 
BRANCH  19  20
HETATM   20  C   UNL     1      -9.730   9.641  68.901  1.00  0.00    -0.162 C  
BRANCH  20  21
HETATM   21  C   UNL     1      -8.311   9.593  69.493  1.00  0.00    -0.154 C  
BRANCH  21  22
HETATM   22  C   UNL     1      -7.811  10.975  69.915  1.00  0.00     0.583 C  
BRANCH  22  23
HETATM   23  N   UNL     1      -6.409  11.262  69.545  1.00  0.00    -0.095 NA 
HETATM   24  C   UNL     1      -6.350  11.663  68.116  1.00  0.00    -0.050 C  
HETATM   25  C   UNL     1      -7.005  13.038  67.825  1.00  0.00    -0.143 C  
HETATM   26  N   UNL     1      -6.506  14.152  68.658  1.00  0.00    -0.084 NA 
HETATM   27  C   UNL     1      -6.433  13.748  70.080  1.00  0.00     0.009 C  
HETATM   28  C   UNL     1      -5.201  14.608  68.179  1.00  0.00    -0.119 C  
HETATM   29  C   UNL     1      -5.803  12.356  70.332  1.00  0.00    -0.149 C  
ENDBRANCH  22  23
ENDBRANCH  21  22
ENDBRANCH  20  21
ENDBRANCH  19  20
ENDBRANCH   4   6
ENDBRANCH   3   4
ENDBRANCH   2   3
TORSDOF 7
ENDMDL
MODEL      180
REMARK 921   NORMALIZED FREE ENERGY PREDICTED BY IDOCK:   -3.34 KCAL/MOL
REMARK 922        TOTAL FREE ENERGY PREDICTED BY IDOCK:   -5.66 KCAL/MOL
REMARK 923 INTER-LIGAND FREE ENERGY PREDICTED BY IDOCK:   -4.93 KCAL/MOL
REMARK 924 INTRA-LIGAND FREE ENERGY PREDICTED BY IDOCK:   -0.73 KCAL/MOL
REMARK 927      BINDING AFFINITY PREDICTED BY RF-SCORE:    0.00 PKD
ROOT
HETATM    1  C   UNL     1      -8.638   1.681  66.279  1.00  0.00    -0.108 C  
HETATM    2  C   UNL     1      -8.473   2.630  65.101  1.00  0.00    -0.098 C  
ENDROOT
BRANCH   2   3
HETATM    3  C   UNL     1      -9.166   3.961  65.380  1.00  0.00    -0.151 C  
BRANCH   3   4
HETATM    4  C   UNL     1      -8.363   4.869  66.296  1.00  0.00    -0.111 C  
HETATM    5  O   UNL     1      -7.214   5.231  66.047  1.00  0.00    -0.070 OA 
BRANCH   4   6
HETATM    6  C   UNL     1      -9.036   5.373  67.533  1.00  0.00    -0.108 A  
HETATM    7  C   UNL     1      -9.540   6.685  67.545  1.00  0.00    -0.142 A  
HETATM    8  C   UNL     1     -10.233   7.238  68.652  1.00  0.00    -0.182 A  
HETATM    9  C   UNL     1     -10.368   6.394  69.770  1.00  0.00    -0.200 A  
HETATM   10  S   UNL     1     -11.195   6.845  71.268  1.00  0.00    -0.282 SA 
HETATM   11  C   UNL     1      -9.846   5.085  69.765  1.00  0.00    -0.286 A  
HETATM   12  C   UNL     1     -11.697   8.512  70.943  1.00  0.00    -0.245 A  
HETATM   13  C   UNL     1      -9.186   4.573  68.655  1.00  0.00    -0.181 A  
HETATM   14  C   UNL     1     -12.381   9.131  72.013  1.00  0.00    -0.448 A  
HETATM   15  C   UNL     1     -12.841  10.433  71.916  1.00  0.00    -0.519 A  
HETATM   16  C   UNL     1     -12.620  11.134  70.744  1.00  0.00    -0.445 A  
HETATM   17  C   UNL     1     -11.939  10.523  69.679  1.00  0.00    -0.279 A  
HETATM   18  C   UNL     1     -11.454   9.194  69.730  1.00  0.00     0.130 A  
HETATM   19  N   UNL     1     -10.768   8.568  68.644  1.00  0.00    -0.107 NA 
BRANCH  19  20
HETATM   20  C   UNL     1     -10.619   9.316  67.374  1.00  0.00    -0.255 C  
BRANCH  20  21
HETATM   21  C   UNL     1      -9.158   9.684  67.060  1.00  0.00    -0.154 C  
BRANCH  21  22
HETATM   22  C   UNL     1      -8.867  11.164  67.307  1.00  0.00    -0.144 C  
BRANCH  22  23
HETATM   23  N   UNL     1      -7.480  11.577  67.008  1.00  0.00    -0.144 NA 
HETATM   24  C   UNL     1      -7.363  13.050  67.155  1.00  0.00     0.044 C  
HETATM   25  C   UNL     1      -7.494  13.545  68.618  1.00  0.00    -0.108 C  
HETATM   26  N   UNL     1      -6.579  12.892  69.579  1.00  0.00    -0.074 NA 
HETATM   27  C   UNL     1      -6.575  11.425  69.380  1.00  0.00    -0.119 C  
HETATM   28  C   UNL     1      -5.228  13.438  69.455  1.00  0.00    -0.079 C  
HETATM   29  C   UNL     1      -6.475  10.967  67.904  1.00  0.00    -0.062 C  
ENDBRANCH  22  23
ENDBRANCH  21  22
ENDBRANCH  20  21
ENDBRANCH  19  20
ENDBRANCH   4   6
ENDBRANCH   3   4
ENDBRANCH   2   3
TORSDOF 7
ENDMDL
MODEL      181
REMARK 921   NORMALIZED FREE ENERGY PREDICTED BY IDOCK:   -3.32 KCAL/MOL
REMARK 922        TOTAL FREE ENERGY PREDICTED BY IDOCK:   -5.64 KCAL/MOL
REMARK 923 INTER-LIGAND FREE ENERGY PREDICTED BY IDOCK:   -4.49 KCAL/MOL
REMARK 924 INTRA-LIGAND FREE ENERGY PREDICTED BY IDOCK:   -1.15 KCAL/MOL
REMARK 927      BINDING AFFINITY PREDICTED BY RF-SCORE:    0.00 PKD
ROOT
HETATM    1  C   UNL     1     -10.439  11.739  64.954  1.00  0.00    -0.334 C  
HETATM    2  C   UNL     1     -10.115  10.261  65.109  1.00  0.00    -0.355 C  
ENDROOT
BRANCH   2   3
HETATM    3  C   UNL     1      -8.836   9.906  64.355  1.00  0.00    -0.245 C  
BRANCH   3   4
HETATM    4  C   UNL     1      -8.039   8.799  65.024  1.00  0.00    -0.144 C  
HETATM    5  O   UNL     1      -7.675   7.782  64.436  1.00  0.00    -0.109 OA 
BRANCH   4   6
HETATM    6  C   UNL     1      -7.650   8.996  66.454  1.00  0.00    -0.092 A  
HETATM    7  C   UNL     1      -7.811   7.929  67.355  1.00  0.00    -0.121 A  
HETATM    8  C   UNL     1      -7.428   8.003  68.718  1.00  0.00    -0.091 A  
HETATM    9  C   UNL     1      -6.892   9.236  69.136  1.00  0.00    -0.050 A  
HETATM   10  S   UNL     1      -6.335   9.577  70.780  1.00  0.00    -0.095 SA 
HETATM   11  C   UNL     1      -6.748  10.312  68.238  1.00  0.00    -0.057 A  
HETATM   12  C   UNL     1      -6.671   8.056  71.624  1.00  0.00    -0.055 A  
HETATM   13  C   UNL     1      -7.120  10.196  66.904  1.00  0.00    -0.091 A  
HETATM   14  C   UNL     1      -6.328   8.065  72.994  1.00  0.00    -0.078 A  
HETATM   15  C   UNL     1      -6.526   6.951  73.792  1.00  0.00    -0.067 A  
HETATM   16  C   UNL     1      -7.073   5.813  73.228  1.00  0.00    -0.086 A  
HETATM   17  C   UNL     1      -7.417   5.802  71.867  1.00  0.00    -0.095 A  
HETATM   18  C   UNL     1      -7.229   6.913  71.010  1.00  0.00    -0.076 A  
HETATM   19  N   UNL     1      -7.571   6.899  69.622  1.00  0.00    -0.099 NA 
BRANCH  19  20
HETATM   20  C   UNL     1      -8.078   5.640  69.029  1.00  0.00    -0.097 C  
BRANCH  20  21
HETATM   21  C   UNL     1      -9.587   5.680  68.733  1.00  0.00    -0.166 C  
BRANCH  21  22
HETATM   22  C   UNL     1     -10.425   5.820  70.004  1.00  0.00    -0.283 C  
BRANCH  22  23
HETATM   23  N   UNL     1     -11.601   6.705  69.872  1.00  0.00    -0.363 NA 
HETATM   24  C   UNL     1     -12.338   6.738  71.161  1.00  0.00    -0.333 C  
HETATM   25  C   UNL     1     -11.571   7.457  72.301  1.00  0.00    -0.292 C  
HETATM   26  N   UNL     1     -11.112   8.824  71.975  1.00  0.00    -0.363 NA 
HETATM   27  C   UNL     1     -10.480   8.856  70.637  1.00  0.00    -0.221 C  
HETATM   28  C   UNL     1     -12.224   9.771  72.046  1.00  0.00    -0.194 C  
HETATM   29  C   UNL     1     -11.255   8.101  69.529  1.00  0.00     0.162 C  
ENDBRANCH  22  23
ENDBRANCH  21  22
ENDBRANCH  20  21
ENDBRANCH  19  20
ENDBRANCH   4   6
ENDBRANCH   3   4
ENDBRANCH   2   3
TORSDOF 7
ENDMDL
MODEL      182
REMARK 921   NORMALIZED FREE ENERGY PREDICTED BY IDOCK:   -3.31 KCAL/MOL
REMARK 922        TOTAL FREE ENERGY PREDICTED BY IDOCK:   -5.62 KCAL/MOL
REMARK 923 INTER-LIGAND FREE ENERGY PREDICTED BY IDOCK:   -4.64 KCAL/MOL
REMARK 924 INTRA-LIGAND FREE ENERGY PREDICTED BY IDOCK:   -0.97 KCAL/MOL
REMARK 927      BINDING AFFINITY PREDICTED BY RF-SCORE:    0.00 PKD
ROOT
HETATM    1  C   UNL     1      -9.713   2.830  63.844  1.00  0.00    -0.142 C  
HETATM    2  C   UNL     1      -8.784   2.586  65.024  1.00  0.00    -0.112 C  
ENDROOT
BRANCH   2   3
HETATM    3  C   UNL     1      -7.446   3.290  64.812  1.00  0.00    -0.075 C  
BRANCH   3   4
HETATM    4  C   UNL     1      -7.426   4.706  65.361  1.00  0.00    -0.081 C  
HETATM    5  O   UNL     1      -7.301   5.702  64.651  1.00  0.00    -0.063 OA 
BRANCH   4   6
HETATM    6  C   UNL     1      -7.615   4.878  66.835  1.00  0.00    -0.088 A  
HETATM    7  C   UNL     1      -8.576   5.795  67.293  1.00  0.00    -0.109 A  
HETATM    8  C   UNL     1      -8.861   5.996  68.668  1.00  0.00    -0.109 A  
HETATM    9  C   UNL     1      -8.094   5.232  69.567  1.00  0.00    -0.094 A  
HETATM   10  S   UNL     1      -8.262   5.294  71.328  1.00  0.00    -0.121 SA 
HETATM   11  C   UNL     1      -7.116   4.326  69.108  1.00  0.00    -0.051 A  
HETATM   12  C   UNL     1      -9.529   6.513  71.550  1.00  0.00    -0.157 A  
HETATM   13  C   UNL     1      -6.877   4.145  67.752  1.00  0.00    -0.051 A  
HETATM   14  C   UNL     1      -9.852   6.774  72.900  1.00  0.00    -0.184 A  
HETATM   15  C   UNL     1     -10.824   7.699  73.240  1.00  0.00    -0.379 A  
HETATM   16  C   UNL     1     -11.485   8.376  72.232  1.00  0.00    -0.454 A  
HETATM   17  C   UNL     1     -11.166   8.120  70.889  1.00  0.00    -0.286 A  
HETATM   18  C   UNL     1     -10.183   7.181  70.491  1.00  0.00    -0.196 A  
HETATM   19  N   UNL     1      -9.863   6.913  69.124  1.00  0.00    -0.154 NA 
BRANCH  19  20
HETATM   20  C   UNL     1     -10.646   7.594  68.066  1.00  0.00    -0.151 C  
BRANCH  20  21
HETATM   21  C   UNL     1     -10.006   8.914  67.601  1.00  0.00    -0.248 C  
BRANCH  21  22
HETATM   22  C   UNL     1      -9.502   8.836  66.159  1.00  0.00    -0.247 C  
BRANCH  22  23
HETATM   23  N   UNL     1      -9.155  10.141  65.558  1.00  0.00    -0.166 NA 
HETATM   24  C   UNL     1      -7.691  10.363  65.680  1.00  0.00    -0.150 C  
HETATM   25  C   UNL     1      -6.840   9.412  64.800  1.00  0.00    -0.094 C  
HETATM   26  N   UNL     1      -7.206   9.396  63.368  1.00  0.00    -0.100 NA 
HETATM   27  C   UNL     1      -8.674   9.300  63.206  1.00  0.00    -0.176 C  
HETATM   28  C   UNL     1      -6.685  10.583  62.690  1.00  0.00    -0.103 C  
HETATM   29  C   UNL     1      -9.495  10.240  64.123  1.00  0.00    -0.301 C  
ENDBRANCH  22  23
ENDBRANCH  21  22
ENDBRANCH  20  21
ENDBRANCH  19  20
ENDBRANCH   4   6
ENDBRANCH   3   4
ENDBRANCH   2   3
TORSDOF 7
ENDMDL
MODEL      183
REMARK 921   NORMALIZED FREE ENERGY PREDICTED BY IDOCK:   -3.22 KCAL/MOL
REMARK 922        TOTAL FREE ENERGY PREDICTED BY IDOCK:   -5.50 KCAL/MOL
REMARK 923 INTER-LIGAND FREE ENERGY PREDICTED BY IDOCK:   -5.12 KCAL/MOL
REMARK 924 INTRA-LIGAND FREE ENERGY PREDICTED BY IDOCK:   -0.37 KCAL/MOL
REMARK 927      BINDING AFFINITY PREDICTED BY RF-SCORE:    0.00 PKD
ROOT
HETATM    1  C   UNL     1      -7.107  14.010  68.883  1.00  0.00    -0.111 C  
HETATM    2  C   UNL     1      -8.134  14.424  67.839  1.00  0.00    -0.153 C  
ENDROOT
BRANCH   2   3
HETATM    3  C   UNL     1      -9.521  13.906  68.212  1.00  0.00    -0.217 C  
BRANCH   3   4
HETATM    4  C   UNL     1     -10.286  13.349  67.024  1.00  0.00    -0.247 C  
HETATM    5  O   UNL     1     -11.250  13.920  66.517  1.00  0.00    -0.310 OA 
BRANCH   4   6
HETATM    6  C   UNL     1      -9.800  12.066  66.429  1.00  0.00    -0.238 A  
HETATM    7  C   UNL     1      -9.069  11.178  67.235  1.00  0.00    -0.152 A  
HETATM    8  C   UNL     1      -8.605   9.918  66.776  1.00  0.00    -0.128 A  
HETATM    9  C   UNL     1      -8.901   9.612  65.435  1.00  0.00    -0.171 A  
HETATM   10  S   UNL     1      -8.440   8.105  64.629  1.00  0.00     0.055 SA 
HETATM   11  C   UNL     1      -9.618  10.511  64.620  1.00  0.00    -0.349 A  
HETATM   12  C   UNL     1      -7.562   7.241  65.902  1.00  0.00    -0.090 A  
HETATM   13  C   UNL     1     -10.069  11.730  65.111  1.00  0.00    -0.298 A  
HETATM   14  C   UNL     1      -7.058   5.982  65.508  1.00  0.00    -0.069 A  
HETATM   15  C   UNL     1      -6.351   5.182  66.389  1.00  0.00    -0.036 A  
HETATM   16  C   UNL     1      -6.138   5.633  67.678  1.00  0.00    -0.026 A  
HETATM   17  C   UNL     1      -6.637   6.885  68.074  1.00  0.00    -0.059 A  
HETATM   18  C   UNL     1      -7.368   7.737  67.211  1.00  0.00    -0.092 A  
HETATM   19  N   UNL     1      -7.883   9.007  67.615  1.00  0.00    -0.100 NA 
BRANCH  19  20
HETATM   20  C   UNL     1      -7.710   9.426  69.026  1.00  0.00    -0.075 C  
BRANCH  20  21
HETATM   21  C   UNL     1      -9.043   9.739  69.727  1.00  0.00    -0.246 C  
BRANCH  21  22
HETATM   22  C   UNL     1      -9.242   8.904  70.993  1.00  0.00    -0.245 C  
BRANCH  22  23
HETATM   23  N   UNL     1     -10.498   8.126  71.026  1.00  0.00    -0.199 NA 
HETATM   24  C   UNL     1     -10.208   6.710  70.682  1.00  0.00    -0.189 C  
HETATM   25  C   UNL     1      -9.385   5.961  71.762  1.00  0.00    -0.148 C  
HETATM   26  N   UNL     1      -9.951   6.018  73.126  1.00  0.00    -0.173 NA 
HETATM   27  C   UNL     1     -10.368   7.399  73.459  1.00  0.00    -0.353 C  
HETATM   28  C   UNL     1     -11.074   5.090  73.256  1.00  0.00    -0.337 C  
HETATM   29  C   UNL     1     -11.161   8.129  72.347  1.00  0.00    -0.369 C  
ENDBRANCH  22  23
ENDBRANCH  21  22
ENDBRANCH  20  21
ENDBRANCH  19  20
ENDBRANCH   4   6
ENDBRANCH   3   4
ENDBRANCH   2   3
TORSDOF 7
ENDMDL
MODEL      184
REMARK 921   NORMALIZED FREE ENERGY PREDICTED BY IDOCK:   -3.18 KCAL/MOL
REMARK 922        TOTAL FREE ENERGY PREDICTED BY IDOCK:   -5.43 KCAL/MOL
REMARK 923 INTER-LIGAND FREE ENERGY PREDICTED BY IDOCK:   -4.46 KCAL/MOL
REMARK 924 INTRA-LIGAND FREE ENERGY PREDICTED BY IDOCK:   -0.97 KCAL/MOL
REMARK 927      BINDING AFFINITY PREDICTED BY RF-SCORE:    0.00 PKD
ROOT
HETATM    1  C   UNL     1     -10.762   5.037  66.364  1.00  0.00    -0.242 C  
HETATM    2  C   UNL     1      -9.406   4.432  66.033  1.00  0.00    -0.160 C  
ENDROOT
BRANCH   2   3
HETATM    3  C   UNL     1      -8.696   5.254  64.959  1.00  0.00    -0.136 C  
BRANCH   3   4
HETATM    4  C   UNL     1      -8.037   6.507  65.509  1.00  0.00    -0.127 C  
HETATM    5  O   UNL     1      -7.978   7.566  64.886  1.00  0.00    -0.122 OA 
BRANCH   4   6
HETATM    6  C   UNL     1      -7.478   6.443  66.895  1.00  0.00    -0.084 A  
HETATM    7  C   UNL     1      -8.204   7.027  67.947  1.00  0.00    -0.115 A  
HETATM    8  C   UNL     1      -7.781   6.979  69.299  1.00  0.00    -0.109 A  
HETATM    9  C   UNL     1      -6.557   6.325  69.532  1.00  0.00    -0.048 A  
HETATM   10  S   UNL     1      -5.818   6.125  71.128  1.00  0.00    -0.027 SA 
HETATM   11  C   UNL     1      -5.819   5.756  68.475  1.00  0.00    -0.019 A  
HETATM   12  C   UNL     1      -6.970   6.952  72.191  1.00  0.00    -0.066 A  
HETATM   13  C   UNL     1      -6.274   5.810  67.164  1.00  0.00    -0.034 A  
HETATM   14  C   UNL     1      -6.601   6.956  73.555  1.00  0.00    -0.067 A  
HETATM   15  C   UNL     1      -7.397   7.560  74.513  1.00  0.00    -0.153 A  
HETATM   16  C   UNL     1      -8.573   8.170  74.117  1.00  0.00    -0.195 A  
HETATM   17  C   UNL     1      -8.942   8.169  72.763  1.00  0.00    -0.313 A  
HETATM   18  C   UNL     1      -8.164   7.562  71.747  1.00  0.00    -0.106 A  
HETATM   19  N   UNL     1      -8.543   7.554  70.369  1.00  0.00    -0.141 NA 
BRANCH  19  20
HETATM   20  C   UNL     1      -9.848   8.144  69.989  1.00  0.00    -0.182 C  
BRANCH  20  21
HETATM   21  C   UNL     1      -9.908   9.665  70.214  1.00  0.00    -0.321 C  
BRANCH  21  22
HETATM   22  C   UNL     1      -9.146  10.440  69.139  1.00  0.00    -0.187 C  
BRANCH  22  23
HETATM   23  N   UNL     1      -9.974  11.384  68.358  1.00  0.00    -0.198 NA 
HETATM   24  C   UNL     1      -9.122  12.070  67.355  1.00  0.00    -0.178 C  
HETATM   25  C   UNL     1      -8.614  11.139  66.224  1.00  0.00    -0.180 C  
HETATM   26  N   UNL     1      -9.671  10.383  65.520  1.00  0.00    -0.229 NA 
HETATM   27  C   UNL     1     -10.617   9.784  66.488  1.00  0.00    -0.080 C  
HETATM   28  C   UNL     1     -10.376  11.245  64.571  1.00  0.00    -0.322 C  
HETATM   29  C   UNL     1     -11.078  10.732  67.622  1.00  0.00    -0.319 C  
ENDBRANCH  22  23
ENDBRANCH  21  22
ENDBRANCH  20  21
ENDBRANCH  19  20
ENDBRANCH   4   6
ENDBRANCH   3   4
ENDBRANCH   2   3
TORSDOF 7
ENDMDL
MODEL      185
REMARK 921   NORMALIZED FREE ENERGY PREDICTED BY IDOCK:   -3.17 KCAL/MOL
REMARK 922        TOTAL FREE ENERGY PREDICTED BY IDOCK:   -5.42 KCAL/MOL
REMARK 923 INTER-LIGAND FREE ENERGY PREDICTED BY IDOCK:   -5.65 KCAL/MOL
REMARK 924 INTRA-LIGAND FREE ENERGY PREDICTED BY IDOCK:    0.22 KCAL/MOL
REMARK 927      BINDING AFFINITY PREDICTED BY RF-SCORE:    0.00 PKD
ROOT
HETATM    1  C   UNL     1     -10.403  19.967  67.712  1.00  0.00    -0.548 C  
HETATM    2  C   UNL     1     -10.103  18.478  67.810  1.00  0.00    -0.391 C  
ENDROOT
BRANCH   2   3
HETATM    3  C   UNL     1      -9.646  17.930  66.460  1.00  0.00    -0.318 C  
BRANCH   3   4
HETATM    4  C   UNL     1      -8.179  17.537  66.444  1.00  0.00    -0.270 C  
HETATM    5  O   UNL     1      -7.273  18.328  66.186  1.00  0.00    -0.235 OA 
BRANCH   4   6
HETATM    6  C   UNL     1      -7.837  16.127  66.805  1.00  0.00    -0.296 A  
HETATM    7  C   UNL     1      -8.788  15.118  66.578  1.00  0.00    -0.312 A  
HETATM    8  C   UNL     1      -8.541  13.747  66.844  1.00  0.00    -0.109 A  
HETATM    9  C   UNL     1      -7.276  13.449  67.384  1.00  0.00    -0.103 A  
HETATM   10  S   UNL     1      -6.724  11.819  67.795  1.00  0.00    -0.092 SA 
HETATM   11  C   UNL     1      -6.328  14.463  67.629  1.00  0.00    -0.126 A  
HETATM   12  C   UNL     1      -8.130  10.822  67.388  1.00  0.00    -0.112 A  
HETATM   13  C   UNL     1      -6.602  15.794  67.340  1.00  0.00    -0.215 A  
HETATM   14  C   UNL     1      -7.958   9.444  67.643  1.00  0.00    -0.099 A  
HETATM   15  C   UNL     1      -8.965   8.532  67.377  1.00  0.00    -0.144 A  
HETATM   16  C   UNL     1     -10.159   8.989  66.851  1.00  0.00    -0.338 A  
HETATM   17  C   UNL     1     -10.335  10.359  66.597  1.00  0.00    -0.292 A  
HETATM   18  C   UNL     1      -9.334  11.328  66.849  1.00  0.00    -0.177 A  
HETATM   19  N   UNL     1      -9.509  12.722  66.583  1.00  0.00    -0.245 NA 
BRANCH  19  20
HETATM   20  C   UNL     1     -10.768  13.169  65.944  1.00  0.00    -0.274 C  
BRANCH  20  21
HETATM   21  C   UNL     1     -11.990  13.042  66.870  1.00  0.00    -0.415 C  
BRANCH  21  22
HETATM   22  C   UNL     1     -12.033  14.145  67.928  1.00  0.00    -0.343 C  
BRANCH  22  23
HETATM   23  N   UNL     1     -11.296  13.834  69.172  1.00  0.00    -0.268 NA 
HETATM   24  C   UNL     1     -12.135  14.193  70.343  1.00  0.00    -0.346 C  
HETATM   25  C   UNL     1     -13.382  13.288  70.520  1.00  0.00     0.590 C  
HETATM   26  N   UNL     1     -13.096  11.838  70.561  1.00  0.00     0.233 NA 
HETATM   27  C   UNL     1     -12.160  11.461  69.478  1.00  0.00    -0.302 C  
HETATM   28  C   UNL     1     -12.561  11.456  71.867  1.00  0.00    -0.015 C  
HETATM   29  C   UNL     1     -10.944  12.404  69.308  1.00  0.00    -0.087 C  
ENDBRANCH  22  23
ENDBRANCH  21  22
ENDBRANCH  20  21
ENDBRANCH  19  20
ENDBRANCH   4   6
ENDBRANCH   3   4
ENDBRANCH   2   3
TORSDOF 7
ENDMDL
MODEL      186
REMARK 921   NORMALIZED FREE ENERGY PREDICTED BY IDOCK:   -2.92 KCAL/MOL
REMARK 922        TOTAL FREE ENERGY PREDICTED BY IDOCK:   -5.07 KCAL/MOL
REMARK 923 INTER-LIGAND FREE ENERGY PREDICTED BY IDOCK:   -5.25 KCAL/MOL
REMARK 924 INTRA-LIGAND FREE ENERGY PREDICTED BY IDOCK:    0.18 KCAL/MOL
REMARK 927      BINDING AFFINITY PREDICTED BY RF-SCORE:    0.00 PKD
ROOT
HETATM    1  C   UNL     1      -9.775  16.642  68.690  1.00  0.00    -0.248 C  
HETATM    2  C   UNL     1     -10.161  15.541  69.666  1.00  0.00    -0.289 C  
ENDROOT
BRANCH   2   3
HETATM    3  C   UNL     1     -11.529  14.961  69.313  1.00  0.00    -0.324 C  
BRANCH   3   4
HETATM    4  C   UNL     1     -11.487  13.470  69.030  1.00  0.00    -0.303 C  
HETATM    5  O   UNL     1     -11.842  12.619  69.845  1.00  0.00    -0.318 OA 
BRANCH   4   6
HETATM    6  C   UNL     1     -11.033  13.036  67.673  1.00  0.00    -0.277 A  
HETATM    7  C   UNL     1     -10.503  11.744  67.515  1.00  0.00    -0.228 A  
HETATM    8  C   UNL     1     -10.088  11.225  66.262  1.00  0.00    -0.230 A  
HETATM    9  C   UNL     1     -10.214  12.101  65.168  1.00  0.00    -0.278 A  
HETATM   10  S   UNL     1      -9.774  11.690  63.504  1.00  0.00    -0.296 SA 
HETATM   11  C   UNL     1     -10.729  13.403  65.329  1.00  0.00    -0.321 A  
HETATM   12  C   UNL     1      -9.164  10.034  63.664  1.00  0.00    -0.274 A  
HETATM   13  C   UNL     1     -11.139  13.870  66.571  1.00  0.00    -0.310 A  
HETATM   14  C   UNL     1      -8.719   9.460  62.453  1.00  0.00    -0.239 A  
HETATM   15  C   UNL     1      -8.215   8.171  62.411  1.00  0.00    -0.161 A  
HETATM   16  C   UNL     1      -8.151   7.440  63.583  1.00  0.00    -0.012 A  
HETATM   17  C   UNL     1      -8.592   8.008  64.789  1.00  0.00     0.043 A  
HETATM   18  C   UNL     1      -9.117   9.320  64.882  1.00  0.00    -0.170 A  
HETATM   19  N   UNL     1      -9.574   9.896  66.108  1.00  0.00    -0.201 NA 
BRANCH  19  20
HETATM   20  C   UNL     1      -9.568   9.059  67.330  1.00  0.00    -0.152 C  
BRANCH  20  21
HETATM   21  C   UNL     1      -8.150   8.683  67.794  1.00  0.00    -0.107 C  
BRANCH  21  22
HETATM   22  C   UNL     1      -7.067   9.407  66.994  1.00  0.00    -0.086 C  
BRANCH  22  23
HETATM   23  N   UNL     1      -6.021  10.050  67.817  1.00  0.00    -0.049 NA 
HETATM   24  C   UNL     1      -5.561  11.292  67.144  1.00  0.00    -0.075 C  
HETATM   25  C   UNL     1      -6.627  12.418  67.113  1.00  0.00    -0.089 C  
HETATM   26  N   UNL     1      -7.198  12.769  68.431  1.00  0.00    -0.107 NA 
HETATM   27  C   UNL     1      -7.556  11.547  69.186  1.00  0.00    -0.003 C  
HETATM   28  C   UNL     1      -6.262  13.595  69.193  1.00  0.00    -0.098 C  
HETATM   29  C   UNL     1      -6.483  10.431  69.169  1.00  0.00    -0.048 C  
ENDBRANCH  22  23
ENDBRANCH  21  22
ENDBRANCH  20  21
ENDBRANCH  19  20
ENDBRANCH   4   6
ENDBRANCH   3   4
ENDBRANCH   2   3
TORSDOF 7
ENDMDL
MODEL      187
REMARK 921   NORMALIZED FREE ENERGY PREDICTED BY IDOCK:   -2.80 KCAL/MOL
REMARK 922        TOTAL FREE ENERGY PREDICTED BY IDOCK:   -4.90 KCAL/MOL
REMARK 923 INTER-LIGAND FREE ENERGY PREDICTED BY IDOCK:   -4.74 KCAL/MOL
REMARK 924 INTRA-LIGAND FREE ENERGY PREDICTED BY IDOCK:   -0.16 KCAL/MOL
REMARK 927      BINDING AFFINITY PREDICTED BY RF-SCORE:    0.00 PKD
ROOT
HETATM    1  C   UNL     1     -12.168  14.341  69.049  1.00  0.00    -0.255 C  
HETATM    2  C   UNL     1     -10.654  14.261  68.924  1.00  0.00    -0.252 C  
ENDROOT
BRANCH   2   3
HETATM    3  C   UNL     1     -10.250  13.186  67.918  1.00  0.00    -0.233 C  
BRANCH   3   4
HETATM    4  C   UNL     1      -9.225  12.211  68.471  1.00  0.00    -0.099 C  
HETATM    5  O   UNL     1      -8.017  12.444  68.492  1.00  0.00    -0.149 OA 
BRANCH   4   6
HETATM    6  C   UNL     1      -9.732  10.931  69.054  1.00  0.00    -0.181 A  
HETATM    7  C   UNL     1      -8.899   9.799  69.036  1.00  0.00    -0.153 A  
HETATM    8  C   UNL     1      -9.272   8.554  69.604  1.00  0.00    -0.157 A  
HETATM    9  C   UNL     1     -10.557   8.505  70.176  1.00  0.00    -0.232 A  
HETATM   10  S   UNL     1     -11.251   7.074  70.953  1.00  0.00    -0.297 SA 
HETATM   11  C   UNL     1     -11.400   9.634  70.177  1.00  0.00    -0.275 A  
HETATM   12  C   UNL     1      -9.965   5.870  70.760  1.00  0.00    -0.189 A  
HETATM   13  C   UNL     1     -10.993  10.842  69.624  1.00  0.00    -0.320 A  
HETATM   14  C   UNL     1     -10.277   4.599  71.291  1.00  0.00    -0.205 A  
HETATM   15  C   UNL     1      -9.376   3.551  71.222  1.00  0.00    -0.209 A  
HETATM   16  C   UNL     1      -8.150   3.761  70.618  1.00  0.00    -0.060 A  
HETATM   17  C   UNL     1      -7.837   5.023  70.087  1.00  0.00    -0.067 A  
HETATM   18  C   UNL     1      -8.724   6.126  70.137  1.00  0.00    -0.141 A  
HETATM   19  N   UNL     1      -8.403   7.414  69.604  1.00  0.00    -0.130 NA 
BRANCH  19  20
HETATM   20  C   UNL     1      -7.052   7.630  69.038  1.00  0.00    -0.078 C  
BRANCH  20  21
HETATM   21  C   UNL     1      -7.081   8.296  67.651  1.00  0.00    -0.083 C  
BRANCH  21  22
HETATM   22  C   UNL     1      -6.989   7.276  66.516  1.00  0.00    -0.073 C  
BRANCH  22  23
HETATM   23  N   UNL     1      -8.201   7.180  65.675  1.00  0.00    -0.132 NA 
HETATM   24  C   UNL     1      -8.815   8.525  65.543  1.00  0.00    -0.154 C  
HETATM   25  C   UNL     1      -7.969   9.519  64.705  1.00  0.00    -0.128 C  
HETATM   26  N   UNL     1      -7.587   9.031  63.363  1.00  0.00    -0.103 NA 
HETATM   27  C   UNL     1      -7.083   7.641  63.437  1.00  0.00    -0.071 C  
HETATM   28  C   UNL     1      -8.717   9.126  62.440  1.00  0.00    -0.222 C  
HETATM   29  C   UNL     1      -7.934   6.684  64.308  1.00  0.00    -0.092 C  
ENDBRANCH  22  23
ENDBRANCH  21  22
ENDBRANCH  20  21
ENDBRANCH  19  20
ENDBRANCH   4   6
ENDBRANCH   3   4
ENDBRANCH   2   3
TORSDOF 7
ENDMDL
MODEL      188
REMARK 921   NORMALIZED FREE ENERGY PREDICTED BY IDOCK:   -2.77 KCAL/MOL
REMARK 922        TOTAL FREE ENERGY PREDICTED BY IDOCK:   -4.86 KCAL/MOL
REMARK 923 INTER-LIGAND FREE ENERGY PREDICTED BY IDOCK:   -3.72 KCAL/MOL
REMARK 924 INTRA-LIGAND FREE ENERGY PREDICTED BY IDOCK:   -1.14 KCAL/MOL
REMARK 927      BINDING AFFINITY PREDICTED BY RF-SCORE:    0.00 PKD
ROOT
HETATM    1  C   UNL     1     -10.248  10.876  64.501  1.00  0.00    -0.422 C  
HETATM    2  C   UNL     1      -9.444   9.596  64.673  1.00  0.00    -0.221 C  
ENDROOT
BRANCH   2   3
HETATM    3  C   UNL     1      -8.268   9.562  63.700  1.00  0.00    -0.165 C  
BRANCH   3   4
HETATM    4  C   UNL     1      -6.994   9.022  64.327  1.00  0.00    -0.090 C  
HETATM    5  O   UNL     1      -6.257   8.214  63.764  1.00  0.00    -0.066 OA 
BRANCH   4   6
HETATM    6  C   UNL     1      -6.611   9.546  65.674  1.00  0.00    -0.072 A  
HETATM    7  C   UNL     1      -6.654   8.677  66.777  1.00  0.00    -0.061 A  
HETATM    8  C   UNL     1      -6.267   9.066  68.085  1.00  0.00    -0.054 A  
HETATM    9  C   UNL     1      -5.853  10.404  68.225  1.00  0.00    -0.040 A  
HETATM   10  S   UNL     1      -5.316  11.129  69.748  1.00  0.00    -0.054 SA 
HETATM   11  C   UNL     1      -5.827  11.281  67.123  1.00  0.00    -0.082 A  
HETATM   12  C   UNL     1      -5.487   9.789  70.894  1.00  0.00    -0.065 A  
HETATM   13  C   UNL     1      -6.200  10.858  65.853  1.00  0.00    -0.089 A  
HETATM   14  C   UNL     1      -5.133  10.113  72.222  1.00  0.00    -0.008 A  
HETATM   15  C   UNL     1      -5.210   9.174  73.236  1.00  0.00    -0.093 A  
HETATM   16  C   UNL     1      -5.645   7.897  72.933  1.00  0.00    -0.045 A  
HETATM   17  C   UNL     1      -6.000   7.572  71.614  1.00  0.00    -0.036 A  
HETATM   18  C   UNL     1      -5.935   8.496  70.543  1.00  0.00    -0.031 A  
HETATM   19  N   UNL     1      -6.288   8.164  69.199  1.00  0.00    -0.039 NA 
BRANCH  19  20
HETATM   20  C   UNL     1      -6.672   6.766  68.891  1.00  0.00    -0.053 C  
BRANCH  20  21
HETATM   21  C   UNL     1      -8.171   6.610  68.582  1.00  0.00    -0.119 C  
BRANCH  21  22
HETATM   22  C   UNL     1      -9.055   7.233  69.663  1.00  0.00    -0.140 C  
BRANCH  22  23
HETATM   23  N   UNL     1     -10.441   7.518  69.236  1.00  0.00    -0.213 NA 
HETATM   24  C   UNL     1     -11.175   8.164  70.353  1.00  0.00    -0.221 C  
HETATM   25  C   UNL     1     -10.681   9.597  70.680  1.00  0.00    -0.322 C  
HETATM   26  N   UNL     1     -10.649  10.522  69.527  1.00  0.00    -0.237 NA 
HETATM   27  C   UNL     1     -10.033   9.868  68.351  1.00  0.00    -0.158 C  
HETATM   28  C   UNL     1     -11.996  10.997  69.211  1.00  0.00    -0.339 C  
HETATM   29  C   UNL     1     -10.526   8.426  68.072  1.00  0.00    -0.184 C  
ENDBRANCH  22  23
ENDBRANCH  21  22
ENDBRANCH  20  21
ENDBRANCH  19  20
ENDBRANCH   4   6
ENDBRANCH   3   4
ENDBRANCH   2   3
TORSDOF 7
ENDMDL
MODEL      189
REMARK 921   NORMALIZED FREE ENERGY PREDICTED BY IDOCK:   -2.75 KCAL/MOL
REMARK 922        TOTAL FREE ENERGY PREDICTED BY IDOCK:   -4.83 KCAL/MOL
REMARK 923 INTER-LIGAND FREE ENERGY PREDICTED BY IDOCK:   -4.01 KCAL/MOL
REMARK 924 INTRA-LIGAND FREE ENERGY PREDICTED BY IDOCK:   -0.82 KCAL/MOL
REMARK 927      BINDING AFFINITY PREDICTED BY RF-SCORE:    0.00 PKD
ROOT
HETATM    1  C   UNL     1      -6.921   4.975  71.239  1.00  0.00    -0.048 C  
HETATM    2  C   UNL     1      -6.232   6.299  71.534  1.00  0.00    -0.041 C  
ENDROOT
BRANCH   2   3
HETATM    3  C   UNL     1      -6.979   7.456  70.875  1.00  0.00    -0.059 C  
BRANCH   3   4
HETATM    4  C   UNL     1      -6.274   7.993  69.642  1.00  0.00    -0.033 C  
HETATM    5  O   UNL     1      -5.625   9.038  69.639  1.00  0.00    -0.033 OA 
BRANCH   4   6
HETATM    6  C   UNL     1      -6.347   7.175  68.393  1.00  0.00    -0.036 A  
HETATM    7  C   UNL     1      -7.600   6.717  67.953  1.00  0.00    -0.107 A  
HETATM    8  C   UNL     1      -7.777   5.974  66.758  1.00  0.00    -0.100 A  
HETATM    9  C   UNL     1      -6.603   5.693  66.035  1.00  0.00    -0.048 A  
HETATM   10  S   UNL     1      -6.559   4.791  64.513  1.00  0.00    -0.044 SA 
HETATM   11  C   UNL     1      -5.344   6.136  66.485  1.00  0.00    -0.012 A  
HETATM   12  C   UNL     1      -8.264   4.382  64.258  1.00  0.00    -0.101 A  
HETATM   13  C   UNL     1      -5.212   6.875  67.654  1.00  0.00    -0.012 A  
HETATM   14  C   UNL     1      -8.511   3.627  63.090  1.00  0.00    -0.090 A  
HETATM   15  C   UNL     1      -9.792   3.229  62.749  1.00  0.00    -0.099 A  
HETATM   16  C   UNL     1     -10.844   3.583  63.574  1.00  0.00    -0.205 A  
HETATM   17  C   UNL     1     -10.602   4.332  64.736  1.00  0.00    -0.147 A  
HETATM   18  C   UNL     1      -9.311   4.764  65.125  1.00  0.00    -0.127 A  
HETATM   19  N   UNL     1      -9.064   5.534  66.304  1.00  0.00    -0.142 NA 
BRANCH  19  20
HETATM   20  C   UNL     1     -10.221   5.967  67.123  1.00  0.00    -0.203 C  
BRANCH  20  21
HETATM   21  C   UNL     1     -10.474   7.483  67.052  1.00  0.00    -0.409 C  
BRANCH  21  22
HETATM   22  C   UNL     1     -10.880   8.067  68.406  1.00  0.00     0.086 C  
BRANCH  22  23
HETATM   23  N   UNL     1     -10.037   9.189  68.869  1.00  0.00    -0.191 NA 
HETATM   24  C   UNL     1      -9.837  10.147  67.752  1.00  0.00    -0.163 C  
HETATM   25  C   UNL     1     -11.124  10.910  67.345  1.00  0.00    -0.307 C  
HETATM   26  N   UNL     1     -11.812  11.603  68.454  1.00  0.00    -0.478 NA 
HETATM   27  C   UNL     1     -11.921  10.717  69.634  1.00  0.00    -0.313 C  
HETATM   28  C   UNL     1     -11.116  12.843  68.797  1.00  0.00    -0.263 C  
HETATM   29  C   UNL     1     -10.627   9.946  69.994  1.00  0.00    -0.288 C  
ENDBRANCH  22  23
ENDBRANCH  21  22
ENDBRANCH  20  21
ENDBRANCH  19  20
ENDBRANCH   4   6
ENDBRANCH   3   4
ENDBRANCH   2   3
TORSDOF 7
ENDMDL
MODEL      190
REMARK 921   NORMALIZED FREE ENERGY PREDICTED BY IDOCK:   -2.63 KCAL/MOL
REMARK 922        TOTAL FREE ENERGY PREDICTED BY IDOCK:   -4.66 KCAL/MOL
REMARK 923 INTER-LIGAND FREE ENERGY PREDICTED BY IDOCK:   -3.59 KCAL/MOL
REMARK 924 INTRA-LIGAND FREE ENERGY PREDICTED BY IDOCK:   -1.08 KCAL/MOL
REMARK 927      BINDING AFFINITY PREDICTED BY RF-SCORE:    0.00 PKD
ROOT
HETATM    1  C   UNL     1      -8.505   3.211  72.765  1.00  0.00    -0.080 C  
HETATM    2  C   UNL     1      -7.809   4.457  73.292  1.00  0.00    -0.091 C  
ENDROOT
BRANCH   2   3
HETATM    3  C   UNL     1      -8.348   5.709  72.604  1.00  0.00    -0.117 C  
BRANCH   3   4
HETATM    4  C   UNL     1      -7.450   6.205  71.484  1.00  0.00    -0.094 C  
HETATM    5  O   UNL     1      -6.751   7.213  71.578  1.00  0.00    -0.051 OA 
BRANCH   4   6
HETATM    6  C   UNL     1      -7.391   5.389  70.232  1.00  0.00    -0.067 A  
HETATM    7  C   UNL     1      -8.471   5.444  69.335  1.00  0.00    -0.099 A  
HETATM    8  C   UNL     1      -8.489   4.744  68.101  1.00  0.00    -0.101 A  
HETATM    9  C   UNL     1      -7.355   3.955  67.832  1.00  0.00    -0.066 A  
HETATM   10  S   UNL     1      -7.133   2.994  66.362  1.00  0.00    -0.059 SA 
HETATM   11  C   UNL     1      -6.280   3.885  68.740  1.00  0.00    -0.032 A  
HETATM   12  C   UNL     1      -8.639   3.292  65.477  1.00  0.00    -0.114 A  
HETATM   13  C   UNL     1      -6.292   4.598  69.932  1.00  0.00    -0.027 A  
HETATM   14  C   UNL     1      -8.730   2.611  64.243  1.00  0.00    -0.093 A  
HETATM   15  C   UNL     1      -9.844   2.740  63.431  1.00  0.00    -0.110 A  
HETATM   16  C   UNL     1     -10.883   3.553  63.846  1.00  0.00    -0.181 A  
HETATM   17  C   UNL     1     -10.796   4.231  65.073  1.00  0.00    -0.102 A  
HETATM   18  C   UNL     1      -9.677   4.133  65.935  1.00  0.00    -0.204 A  
HETATM   19  N   UNL     1      -9.584   4.829  67.180  1.00  0.00    -0.155 NA 
BRANCH  19  20
HETATM   20  C   UNL     1     -10.676   5.756  67.558  1.00  0.00    -0.236 C  
BRANCH  20  21
HETATM   21  C   UNL     1     -10.724   7.017  66.677  1.00  0.00    -0.133 C  
BRANCH  21  22
HETATM   22  C   UNL     1     -10.406   8.287  67.466  1.00  0.00    -0.265 C  
BRANCH  22  23
HETATM   23  N   UNL     1      -9.059   8.844  67.219  1.00  0.00    -0.133 NA 
HETATM   24  C   UNL     1      -9.184  10.109  66.451  1.00  0.00    -0.158 C  
HETATM   25  C   UNL     1      -9.824  11.268  67.257  1.00  0.00    -0.182 C  
HETATM   26  N   UNL     1      -9.176  11.555  68.555  1.00  0.00    -0.184 NA 
HETATM   27  C   UNL     1      -8.922  10.301  69.299  1.00  0.00    -0.179 C  
HETATM   28  C   UNL     1      -7.935  12.302  68.356  1.00  0.00    -0.152 C  
HETATM   29  C   UNL     1      -8.312   9.154  68.456  1.00  0.00    -0.123 C  
ENDBRANCH  22  23
ENDBRANCH  21  22
ENDBRANCH  20  21
ENDBRANCH  19  20
ENDBRANCH   4   6
ENDBRANCH   3   4
ENDBRANCH   2   3
TORSDOF 7
ENDMDL
MODEL      191
REMARK 921   NORMALIZED FREE ENERGY PREDICTED BY IDOCK:   -2.62 KCAL/MOL
REMARK 922        TOTAL FREE ENERGY PREDICTED BY IDOCK:   -4.64 KCAL/MOL
REMARK 923 INTER-LIGAND FREE ENERGY PREDICTED BY IDOCK:   -4.27 KCAL/MOL
REMARK 924 INTRA-LIGAND FREE ENERGY PREDICTED BY IDOCK:   -0.38 KCAL/MOL
REMARK 927      BINDING AFFINITY PREDICTED BY RF-SCORE:    0.00 PKD
ROOT
HETATM    1  C   UNL     1     -11.506   5.516  69.817  1.00  0.00     0.937 C  
HETATM    2  C   UNL     1     -11.814   6.988  70.042  1.00  0.00    -0.123 C  
ENDROOT
BRANCH   2   3
HETATM    3  C   UNL     1     -11.203   7.473  71.355  1.00  0.00    -0.267 C  
BRANCH   3   4
HETATM    4  C   UNL     1      -9.825   8.086  71.178  1.00  0.00    -0.166 C  
HETATM    5  O   UNL     1      -9.275   8.767  72.042  1.00  0.00    -0.268 OA 
BRANCH   4   6
HETATM    6  C   UNL     1      -9.098   7.797  69.904  1.00  0.00    -0.147 A  
HETATM    7  C   UNL     1      -9.473   8.487  68.738  1.00  0.00    -0.143 A  
HETATM    8  C   UNL     1      -8.815   8.317  67.493  1.00  0.00    -0.135 A  
HETATM    9  C   UNL     1      -7.764   7.381  67.481  1.00  0.00    -0.111 A  
HETATM   10  S   UNL     1      -6.786   6.995  66.058  1.00  0.00    -0.054 SA 
HETATM   11  C   UNL     1      -7.400   6.676  68.645  1.00  0.00    -0.087 A  
HETATM   12  C   UNL     1      -7.506   8.021  64.806  1.00  0.00    -0.091 A  
HETATM   13  C   UNL     1      -8.059   6.881  69.851  1.00  0.00    -0.125 A  
HETATM   14  C   UNL     1      -6.909   7.889  63.533  1.00  0.00    -0.075 A  
HETATM   15  C   UNL     1      -7.356   8.624  62.449  1.00  0.00    -0.101 A  
HETATM   16  C   UNL     1      -8.411   9.501  62.625  1.00  0.00    -0.168 A  
HETATM   17  C   UNL     1      -9.009   9.633  63.889  1.00  0.00    -0.254 A  
HETATM   18  C   UNL     1      -8.584   8.906  65.027  1.00  0.00    -0.176 A  
HETATM   19  N   UNL     1      -9.187   9.046  66.316  1.00  0.00    -0.189 NA 
BRANCH  19  20
HETATM   20  C   UNL     1     -10.260  10.053  66.491  1.00  0.00    -0.224 C  
BRANCH  20  21
HETATM   21  C   UNL     1      -9.719  11.479  66.693  1.00  0.00    -0.221 C  
BRANCH  21  22
HETATM   22  C   UNL     1     -10.583  12.297  67.652  1.00  0.00    -0.215 C  
BRANCH  22  23
HETATM   23  N   UNL     1      -9.866  13.383  68.354  1.00  0.00    -0.230 NA 
HETATM   24  C   UNL     1      -9.076  14.164  67.369  1.00  0.00    -0.198 C  
HETATM   25  C   UNL     1      -9.944  14.990  66.385  1.00  0.00    -0.279 C  
HETATM   26  N   UNL     1     -10.931  15.884  67.027  1.00  0.00    -0.248 NA 
HETATM   27  C   UNL     1     -11.656  15.172  68.103  1.00  0.00    -0.341 C  
HETATM   28  C   UNL     1     -10.277  17.084  67.547  1.00  0.00    -0.323 C  
HETATM   29  C   UNL     1     -10.763  14.331  69.047  1.00  0.00    -0.245 C  
ENDBRANCH  22  23
ENDBRANCH  21  22
ENDBRANCH  20  21
ENDBRANCH  19  20
ENDBRANCH   4   6
ENDBRANCH   3   4
ENDBRANCH   2   3
TORSDOF 7
ENDMDL
MODEL      192
REMARK 921   NORMALIZED FREE ENERGY PREDICTED BY IDOCK:   -1.80 KCAL/MOL
REMARK 922        TOTAL FREE ENERGY PREDICTED BY IDOCK:   -3.49 KCAL/MOL
REMARK 923 INTER-LIGAND FREE ENERGY PREDICTED BY IDOCK:   -2.81 KCAL/MOL
REMARK 924 INTRA-LIGAND FREE ENERGY PREDICTED BY IDOCK:   -0.68 KCAL/MOL
REMARK 927      BINDING AFFINITY PREDICTED BY RF-SCORE:    0.00 PKD
ROOT
HETATM    1  C   UNL     1      -9.988  15.363  65.477  1.00  0.00    -0.379 C  
HETATM    2  C   UNL     1     -11.255  14.994  64.721  1.00  0.00    -0.393 C  
ENDROOT
BRANCH   2   3
HETATM    3  C   UNL     1     -12.237  14.266  65.636  1.00  0.00    -0.409 C  
BRANCH   3   4
HETATM    4  C   UNL     1     -11.550  13.443  66.711  1.00  0.00    -0.365 C  
HETATM    5  O   UNL     1     -11.511  13.778  67.894  1.00  0.00    -0.279 OA 
BRANCH   4   6
HETATM    6  C   UNL     1     -10.934  12.144  66.300  1.00  0.00    -0.332 A  
HETATM    7  C   UNL     1      -9.689  11.780  66.841  1.00  0.00    -0.212 A  
HETATM    8  C   UNL     1      -9.047  10.550  66.548  1.00  0.00    -0.157 A  
HETATM    9  C   UNL     1      -9.725   9.708  65.647  1.00  0.00    -0.293 A  
HETATM   10  S   UNL     1      -9.138   8.121  65.129  1.00  0.00     0.456 SA 
HETATM   11  C   UNL     1     -10.965  10.080  65.090  1.00  0.00     1.388 A  
HETATM   12  C   UNL     1      -7.593   7.984  65.983  1.00  0.00    -0.085 A  
HETATM   13  C   UNL     1     -11.570  11.288  65.413  1.00  0.00     0.282 A  
HETATM   14  C   UNL     1      -6.890   6.786  65.724  1.00  0.00    -0.056 A  
HETATM   15  C   UNL     1      -5.667   6.527  66.318  1.00  0.00    -0.014 A  
HETATM   16  C   UNL     1      -5.129   7.466  67.178  1.00  0.00    -0.018 A  
HETATM   17  C   UNL     1      -5.824   8.659  67.437  1.00  0.00    -0.043 A  
HETATM   18  C   UNL     1      -7.078   8.967  66.858  1.00  0.00    -0.082 A  
HETATM   19  N   UNL     1      -7.790  10.177  67.127  1.00  0.00    -0.099 NA 
BRANCH  19  20
HETATM   20  C   UNL     1      -7.227  11.125  68.116  1.00  0.00    -0.080 C  
BRANCH  20  21
HETATM   21  C   UNL     1      -7.871  10.995  69.507  1.00  0.00     0.083 C  
BRANCH  21  22
HETATM   22  C   UNL     1      -8.099   9.536  69.906  1.00  0.00    -0.157 C  
BRANCH  22  23
HETATM   23  N   UNL     1      -8.955   9.351  71.097  1.00  0.00    -0.270 NA 
HETATM   24  C   UNL     1     -10.376   9.551  70.715  1.00  0.00    -0.306 C  
HETATM   25  C   UNL     1     -10.938   8.442  69.789  1.00  0.00    -0.127 C  
HETATM   26  N   UNL     1     -10.766   7.063  70.295  1.00  0.00    -0.233 NA 
HETATM   27  C   UNL     1      -9.390   6.862  70.801  1.00  0.00    -0.161 C  
HETATM   28  C   UNL     1     -11.750   6.772  71.337  1.00  0.00    -0.325 C  
HETATM   29  C   UNL     1      -8.849   8.004  71.697  1.00  0.00    -0.139 C  
ENDBRANCH  22  23
ENDBRANCH  21  22
ENDBRANCH  20  21
ENDBRANCH  19  20
ENDBRANCH   4   6
ENDBRANCH   3   4
ENDBRANCH   2   3
TORSDOF 7
ENDMDL
MODEL      193
REMARK 921   NORMALIZED FREE ENERGY PREDICTED BY IDOCK:   -1.71 KCAL/MOL
REMARK 922        TOTAL FREE ENERGY PREDICTED BY IDOCK:   -3.37 KCAL/MOL
REMARK 923 INTER-LIGAND FREE ENERGY PREDICTED BY IDOCK:   -3.60 KCAL/MOL
REMARK 924 INTRA-LIGAND FREE ENERGY PREDICTED BY IDOCK:    0.22 KCAL/MOL
REMARK 927      BINDING AFFINITY PREDICTED BY RF-SCORE:    0.00 PKD
ROOT
HETATM    1  C   UNL     1      -5.672  12.377  67.346  1.00  0.00    -0.134 C  
HETATM    2  C   UNL     1      -6.022  11.132  66.545  1.00  0.00    -0.143 C  
ENDROOT
BRANCH   2   3
HETATM    3  C   UNL     1      -5.348   9.898  67.141  1.00  0.00    -0.042 C  
BRANCH   3   4
HETATM    4  C   UNL     1      -6.310   8.745  67.366  1.00  0.00    -0.057 C  
HETATM    5  O   UNL     1      -6.768   8.062  66.452  1.00  0.00    -0.056 OA 
BRANCH   4   6
HETATM    6  C   UNL     1      -6.671   8.412  68.779  1.00  0.00    -0.058 A  
HETATM    7  C   UNL     1      -7.706   7.492  69.016  1.00  0.00    -0.117 A  
HETATM    8  C   UNL     1      -8.091   7.077  70.317  1.00  0.00    -0.119 A  
HETATM    9  C   UNL     1      -7.383   7.669  71.379  1.00  0.00    -0.074 A  
HETATM   10  S   UNL     1      -7.667   7.314  73.089  1.00  0.00    -0.088 SA 
HETATM   11  C   UNL     1      -6.358   8.606  71.142  1.00  0.00    -0.049 A  
HETATM   12  C   UNL     1      -8.996   6.145  73.024  1.00  0.00    -0.131 A  
HETATM   13  C   UNL     1      -5.999   8.976  69.852  1.00  0.00    -0.031 A  
HETATM   14  C   UNL     1      -9.441   5.700  74.289  1.00  0.00    -0.147 A  
HETATM   15  C   UNL     1     -10.471   4.783  74.407  1.00  0.00    -0.331 A  
HETATM   16  C   UNL     1     -11.072   4.300  73.259  1.00  0.00    -0.342 A  
HETATM   17  C   UNL     1     -10.633   4.741  72.000  1.00  0.00    -0.176 A  
HETATM   18  C   UNL     1      -9.582   5.674  71.828  1.00  0.00    -0.156 A  
HETATM   19  N   UNL     1      -9.130   6.117  70.546  1.00  0.00    -0.152 NA 
BRANCH  19  20
HETATM   20  C   UNL     1      -9.737   5.519  69.335  1.00  0.00    -0.160 C  
BRANCH  20  21
HETATM   21  C   UNL     1      -9.801   6.498  68.149  1.00  0.00    -0.131 C  
BRANCH  21  22
HETATM   22  C   UNL     1      -9.730   5.780  66.801  1.00  0.00    -0.153 C  
BRANCH  22  23
HETATM   23  N   UNL     1      -8.858   4.587  66.784  1.00  0.00    -0.111 NA 
HETATM   24  C   UNL     1      -9.523   3.504  66.015  1.00  0.00    -0.137 C  
HETATM   25  C   UNL     1      -9.634   3.793  64.496  1.00  0.00    -0.171 C  
HETATM   26  N   UNL     1      -8.358   4.138  63.834  1.00  0.00    -0.093 NA 
HETATM   27  C   UNL     1      -7.605   5.128  64.638  1.00  0.00    -0.079 C  
HETATM   28  C   UNL     1      -7.555   2.937  63.606  1.00  0.00    -0.067 C  
HETATM   29  C   UNL     1      -7.542   4.825  66.155  1.00  0.00    -0.090 C  
ENDBRANCH  22  23
ENDBRANCH  21  22
ENDBRANCH  20  21
ENDBRANCH  19  20
ENDBRANCH   4   6
ENDBRANCH   3   4
ENDBRANCH   2   3
TORSDOF 7
ENDMDL
MODEL      194
REMARK 921   NORMALIZED FREE ENERGY PREDICTED BY IDOCK:   -1.70 KCAL/MOL
REMARK 922        TOTAL FREE ENERGY PREDICTED BY IDOCK:   -3.35 KCAL/MOL
REMARK 923 INTER-LIGAND FREE ENERGY PREDICTED BY IDOCK:   -3.20 KCAL/MOL
REMARK 924 INTRA-LIGAND FREE ENERGY PREDICTED BY IDOCK:   -0.15 KCAL/MOL
REMARK 927      BINDING AFFINITY PREDICTED BY RF-SCORE:    0.00 PKD
ROOT
HETATM    1  C   UNL     1     -11.083  15.803  64.684  1.00  0.00    -0.376 C  
HETATM    2  C   UNL     1     -11.993  14.968  65.572  1.00  0.00     0.000 C  
ENDROOT
BRANCH   2   3
HETATM    3  C   UNL     1     -11.984  13.506  65.132  1.00  0.00    -0.391 C  
BRANCH   3   4
HETATM    4  C   UNL     1     -11.874  12.536  66.296  1.00  0.00    -0.390 C  
HETATM    5  O   UNL     1     -12.814  12.271  67.043  1.00  0.00     1.043 OA 
BRANCH   4   6
HETATM    6  C   UNL     1     -10.563  11.846  66.499  1.00  0.00    -0.278 A  
HETATM    7  C   UNL     1     -10.277  11.288  67.756  1.00  0.00    -0.203 A  
HETATM    8  C   UNL     1      -9.083  10.574  68.033  1.00  0.00    -0.138 A  
HETATM    9  C   UNL     1      -8.170  10.477  66.967  1.00  0.00    -0.125 A  
HETATM   10  S   UNL     1      -6.616   9.634  67.056  1.00  0.00    -0.067 SA 
HETATM   11  C   UNL     1      -8.448  11.052  65.711  1.00  0.00    -0.119 A  
HETATM   12  C   UNL     1      -6.583   9.063  68.733  1.00  0.00    -0.053 A  
HETATM   13  C   UNL     1      -9.636  11.731  65.473  1.00  0.00    -0.222 A  
HETATM   14  C   UNL     1      -5.412   8.356  69.082  1.00  0.00    -0.031 A  
HETATM   15  C   UNL     1      -5.234   7.842  70.355  1.00  0.00    -0.023 A  
HETATM   16  C   UNL     1      -6.229   8.031  71.297  1.00  0.00    -0.034 A  
HETATM   17  C   UNL     1      -7.395   8.735  70.953  1.00  0.00    -0.087 A  
HETATM   18  C   UNL     1      -7.623   9.275  69.665  1.00  0.00    -0.084 A  
HETATM   19  N   UNL     1      -8.813   9.985  69.312  1.00  0.00    -0.166 NA 
BRANCH  19  20
HETATM   20  C   UNL     1      -9.895  10.099  70.318  1.00  0.00     0.038 C  
BRANCH  20  21
HETATM   21  C   UNL     1     -10.824   8.874  70.342  1.00  0.00    -0.269 C  
BRANCH  21  22
HETATM   22  C   UNL     1     -10.179   7.643  69.705  1.00  0.00    -0.204 C  
BRANCH  22  23
HETATM   23  N   UNL     1     -10.726   6.351  70.168  1.00  0.00    -0.247 NA 
HETATM   24  C   UNL     1     -10.383   5.292  69.186  1.00  0.00    -0.194 C  
HETATM   25  C   UNL     1      -8.871   4.954  69.133  1.00  0.00    -0.092 C  
HETATM   26  N   UNL     1      -8.264   4.614  70.438  1.00  0.00    -0.074 NA 
HETATM   27  C   UNL     1      -8.685   5.581  71.476  1.00  0.00    -0.136 C  
HETATM   28  C   UNL     1      -8.615   3.248  70.828  1.00  0.00    -0.071 C  
HETATM   29  C   UNL     1     -10.196   5.920  71.479  1.00  0.00    -0.205 C  
ENDBRANCH  22  23
ENDBRANCH  21  22
ENDBRANCH  20  21
ENDBRANCH  19  20
ENDBRANCH   4   6
ENDBRANCH   3   4
ENDBRANCH   2   3
TORSDOF 7
ENDMDL
MODEL      195
REMARK 921   NORMALIZED FREE ENERGY PREDICTED BY IDOCK:   -1.64 KCAL/MOL
REMARK 922        TOTAL FREE ENERGY PREDICTED BY IDOCK:   -3.27 KCAL/MOL
REMARK 923 INTER-LIGAND FREE ENERGY PREDICTED BY IDOCK:   -4.17 KCAL/MOL
REMARK 924 INTRA-LIGAND FREE ENERGY PREDICTED BY IDOCK:    0.91 KCAL/MOL
REMARK 927      BINDING AFFINITY PREDICTED BY RF-SCORE:    0.00 PKD
ROOT
HETATM    1  C   UNL     1     -12.958  12.607  72.004  1.00  0.00    -0.379 C  
HETATM    2  C   UNL     1     -13.282  12.156  70.588  1.00  0.00     0.525 C  
ENDROOT
BRANCH   2   3
HETATM    3  C   UNL     1     -12.047  11.565  69.913  1.00  0.00    -0.389 C  
BRANCH   3   4
HETATM    4  C   UNL     1     -11.299  12.572  69.057  1.00  0.00    -0.290 C  
HETATM    5  O   UNL     1     -11.035  13.713  69.434  1.00  0.00    -0.183 OA 
BRANCH   4   6
HETATM    6  C   UNL     1     -10.830  12.122  67.710  1.00  0.00    -0.263 A  
HETATM    7  C   UNL     1      -9.864  11.104  67.633  1.00  0.00    -0.191 A  
HETATM    8  C   UNL     1      -9.391  10.578  66.404  1.00  0.00    -0.168 A  
HETATM    9  C   UNL     1      -9.931  11.160  65.243  1.00  0.00    -0.260 A  
HETATM   10  S   UNL     1      -9.510  10.676  63.593  1.00  0.00    -0.325 SA 
HETATM   11  C   UNL     1     -10.885  12.194  65.319  1.00  0.00    -0.336 A  
HETATM   12  C   UNL     1      -8.306   9.404  63.861  1.00  0.00    -0.175 A  
HETATM   13  C   UNL     1     -11.337  12.673  66.543  1.00  0.00    -0.377 A  
HETATM   14  C   UNL     1      -7.779   8.845  62.676  1.00  0.00    -0.117 A  
HETATM   15  C   UNL     1      -6.830   7.838  62.716  1.00  0.00    -0.080 A  
HETATM   16  C   UNL     1      -6.395   7.378  63.945  1.00  0.00    -0.048 A  
HETATM   17  C   UNL     1      -6.915   7.932  65.125  1.00  0.00    -0.059 A  
HETATM   18  C   UNL     1      -7.889   8.960  65.136  1.00  0.00    -0.106 A  
HETATM   19  N   UNL     1      -8.426   9.520  66.337  1.00  0.00    -0.125 NA 
BRANCH  19  20
HETATM   20  C   UNL     1      -8.000   8.949  67.636  1.00  0.00    -0.102 C  
BRANCH  20  21
HETATM   21  C   UNL     1      -8.112   7.415  67.684  1.00  0.00    -0.114 C  
BRANCH  21  22
HETATM   22  C   UNL     1      -9.006   6.935  68.828  1.00  0.00    -0.130 C  
BRANCH  22  23
HETATM   23  N   UNL     1      -8.381   5.932  69.717  1.00  0.00    -0.122 NA 
HETATM   24  C   UNL     1      -8.861   4.577  69.342  1.00  0.00    -0.089 C  
HETATM   25  C   UNL     1      -8.345   4.091  67.963  1.00  0.00    -0.093 C  
HETATM   26  N   UNL     1      -6.877   4.146  67.794  1.00  0.00    -0.051 NA 
HETATM   27  C   UNL     1      -6.345   5.440  68.275  1.00  0.00    -0.035 C  
HETATM   28  C   UNL     1      -6.237   3.030  68.492  1.00  0.00    -0.029 C  
HETATM   29  C   UNL     1      -6.905   5.911  69.640  1.00  0.00    -0.061 C  
ENDBRANCH  22  23
ENDBRANCH  21  22
ENDBRANCH  20  21
ENDBRANCH  19  20
ENDBRANCH   4   6
ENDBRANCH   3   4
ENDBRANCH   2   3
TORSDOF 7
ENDMDL
MODEL      196
REMARK 921   NORMALIZED FREE ENERGY PREDICTED BY IDOCK:   -1.64 KCAL/MOL
REMARK 922        TOTAL FREE ENERGY PREDICTED BY IDOCK:   -3.26 KCAL/MOL
REMARK 923 INTER-LIGAND FREE ENERGY PREDICTED BY IDOCK:   -3.01 KCAL/MOL
REMARK 924 INTRA-LIGAND FREE ENERGY PREDICTED BY IDOCK:   -0.25 KCAL/MOL
REMARK 927      BINDING AFFINITY PREDICTED BY RF-SCORE:    0.00 PKD
ROOT
HETATM    1  C   UNL     1     -10.766   4.926  68.321  1.00  0.00     0.399 C  
HETATM    2  C   UNL     1     -11.151   6.351  68.690  1.00  0.00    -0.393 C  
ENDROOT
BRANCH   2   3
HETATM    3  C   UNL     1     -10.821   6.638  70.153  1.00  0.00    -0.330 C  
BRANCH   3   4
HETATM    4  C   UNL     1      -9.449   7.263  70.341  1.00  0.00    -0.165 C  
HETATM    5  O   UNL     1      -9.076   7.763  71.401  1.00  0.00    -0.131 OA 
BRANCH   4   6
HETATM    6  C   UNL     1      -8.505   7.219  69.182  1.00  0.00    -0.133 A  
HETATM    7  C   UNL     1      -8.669   8.142  68.136  1.00  0.00    -0.136 A  
HETATM    8  C   UNL     1      -7.799   8.209  67.018  1.00  0.00    -0.104 A  
HETATM    9  C   UNL     1      -6.755   7.265  67.001  1.00  0.00    -0.068 A  
HETATM   10  S   UNL     1      -5.536   7.148  65.724  1.00  0.00    -0.028 SA 
HETATM   11  C   UNL     1      -6.601   6.327  68.040  1.00  0.00    -0.062 A  
HETATM   12  C   UNL     1      -6.029   8.427  64.602  1.00  0.00    -0.063 A  
HETATM   13  C   UNL     1      -7.466   6.302  69.127  1.00  0.00    -0.094 A  
HETATM   14  C   UNL     1      -5.212   8.540  63.455  1.00  0.00    -0.061 A  
HETATM   15  C   UNL     1      -5.464   9.493  62.484  1.00  0.00    -0.084 A  
HETATM   16  C   UNL     1      -6.539  10.347  62.647  1.00  0.00    -0.138 A  
HETATM   17  C   UNL     1      -7.355  10.237  63.785  1.00  0.00    -0.069 A  
HETATM   18  C   UNL     1      -7.135   9.281  64.807  1.00  0.00    -0.095 A  
HETATM   19  N   UNL     1      -7.960   9.174  65.970  1.00  0.00    -0.102 NA 
BRANCH  19  20
HETATM   20  C   UNL     1      -9.054  10.155  66.156  1.00  0.00    -0.155 C  
BRANCH  20  21
HETATM   21  C   UNL     1      -8.554  11.527  66.640  1.00  0.00    -0.176 C  
BRANCH  21  22
HETATM   22  C   UNL     1      -7.421  11.405  67.659  1.00  0.00    -0.103 C  
BRANCH  22  23
HETATM   23  N   UNL     1      -6.349  12.412  67.512  1.00  0.00    -0.133 NA 
HETATM   24  C   UNL     1      -6.958  13.761  67.389  1.00  0.00    -0.047 C  
HETATM   25  C   UNL     1      -7.637  14.261  68.691  1.00  0.00    -0.126 C  
HETATM   26  N   UNL     1      -6.777  14.229  69.893  1.00  0.00    -0.108 NA 
HETATM   27  C   UNL     1      -6.055  12.940  69.982  1.00  0.00    -0.110 C  
HETATM   28  C   UNL     1      -5.838  15.351  69.884  1.00  0.00    -0.141 C  
HETATM   29  C   UNL     1      -5.416  12.455  68.658  1.00  0.00    -0.054 C  
ENDBRANCH  22  23
ENDBRANCH  21  22
ENDBRANCH  20  21
ENDBRANCH  19  20
ENDBRANCH   4   6
ENDBRANCH   3   4
ENDBRANCH   2   3
TORSDOF 7
ENDMDL
MODEL      197
REMARK 921   NORMALIZED FREE ENERGY PREDICTED BY IDOCK:   -1.54 KCAL/MOL
REMARK 922        TOTAL FREE ENERGY PREDICTED BY IDOCK:   -3.13 KCAL/MOL
REMARK 923 INTER-LIGAND FREE ENERGY PREDICTED BY IDOCK:   -3.87 KCAL/MOL
REMARK 924 INTRA-LIGAND FREE ENERGY PREDICTED BY IDOCK:    0.74 KCAL/MOL
REMARK 927      BINDING AFFINITY PREDICTED BY RF-SCORE:    0.00 PKD
ROOT
HETATM    1  C   UNL     1     -12.538  15.838  64.510  1.00  0.00     0.566 C  
HETATM    2  C   UNL     1     -13.113  14.516  64.025  1.00  0.00     1.244 C  
ENDROOT
BRANCH   2   3
HETATM    3  C   UNL     1     -12.722  13.378  64.965  1.00  0.00    -0.420 C  
BRANCH   3   4
HETATM    4  C   UNL     1     -11.954  12.269  64.268  1.00  0.00    -0.407 C  
HETATM    5  O   UNL     1     -12.277  11.811  63.173  1.00  0.00    -0.429 OA 
BRANCH   4   6
HETATM    6  C   UNL     1     -10.722  11.753  64.941  1.00  0.00    -0.347 A  
HETATM    7  C   UNL     1     -10.230  12.431  66.069  1.00  0.00    -0.267 A  
HETATM    8  C   UNL     1      -9.097  11.994  66.802  1.00  0.00    -0.197 A  
HETATM    9  C   UNL     1      -8.464  10.836  66.312  1.00  0.00    -0.161 A  
HETATM   10  S   UNL     1      -7.040  10.088  67.051  1.00  0.00    -0.090 SA 
HETATM   11  C   UNL     1      -8.946  10.167  65.170  1.00  0.00    -0.225 A  
HETATM   12  C   UNL     1      -6.701  11.168  68.414  1.00  0.00    -0.060 A  
HETATM   13  C   UNL     1     -10.069  10.617  64.487  1.00  0.00    -0.421 A  
HETATM   14  C   UNL     1      -5.573  10.799  69.179  1.00  0.00    -0.040 A  
HETATM   15  C   UNL     1      -5.177  11.540  70.280  1.00  0.00    -0.093 A  
HETATM   16  C   UNL     1      -5.906  12.663  70.627  1.00  0.00    -0.086 A  
HETATM   17  C   UNL     1      -7.028  13.033  69.867  1.00  0.00     0.502 A  
HETATM   18  C   UNL     1      -7.473  12.306  68.737  1.00  0.00    -0.065 A  
HETATM   19  N   UNL     1      -8.619  12.677  67.968  1.00  0.00    -0.181 NA 
BRANCH  19  20
HETATM   20  C   UNL     1      -9.427  13.836  68.414  1.00  0.00    -0.198 C  
BRANCH  20  21
HETATM   21  C   UNL     1      -8.568  15.050  68.809  1.00  0.00    -0.182 C  
BRANCH  21  22
HETATM   22  C   UNL     1      -7.695  15.543  67.655  1.00  0.00    -0.158 C  
BRANCH  22  23
HETATM   23  N   UNL     1      -7.578  17.013  67.556  1.00  0.00    -0.162 NA 
HETATM   24  C   UNL     1      -8.274  17.479  66.329  1.00  0.00    -0.240 C  
HETATM   25  C   UNL     1      -9.816  17.322  66.387  1.00  0.00    -0.299 C  
HETATM   26  N   UNL     1     -10.459  17.937  67.567  1.00  0.00    -0.383 NA 
HETATM   27  C   UNL     1      -9.718  17.595  68.802  1.00  0.00    -0.311 C  
HETATM   28  C   UNL     1     -10.555  19.387  67.404  1.00  0.00    -0.488 C  
HETATM   29  C   UNL     1      -8.179  17.732  68.699  1.00  0.00    -0.271 C  
ENDBRANCH  22  23
ENDBRANCH  21  22
ENDBRANCH  20  21
ENDBRANCH  19  20
ENDBRANCH   4   6
ENDBRANCH   3   4
ENDBRANCH   2   3
TORSDOF 7
ENDMDL
MODEL      198
REMARK 921   NORMALIZED FREE ENERGY PREDICTED BY IDOCK:   -1.48 KCAL/MOL
REMARK 922        TOTAL FREE ENERGY PREDICTED BY IDOCK:   -3.04 KCAL/MOL
REMARK 923 INTER-LIGAND FREE ENERGY PREDICTED BY IDOCK:   -2.85 KCAL/MOL
REMARK 924 INTRA-LIGAND FREE ENERGY PREDICTED BY IDOCK:   -0.19 KCAL/MOL
REMARK 927      BINDING AFFINITY PREDICTED BY RF-SCORE:    0.00 PKD
ROOT
HETATM    1  C   UNL     1      -9.461  10.491  62.842  1.00  0.00    -0.360 C  
HETATM    2  C   UNL     1      -8.839   9.187  63.320  1.00  0.00    -0.095 C  
ENDROOT
BRANCH   2   3
HETATM    3  C   UNL     1      -7.663   8.792  62.430  1.00  0.00    -0.117 C  
BRANCH   3   4
HETATM    4  C   UNL     1      -6.448   8.335  63.220  1.00  0.00    -0.081 C  
HETATM    5  O   UNL     1      -5.688   7.449  62.833  1.00  0.00    -0.047 OA 
BRANCH   4   6
HETATM    6  C   UNL     1      -6.154   9.040  64.505  1.00  0.00    -0.070 A  
HETATM    7  C   UNL     1      -6.466   8.401  65.717  1.00  0.00    -0.053 A  
HETATM    8  C   UNL     1      -6.184   8.968  66.986  1.00  0.00    -0.059 A  
HETATM    9  C   UNL     1      -5.587  10.242  66.966  1.00  0.00    -0.045 A  
HETATM   10  S   UNL     1      -5.131  11.155  68.412  1.00  0.00    -0.039 SA 
HETATM   11  C   UNL     1      -5.291  10.891  65.751  1.00  0.00    -0.141 A  
HETATM   12  C   UNL     1      -5.648  10.082  69.723  1.00  0.00    -0.038 A  
HETATM   13  C   UNL     1      -5.568  10.297  64.526  1.00  0.00    -0.134 A  
HETATM   14  C   UNL     1      -5.411  10.592  71.019  1.00  0.00    -0.096 A  
HETATM   15  C   UNL     1      -5.756   9.873  72.150  1.00  0.00     0.228 A  
HETATM   16  C   UNL     1      -6.345   8.631  71.998  1.00  0.00    -0.073 A  
HETATM   17  C   UNL     1      -6.584   8.121  70.712  1.00  0.00    -0.037 A  
HETATM   18  C   UNL     1      -6.246   8.817  69.526  1.00  0.00    -0.040 A  
HETATM   19  N   UNL     1      -6.481   8.295  68.217  1.00  0.00    -0.058 NA 
BRANCH  19  20
HETATM   20  C   UNL     1      -7.039   6.928  68.088  1.00  0.00    -0.085 C  
BRANCH  20  21
HETATM   21  C   UNL     1      -8.462   6.912  67.503  1.00  0.00    -0.122 C  
BRANCH  21  22
HETATM   22  C   UNL     1      -9.516   6.563  68.554  1.00  0.00    -0.121 C  
BRANCH  22  23
HETATM   23  N   UNL     1      -9.043   6.646  69.952  1.00  0.00    -0.144 NA 
HETATM   24  C   UNL     1      -9.834   7.672  70.677  1.00  0.00    -0.182 C  
HETATM   25  C   UNL     1     -11.316   7.275  70.904  1.00  0.00    -0.280 C  
HETATM   26  N   UNL     1     -11.514   5.964  71.559  1.00  0.00    -0.210 NA 
HETATM   27  C   UNL     1     -10.646   4.937  70.941  1.00  0.00    -0.007 C  
HETATM   28  C   UNL     1     -11.260   6.063  72.996  1.00  0.00    -0.197 C  
HETATM   29  C   UNL     1      -9.182   5.378  70.699  1.00  0.00    -0.148 C  
ENDBRANCH  22  23
ENDBRANCH  21  22
ENDBRANCH  20  21
ENDBRANCH  19  20
ENDBRANCH   4   6
ENDBRANCH   3   4
ENDBRANCH   2   3
TORSDOF 7
ENDMDL
MODEL      199
REMARK 921   NORMALIZED FREE ENERGY PREDICTED BY IDOCK:   -1.45 KCAL/MOL
REMARK 922        TOTAL FREE ENERGY PREDICTED BY IDOCK:   -2.99 KCAL/MOL
REMARK 923 INTER-LIGAND FREE ENERGY PREDICTED BY IDOCK:   -2.95 KCAL/MOL
REMARK 924 INTRA-LIGAND FREE ENERGY PREDICTED BY IDOCK:   -0.05 KCAL/MOL
REMARK 927      BINDING AFFINITY PREDICTED BY RF-SCORE:    0.00 PKD
ROOT
HETATM    1  C   UNL     1      -5.675  12.368  67.355  1.00  0.00    -0.134 C  
HETATM    2  C   UNL     1      -6.028  11.102  66.589  1.00  0.00    -0.130 C  
ENDROOT
BRANCH   2   3
HETATM    3  C   UNL     1      -5.387   9.879  67.242  1.00  0.00    -0.042 C  
BRANCH   3   4
HETATM    4  C   UNL     1      -6.368   8.742  67.465  1.00  0.00    -0.056 C  
HETATM    5  O   UNL     1      -6.961   8.562  68.527  1.00  0.00    -0.063 OA 
BRANCH   4   6
HETATM    6  C   UNL     1      -6.648   7.834  66.310  1.00  0.00    -0.050 A  
HETATM    7  C   UNL     1      -7.380   6.655  66.535  1.00  0.00    -0.074 A  
HETATM    8  C   UNL     1      -7.734   5.754  65.498  1.00  0.00    -0.090 A  
HETATM    9  C   UNL     1      -7.282   6.098  64.211  1.00  0.00    -0.061 A  
HETATM   10  S   UNL     1      -7.599   5.145  62.753  1.00  0.00    -0.063 SA 
HETATM   11  C   UNL     1      -6.533   7.270  63.988  1.00  0.00    -0.044 A  
HETATM   12  C   UNL     1      -8.523   3.772  63.384  1.00  0.00    -0.092 A  
HETATM   13  C   UNL     1      -6.218   8.137  65.027  1.00  0.00    -0.048 A  
HETATM   14  C   UNL     1      -8.897   2.825  62.405  1.00  0.00    -0.074 A  
HETATM   15  C   UNL     1      -9.625   1.696  62.738  1.00  0.00    -0.089 A  
HETATM   16  C   UNL     1      -9.988   1.499  64.058  1.00  0.00    -0.082 A  
HETATM   17  C   UNL     1      -9.617   2.438  65.034  1.00  0.00     0.043 A  
HETATM   18  C   UNL     1      -8.876   3.609  64.742  1.00  0.00    -0.120 A  
HETATM   19  N   UNL     1      -8.505   4.569  65.734  1.00  0.00    -0.114 NA 
BRANCH  19  20
HETATM   20  C   UNL     1      -8.979   4.371  67.124  1.00  0.00    -0.119 C  
BRANCH  20  21
HETATM   21  C   UNL     1      -7.829   4.221  68.135  1.00  0.00    -0.079 C  
BRANCH  21  22
HETATM   22  C   UNL     1      -8.196   4.764  69.516  1.00  0.00    -0.076 C  
BRANCH  22  23
HETATM   23  N   UNL     1      -9.533   4.361  70.000  1.00  0.00    -0.161 NA 
HETATM   24  C   UNL     1      -9.451   4.026  71.445  1.00  0.00    -0.160 C  
HETATM   25  C   UNL     1      -9.179   5.250  72.356  1.00  0.00    -0.140 C  
HETATM   26  N   UNL     1     -10.117   6.379  72.177  1.00  0.00    -0.177 NA 
HETATM   27  C   UNL     1     -10.321   6.664  70.739  1.00  0.00    -0.202 C  
HETATM   28  C   UNL     1     -11.392   6.098  72.837  1.00  0.00    -0.169 C  
HETATM   29  C   UNL     1     -10.558   5.416  69.853  1.00  0.00    -0.281 C  
ENDBRANCH  22  23
ENDBRANCH  21  22
ENDBRANCH  20  21
ENDBRANCH  19  20
ENDBRANCH   4   6
ENDBRANCH   3   4
ENDBRANCH   2   3
TORSDOF 7
ENDMDL
MODEL      200
REMARK 921   NORMALIZED FREE ENERGY PREDICTED BY IDOCK:   -1.44 KCAL/MOL
REMARK 922        TOTAL FREE ENERGY PREDICTED BY IDOCK:   -2.98 KCAL/MOL
REMARK 923 INTER-LIGAND FREE ENERGY PREDICTED BY IDOCK:   -3.83 KCAL/MOL
REMARK 924 INTRA-LIGAND FREE ENERGY PREDICTED BY IDOCK:    0.85 KCAL/MOL
REMARK 927      BINDING AFFINITY PREDICTED BY RF-SCORE:    0.00 PKD
ROOT
HETATM    1  C   UNL     1     -10.588   3.131  72.894  1.00  0.00    -0.210 C  
HETATM    2  C   UNL     1      -9.866   4.442  72.625  1.00  0.00    -0.205 C  
ENDROOT
BRANCH   2   3
HETATM    3  C   UNL     1     -10.145   4.932  71.207  1.00  0.00    -0.269 C  
BRANCH   3   4
HETATM    4  C   UNL     1      -8.984   4.695  70.257  1.00  0.00    -0.096 C  
HETATM    5  O   UNL     1      -8.122   3.838  70.447  1.00  0.00    -0.053 OA 
BRANCH   4   6
HETATM    6  C   UNL     1      -8.929   5.521  69.012  1.00  0.00    -0.118 A  
HETATM    7  C   UNL     1      -9.281   6.880  69.083  1.00  0.00    -0.141 A  
HETATM    8  C   UNL     1      -9.217   7.755  67.969  1.00  0.00    -0.138 A  
HETATM    9  C   UNL     1      -8.799   7.172  66.758  1.00  0.00    -0.130 A  
HETATM   10  S   UNL     1      -8.630   8.051  65.232  1.00  0.00    -0.027 SA 
HETATM   11  C   UNL     1      -8.464   5.805  66.682  1.00  0.00    -0.113 A  
HETATM   12  C   UNL     1      -9.136   9.691  65.673  1.00  0.00    -0.189 A  
HETATM   13  C   UNL     1      -8.524   4.982  67.800  1.00  0.00    -0.104 A  
HETATM   14  C   UNL     1      -9.111  10.614  64.605  1.00  0.00    -0.238 A  
HETATM   15  C   UNL     1      -9.476  11.936  64.788  1.00  0.00     0.027 A  
HETATM   16  C   UNL     1      -9.873  12.352  66.045  1.00  0.00    -0.268 A  
HETATM   17  C   UNL     1      -9.900  11.437  67.110  1.00  0.00    -0.212 A  
HETATM   18  C   UNL     1      -9.533  10.076  66.973  1.00  0.00    -0.164 A  
HETATM   19  N   UNL     1      -9.552   9.146  68.058  1.00  0.00    -0.145 NA 
BRANCH  19  20
HETATM   20  C   UNL     1      -9.902   9.641  69.410  1.00  0.00    -0.193 C  
BRANCH  20  21
HETATM   21  C   UNL     1     -10.355  11.112  69.413  1.00  0.00    -0.090 C  
BRANCH  21  22
HETATM   22  C   UNL     1     -11.516  11.359  70.376  1.00  0.00    -0.041 C  
BRANCH  22  23
HETATM   23  N   UNL     1     -12.459  12.413  69.945  1.00  0.00    -0.003 NA 
HETATM   24  C   UNL     1     -13.286  12.836  71.104  1.00  0.00     0.048 C  
HETATM   25  C   UNL     1     -12.490  13.599  72.194  1.00  0.00     0.053 C  
HETATM   26  N   UNL     1     -11.722  14.762  71.701  1.00  0.00    -0.326 NA 
HETATM   27  C   UNL     1     -10.978  14.412  70.470  1.00  0.00     0.252 C  
HETATM   28  C   UNL     1     -12.608  15.903  71.467  1.00  0.00    -0.400 C  
HETATM   29  C   UNL     1     -11.793  13.622  69.417  1.00  0.00    -0.339 C  
ENDBRANCH  22  23
ENDBRANCH  21  22
ENDBRANCH  20  21
ENDBRANCH  19  20
ENDBRANCH   4   6
ENDBRANCH   3   4
ENDBRANCH   2   3
TORSDOF 7
ENDMDL
MODEL      201
REMARK 921   NORMALIZED FREE ENERGY PREDICTED BY IDOCK:   -1.33 KCAL/MOL
REMARK 922        TOTAL FREE ENERGY PREDICTED BY IDOCK:   -2.83 KCAL/MOL
REMARK 923 INTER-LIGAND FREE ENERGY PREDICTED BY IDOCK:   -2.12 KCAL/MOL
REMARK 924 INTRA-LIGAND FREE ENERGY PREDICTED BY IDOCK:   -0.71 KCAL/MOL
REMARK 927      BINDING AFFINITY PREDICTED BY RF-SCORE:    0.00 PKD
ROOT
HETATM    1  C   UNL     1      -9.366   9.135  64.825  1.00  0.00     0.021 C  
HETATM    2  C   UNL     1      -8.845   7.914  65.568  1.00  0.00    -0.070 C  
ENDROOT
BRANCH   2   3
HETATM    3  C   UNL     1      -7.792   7.185  64.738  1.00  0.00    -0.126 C  
BRANCH   3   4
HETATM    4  C   UNL     1      -6.507   6.924  65.504  1.00  0.00    -0.046 C  
HETATM    5  O   UNL     1      -5.610   6.193  65.087  1.00  0.00    -0.017 OA 
BRANCH   4   6
HETATM    6  C   UNL     1      -6.323   7.634  66.807  1.00  0.00    -0.049 A  
HETATM    7  C   UNL     1      -6.182   6.874  67.981  1.00  0.00    -0.034 A  
HETATM    8  C   UNL     1      -5.957   7.454  69.256  1.00  0.00    -0.030 A  
HETATM    9  C   UNL     1      -5.909   8.860  69.287  1.00  0.00    -0.035 A  
HETATM   10  S   UNL     1      -5.635   9.818  70.749  1.00  0.00    -0.073 SA 
HETATM   11  C   UNL     1      -6.070   9.623  68.113  1.00  0.00    -0.055 A  
HETATM   12  C   UNL     1      -5.498   8.575  72.004  1.00  0.00    -0.043 A  
HETATM   13  C   UNL     1      -6.273   9.018  66.879  1.00  0.00    -0.059 A  
HETATM   14  C   UNL     1      -5.288   9.084  73.305  1.00  0.00    -0.092 A  
HETATM   15  C   UNL     1      -5.158   8.241  74.395  1.00  0.00    -0.069 A  
HETATM   16  C   UNL     1      -5.237   6.875  74.196  1.00  0.00    -0.046 A  
HETATM   17  C   UNL     1      -5.446   6.365  72.905  1.00  0.00    -0.037 A  
HETATM   18  C   UNL     1      -5.582   7.187  71.759  1.00  0.00    -0.036 A  
HETATM   19  N   UNL     1      -5.787   6.668  70.443  1.00  0.00    -0.023 NA 
BRANCH  19  20
HETATM   20  C   UNL     1      -5.784   5.199  70.251  1.00  0.00    -0.016 C  
BRANCH  20  21
HETATM   21  C   UNL     1      -7.196   4.614  70.074  1.00  0.00    -0.053 C  
BRANCH  21  22
HETATM   22  C   UNL     1      -7.676   3.870  71.321  1.00  0.00    -0.059 C  
BRANCH  22  23
HETATM   23  N   UNL     1      -9.106   4.067  71.643  1.00  0.00    -0.117 NA 
HETATM   24  C   UNL     1      -9.319   3.832  73.093  1.00  0.00    -0.102 C  
HETATM   25  C   UNL     1      -8.675   4.910  74.003  1.00  0.00    -0.111 C  
HETATM   26  N   UNL     1      -9.055   6.302  73.680  1.00  0.00    -0.127 NA 
HETATM   27  C   UNL     1      -8.973   6.540  72.222  1.00  0.00    -0.138 C  
HETATM   28  C   UNL     1     -10.397   6.599  74.181  1.00  0.00    -0.321 C  
HETATM   29  C   UNL     1      -9.597   5.428  71.343  1.00  0.00    -0.156 C  
ENDBRANCH  22  23
ENDBRANCH  21  22
ENDBRANCH  20  21
ENDBRANCH  19  20
ENDBRANCH   4   6
ENDBRANCH   3   4
ENDBRANCH   2   3
TORSDOF 7
ENDMDL
MODEL      202
REMARK 921   NORMALIZED FREE ENERGY PREDICTED BY IDOCK:   -1.14 KCAL/MOL
REMARK 922        TOTAL FREE ENERGY PREDICTED BY IDOCK:   -2.56 KCAL/MOL
REMARK 923 INTER-LIGAND FREE ENERGY PREDICTED BY IDOCK:   -3.36 KCAL/MOL
REMARK 924 INTRA-LIGAND FREE ENERGY PREDICTED BY IDOCK:    0.79 KCAL/MOL
REMARK 927      BINDING AFFINITY PREDICTED BY RF-SCORE:    0.00 PKD
ROOT
HETATM    1  C   UNL     1      -5.735   5.504  64.265  1.00  0.00    -0.017 C  
HETATM    2  C   UNL     1      -5.860   6.232  62.935  1.00  0.00    -0.026 C  
ENDROOT
BRANCH   2   3
HETATM    3  C   UNL     1      -6.521   7.595  63.125  1.00  0.00    -0.062 C  
BRANCH   3   4
HETATM    4  C   UNL     1      -7.563   7.601  64.230  1.00  0.00    -0.108 C  
HETATM    5  O   UNL     1      -7.822   6.614  64.917  1.00  0.00    -0.102 OA 
BRANCH   4   6
HETATM    6  C   UNL     1      -8.264   8.891  64.513  1.00  0.00    -0.166 A  
HETATM    7  C   UNL     1      -7.809   9.693  65.574  1.00  0.00    -0.111 A  
HETATM    8  C   UNL     1      -8.378  10.953  65.891  1.00  0.00    -0.149 A  
HETATM    9  C   UNL     1      -9.461  11.353  65.086  1.00  0.00    -0.199 A  
HETATM   10  S   UNL     1     -10.335  12.880  65.274  1.00  0.00    -0.292 SA 
HETATM   11  C   UNL     1      -9.930  10.541  64.035  1.00  0.00    -0.363 A  
HETATM   12  C   UNL     1      -9.518  13.623  66.660  1.00  0.00    -0.277 A  
HETATM   13  C   UNL     1      -9.336   9.319  63.744  1.00  0.00     0.365 A  
HETATM   14  C   UNL     1     -10.045  14.877  67.041  1.00  0.00    -0.244 A  
HETATM   15  C   UNL     1      -9.515  15.587  68.104  1.00  0.00    -0.198 A  
HETATM   16  C   UNL     1      -8.449  15.050  68.802  1.00  0.00    -0.180 A  
HETATM   17  C   UNL     1      -7.923  13.803  68.427  1.00  0.00    -0.144 A  
HETATM   18  C   UNL     1      -8.428  13.041  67.345  1.00  0.00    -0.200 A  
HETATM   19  N   UNL     1      -7.888  11.776  66.958  1.00  0.00    -0.161 NA 
BRANCH  19  20
HETATM   20  C   UNL     1      -6.695  11.266  67.672  1.00  0.00    -0.073 C  
BRANCH  20  21
HETATM   21  C   UNL     1      -7.045  10.272  68.793  1.00  0.00    -0.072 C  
BRANCH  21  22
HETATM   22  C   UNL     1      -5.801   9.644  69.421  1.00  0.00    -0.034 C  
BRANCH  22  23
HETATM   23  N   UNL     1      -5.893   8.186  69.644  1.00  0.00    -0.026 NA 
HETATM   24  C   UNL     1      -5.521   7.879  71.048  1.00  0.00    -0.030 C  
HETATM   25  C   UNL     1      -6.548   8.389  72.093  1.00  0.00    -0.079 C  
HETATM   26  N   UNL     1      -7.941   7.953  71.858  1.00  0.00    -0.099 NA 
HETATM   27  C   UNL     1      -8.309   8.129  70.436  1.00  0.00    -0.120 C  
HETATM   28  C   UNL     1      -8.121   6.562  72.274  1.00  0.00    -0.106 C  
HETATM   29  C   UNL     1      -7.248   7.638  69.420  1.00  0.00    -0.081 C  
ENDBRANCH  22  23
ENDBRANCH  21  22
ENDBRANCH  20  21
ENDBRANCH  19  20
ENDBRANCH   4   6
ENDBRANCH   3   4
ENDBRANCH   2   3
TORSDOF 7
ENDMDL
MODEL      203
REMARK 921   NORMALIZED FREE ENERGY PREDICTED BY IDOCK:   -1.03 KCAL/MOL
REMARK 922        TOTAL FREE ENERGY PREDICTED BY IDOCK:   -2.40 KCAL/MOL
REMARK 923 INTER-LIGAND FREE ENERGY PREDICTED BY IDOCK:   -2.46 KCAL/MOL
REMARK 924 INTRA-LIGAND FREE ENERGY PREDICTED BY IDOCK:    0.06 KCAL/MOL
REMARK 927      BINDING AFFINITY PREDICTED BY RF-SCORE:    0.00 PKD
ROOT
HETATM    1  C   UNL     1      -9.815  10.083  64.594  1.00  0.00    -0.288 C  
HETATM    2  C   UNL     1      -9.230   8.915  65.374  1.00  0.00    -0.202 C  
ENDROOT
BRANCH   2   3
HETATM    3  C   UNL     1      -8.213   8.155  64.526  1.00  0.00    -0.118 C  
BRANCH   3   4
HETATM    4  C   UNL     1      -6.862   8.013  65.204  1.00  0.00    -0.058 C  
HETATM    5  O   UNL     1      -5.823   7.771  64.592  1.00  0.00    -0.040 OA 
BRANCH   4   6
HETATM    6  C   UNL     1      -6.805   8.227  66.683  1.00  0.00    -0.068 A  
HETATM    7  C   UNL     1      -6.500   7.137  67.516  1.00  0.00    -0.054 A  
HETATM    8  C   UNL     1      -6.378   7.249  68.924  1.00  0.00    -0.039 A  
HETATM    9  C   UNL     1      -6.609   8.531  69.456  1.00  0.00    -0.040 A  
HETATM   10  S   UNL     1      -6.511   8.931  71.177  1.00  0.00    -0.072 SA 
HETATM   11  C   UNL     1      -6.934   9.621  68.624  1.00  0.00    -0.064 A  
HETATM   12  C   UNL     1      -6.113   7.370  71.913  1.00  0.00    -0.036 A  
HETATM   13  C   UNL     1      -7.029   9.475  67.245  1.00  0.00    -0.085 A  
HETATM   14  C   UNL     1      -5.991   7.405  73.320  1.00  0.00    -0.055 A  
HETATM   15  C   UNL     1      -5.681   6.267  74.044  1.00  0.00    -0.054 A  
HETATM   16  C   UNL     1      -5.490   5.076  73.368  1.00  0.00    -0.017 A  
HETATM   17  C   UNL     1      -5.612   5.037  71.970  1.00  0.00    -0.008 A  
HETATM   18  C   UNL     1      -5.923   6.174  71.186  1.00  0.00    -0.030 A  
HETATM   19  N   UNL     1      -6.039   6.136  69.762  1.00  0.00    -0.025 NA 
BRANCH  19  20
HETATM   20  C   UNL     1      -5.747   4.864  69.060  1.00  0.00    -0.016 C  
BRANCH  20  21
HETATM   21  C   UNL     1      -7.018   4.090  68.668  1.00  0.00    -0.047 C  
BRANCH  21  22
HETATM   22  C   UNL     1      -8.048   4.057  69.798  1.00  0.00    -0.054 C  
BRANCH  22  23
HETATM   23  N   UNL     1      -9.444   3.865  69.351  1.00  0.00    -0.181 NA 
HETATM   24  C   UNL     1     -10.282   4.979  69.866  1.00  0.00    -0.270 C  
HETATM   25  C   UNL     1      -9.964   6.351  69.217  1.00  0.00    -0.153 C  
HETATM   26  N   UNL     1     -10.004   6.363  67.739  1.00  0.00    -0.122 NA 
HETATM   27  C   UNL     1      -9.281   5.195  67.189  1.00  0.00    -0.117 C  
HETATM   28  C   UNL     1     -11.386   6.392  67.261  1.00  0.00    -0.010 C  
HETATM   29  C   UNL     1      -9.597   3.846  67.881  1.00  0.00    -0.136 C  
ENDBRANCH  22  23
ENDBRANCH  21  22
ENDBRANCH  20  21
ENDBRANCH  19  20
ENDBRANCH   4   6
ENDBRANCH   3   4
ENDBRANCH   2   3
TORSDOF 7
ENDMDL
MODEL      204
REMARK 921   NORMALIZED FREE ENERGY PREDICTED BY IDOCK:   -1.02 KCAL/MOL
REMARK 922        TOTAL FREE ENERGY PREDICTED BY IDOCK:   -2.39 KCAL/MOL
REMARK 923 INTER-LIGAND FREE ENERGY PREDICTED BY IDOCK:   -1.52 KCAL/MOL
REMARK 924 INTRA-LIGAND FREE ENERGY PREDICTED BY IDOCK:   -0.88 KCAL/MOL
REMARK 927      BINDING AFFINITY PREDICTED BY RF-SCORE:    0.00 PKD
ROOT
HETATM    1  C   UNL     1     -10.514  16.329  70.055  1.00  0.00    -0.164 C  
HETATM    2  C   UNL     1      -9.703  15.079  69.746  1.00  0.00    -0.007 C  
ENDROOT
BRANCH   2   3
HETATM    3  C   UNL     1     -10.306  14.323  68.565  1.00  0.00    -0.244 C  
BRANCH   3   4
HETATM    4  C   UNL     1     -10.829  12.948  68.944  1.00  0.00    -0.200 C  
HETATM    5  O   UNL     1     -11.964  12.756  69.379  1.00  0.00    -0.301 OA 
BRANCH   4   6
HETATM    6  C   UNL     1      -9.922  11.779  68.728  1.00  0.00    -0.128 A  
HETATM    7  C   UNL     1      -9.568  11.429  67.414  1.00  0.00    -0.185 A  
HETATM    8  C   UNL     1      -8.679  10.367  67.109  1.00  0.00    -0.129 A  
HETATM    9  C   UNL     1      -8.182   9.652  68.214  1.00  0.00    -0.106 A  
HETATM   10  S   UNL     1      -7.055   8.292  68.099  1.00  0.00    -0.083 SA 
HETATM   11  C   UNL     1      -8.551   9.991  69.531  1.00  0.00    -0.197 A  
HETATM   12  C   UNL     1      -6.823   8.130  66.350  1.00  0.00    -0.066 A  
HETATM   13  C   UNL     1      -9.414  11.049  69.791  1.00  0.00     0.647 A  
HETATM   14  C   UNL     1      -5.959   7.078  65.974  1.00  0.00    -0.036 A  
HETATM   15  C   UNL     1      -5.674   6.823  64.644  1.00  0.00    -0.031 A  
HETATM   16  C   UNL     1      -6.253   7.617  63.672  1.00  0.00    -0.054 A  
HETATM   17  C   UNL     1      -7.114   8.663  64.042  1.00  0.00    -0.090 A  
HETATM   18  C   UNL     1      -7.433   8.965  65.388  1.00  0.00    -0.086 A  
HETATM   19  N   UNL     1      -8.302  10.035  65.766  1.00  0.00    -0.128 NA 
BRANCH  19  20
HETATM   20  C   UNL     1      -8.841  10.919  64.706  1.00  0.00    -0.100 C  
BRANCH  20  21
HETATM   21  C   UNL     1     -10.166  10.408  64.114  1.00  0.00    -0.149 C  
BRANCH  21  22
HETATM   22  C   UNL     1     -11.375  11.172  64.654  1.00  0.00     0.128 C  
BRANCH  22  23
HETATM   23  N   UNL     1     -11.910  12.203  63.740  1.00  0.00    -0.459 NA 
HETATM   24  C   UNL     1     -13.172  12.750  64.301  1.00  0.00     0.363 C  
HETATM   25  C   UNL     1     -12.971  13.591  65.588  1.00  0.00    -0.168 C  
HETATM   26  N   UNL     1     -11.985  14.685  65.468  1.00  0.00    -0.301 NA 
HETATM   27  C   UNL     1     -10.755  14.207  64.798  1.00  0.00    -0.419 C  
HETATM   28  C   UNL     1     -12.561  15.820  64.747  1.00  0.00     0.763 C  
HETATM   29  C   UNL     1     -10.992  13.344  63.535  1.00  0.00     0.414 C  
ENDBRANCH  22  23
ENDBRANCH  21  22
ENDBRANCH  20  21
ENDBRANCH  19  20
ENDBRANCH   4   6
ENDBRANCH   3   4
ENDBRANCH   2   3
TORSDOF 7
ENDMDL
MODEL      205
REMARK 921   NORMALIZED FREE ENERGY PREDICTED BY IDOCK:   -0.85 KCAL/MOL
REMARK 922        TOTAL FREE ENERGY PREDICTED BY IDOCK:   -2.16 KCAL/MOL
REMARK 923 INTER-LIGAND FREE ENERGY PREDICTED BY IDOCK:   -2.26 KCAL/MOL
REMARK 924 INTRA-LIGAND FREE ENERGY PREDICTED BY IDOCK:    0.10 KCAL/MOL
REMARK 927      BINDING AFFINITY PREDICTED BY RF-SCORE:    0.00 PKD
ROOT
HETATM    1  C   UNL     1     -12.848  15.716  73.941  1.00  0.00    -0.655 C  
HETATM    2  C   UNL     1     -12.033  14.546  73.411  1.00  0.00    -0.011 C  
ENDROOT
BRANCH   2   3
HETATM    3  C   UNL     1     -12.915  13.595  72.606  1.00  0.00    -0.359 C  
BRANCH   3   4
HETATM    4  C   UNL     1     -12.933  13.915  71.121  1.00  0.00    -0.318 C  
HETATM    5  O   UNL     1     -13.768  13.456  70.343  1.00  0.00     0.812 OA 
BRANCH   4   6
HETATM    6  C   UNL     1     -11.906  14.873  70.608  1.00  0.00    -0.357 A  
HETATM    7  C   UNL     1     -10.712  14.363  70.068  1.00  0.00     0.120 A  
HETATM    8  C   UNL     1      -9.699  15.187  69.516  1.00  0.00    -0.165 A  
HETATM    9  C   UNL     1      -9.946  16.572  69.562  1.00  0.00    -0.119 A  
HETATM   10  S   UNL     1      -8.843  17.805  68.934  1.00  0.00    -0.036 SA 
HETATM   11  C   UNL     1     -11.134  17.084  70.121  1.00  0.00     0.463 A  
HETATM   12  C   UNL     1      -7.483  16.838  68.338  1.00  0.00    -0.202 A  
HETATM   13  C   UNL     1     -12.111  16.244  70.639  1.00  0.00     0.103 A  
HETATM   14  C   UNL     1      -6.428  17.598  67.788  1.00  0.00    -0.181 A  
HETATM   15  C   UNL     1      -5.294  16.991  67.277  1.00  0.00    -0.171 A  
HETATM   16  C   UNL     1      -5.202  15.611  67.312  1.00  0.00     0.184 A  
HETATM   17  C   UNL     1      -6.248  14.852  67.860  1.00  0.00    -0.175 A  
HETATM   18  C   UNL     1      -7.428  15.428  68.391  1.00  0.00    -0.115 A  
HETATM   19  N   UNL     1      -8.497  14.656  68.942  1.00  0.00    -0.159 NA 
BRANCH  19  20
HETATM   20  C   UNL     1      -8.404  13.178  68.891  1.00  0.00     0.246 C  
BRANCH  20  21
HETATM   21  C   UNL     1      -9.639  12.520  68.251  1.00  0.00    -0.209 C  
BRANCH  21  22
HETATM   22  C   UNL     1      -9.261  11.474  67.202  1.00  0.00    -0.169 C  
BRANCH  22  23
HETATM   23  N   UNL     1      -7.996  10.759  67.474  1.00  0.00    -0.109 NA 
HETATM   24  C   UNL     1      -8.264   9.616  68.383  1.00  0.00    -0.106 C  
HETATM   25  C   UNL     1      -9.096   8.481  67.731  1.00  0.00    -0.135 C  
HETATM   26  N   UNL     1      -8.551   7.964  66.458  1.00  0.00    -0.135 NA 
HETATM   27  C   UNL     1      -8.155   9.080  65.570  1.00  0.00    -0.110 C  
HETATM   28  C   UNL     1      -7.419   7.071  66.707  1.00  0.00    -0.082 C  
HETATM   29  C   UNL     1      -7.354  10.212  66.260  1.00  0.00    -0.112 C  
ENDBRANCH  22  23
ENDBRANCH  21  22
ENDBRANCH  20  21
ENDBRANCH  19  20
ENDBRANCH   4   6
ENDBRANCH   3   4
ENDBRANCH   2   3
TORSDOF 7
ENDMDL
MODEL      206
REMARK 921   NORMALIZED FREE ENERGY PREDICTED BY IDOCK:   -0.78 KCAL/MOL
REMARK 922        TOTAL FREE ENERGY PREDICTED BY IDOCK:   -2.05 KCAL/MOL
REMARK 923 INTER-LIGAND FREE ENERGY PREDICTED BY IDOCK:   -1.95 KCAL/MOL
REMARK 924 INTRA-LIGAND FREE ENERGY PREDICTED BY IDOCK:   -0.11 KCAL/MOL
REMARK 927      BINDING AFFINITY PREDICTED BY RF-SCORE:    0.00 PKD
ROOT
HETATM    1  C   UNL     1     -12.852  15.706  73.931  1.00  0.00    -0.655 C  
HETATM    2  C   UNL     1     -12.106  14.500  73.379  1.00  0.00    -0.108 C  
ENDROOT
BRANCH   2   3
HETATM    3  C   UNL     1     -13.042  13.613  72.561  1.00  0.00    -0.487 C  
BRANCH   3   4
HETATM    4  C   UNL     1     -13.022  13.938  71.078  1.00  0.00    -0.287 C  
HETATM    5  O   UNL     1     -13.904  13.581  70.298  1.00  0.00     1.187 OA 
BRANCH   4   6
HETATM    6  C   UNL     1     -11.889  14.771  70.568  1.00  0.00    -0.362 A  
HETATM    7  C   UNL     1     -10.787  14.129  69.978  1.00  0.00     0.179 A  
HETATM    8  C   UNL     1      -9.687  14.833  69.424  1.00  0.00    -0.036 A  
HETATM    9  C   UNL     1      -9.748  16.236  69.523  1.00  0.00    -0.131 A  
HETATM   10  S   UNL     1      -8.508  17.336  68.905  1.00  0.00    -0.106 SA 
HETATM   11  C   UNL     1     -10.845  16.878  70.132  1.00  0.00     0.150 A  
HETATM   12  C   UNL     1      -7.302  16.222  68.240  1.00  0.00    -0.145 A  
HETATM   13  C   UNL     1     -11.912  16.155  70.649  1.00  0.00    -0.171 A  
HETATM   14  C   UNL     1      -6.169  16.857  67.685  1.00  0.00    -0.171 A  
HETATM   15  C   UNL     1      -5.137  16.125  67.122  1.00  0.00     0.048 A  
HETATM   16  C   UNL     1      -5.227  14.745  67.110  1.00  0.00     0.839 A  
HETATM   17  C   UNL     1      -6.351  14.110  67.662  1.00  0.00    -0.129 A  
HETATM   18  C   UNL     1      -7.431  14.815  68.245  1.00  0.00    -0.115 A  
HETATM   19  N   UNL     1      -8.580  14.170  68.800  1.00  0.00    -0.118 NA 
BRANCH  19  20
HETATM   20  C   UNL     1      -8.684  12.696  68.697  1.00  0.00     0.050 C  
BRANCH  20  21
HETATM   21  C   UNL     1      -9.975  12.231  68.002  1.00  0.00    -0.202 C  
BRANCH  21  22
HETATM   22  C   UNL     1     -10.363  10.805  68.393  1.00  0.00    -0.180 C  
BRANCH  22  23
HETATM   23  N   UNL     1      -9.942  10.403  69.751  1.00  0.00    -0.181 NA 
HETATM   24  C   UNL     1     -11.130   9.953  70.520  1.00  0.00    -0.332 C  
HETATM   25  C   UNL     1     -11.738   8.621  70.009  1.00  0.00     0.290 C  
HETATM   26  N   UNL     1     -10.780   7.500  69.904  1.00  0.00    -0.245 NA 
HETATM   27  C   UNL     1      -9.528   7.944  69.251  1.00  0.00    -0.152 C  
HETATM   28  C   UNL     1     -10.505   6.934  71.224  1.00  0.00    -0.208 C  
HETATM   29  C   UNL     1      -8.966   9.292  69.763  1.00  0.00    -0.172 C  
ENDBRANCH  22  23
ENDBRANCH  21  22
ENDBRANCH  20  21
ENDBRANCH  19  20
ENDBRANCH   4   6
ENDBRANCH   3   4
ENDBRANCH   2   3
TORSDOF 7
ENDMDL
MODEL      207
REMARK 921   NORMALIZED FREE ENERGY PREDICTED BY IDOCK:    0.32 KCAL/MOL
REMARK 922        TOTAL FREE ENERGY PREDICTED BY IDOCK:   -0.50 KCAL/MOL
REMARK 923 INTER-LIGAND FREE ENERGY PREDICTED BY IDOCK:   -1.23 KCAL/MOL
REMARK 924 INTRA-LIGAND FREE ENERGY PREDICTED BY IDOCK:    0.72 KCAL/MOL
REMARK 927      BINDING AFFINITY PREDICTED BY RF-SCORE:    0.00 PKD
ROOT
HETATM    1  C   UNL     1     -10.642  15.727  65.322  1.00  0.00    -0.446 C  
HETATM    2  C   UNL     1     -11.595  14.842  66.111  1.00  0.00    -0.292 C  
ENDROOT
BRANCH   2   3
HETATM    3  C   UNL     1     -11.624  13.429  65.533  1.00  0.00    -0.346 C  
BRANCH   3   4
HETATM    4  C   UNL     1     -11.587  12.349  66.600  1.00  0.00    -0.385 C  
HETATM    5  O   UNL     1     -12.559  12.057  67.296  1.00  0.00     0.380 OA 
BRANCH   4   6
HETATM    6  C   UNL     1     -10.313  11.584  66.766  1.00  0.00    -0.262 A  
HETATM    7  C   UNL     1     -10.115  10.843  67.944  1.00  0.00    -0.199 A  
HETATM    8  C   UNL     1      -8.962  10.050  68.174  1.00  0.00    -0.122 A  
HETATM    9  C   UNL     1      -7.995  10.068  67.151  1.00  0.00    -0.109 A  
HETATM   10  S   UNL     1      -6.477   9.159  67.196  1.00  0.00    -0.061 SA 
HETATM   11  C   UNL     1      -8.185  10.826  65.979  1.00  0.00    -0.164 A  
HETATM   12  C   UNL     1      -6.555   8.356  68.773  1.00  0.00    -0.054 A  
HETATM   13  C   UNL     1      -9.336  11.578  65.782  1.00  0.00    -0.238 A  
HETATM   14  C   UNL     1      -5.429   7.560  69.075  1.00  0.00    -0.022 A  
HETATM   15  C   UNL     1      -5.338   6.865  70.269  1.00  0.00    -0.019 A  
HETATM   16  C   UNL     1      -6.376   6.959  71.177  1.00  0.00    -0.041 A  
HETATM   17  C   UNL     1      -7.498   7.751  70.881  1.00  0.00    -0.073 A  
HETATM   18  C   UNL     1      -7.637   8.476  69.673  1.00  0.00    -0.088 A  
HETATM   19  N   UNL     1      -8.782   9.276  69.367  1.00  0.00    -0.140 NA 
BRANCH  19  20
HETATM   20  C   UNL     1      -9.913   9.291  70.324  1.00  0.00    -0.219 C  
BRANCH  20  21
HETATM   21  C   UNL     1     -10.903   8.134  70.102  1.00  0.00    -0.241 C  
BRANCH  21  22
HETATM   22  C   UNL     1     -10.292   6.997  69.283  1.00  0.00    -0.200 C  
BRANCH  22  23
HETATM   23  N   UNL     1     -10.018   7.335  67.870  1.00  0.00    -0.151 NA 
HETATM   24  C   UNL     1      -9.034   6.371  67.317  1.00  0.00    -0.107 C  
HETATM   25  C   UNL     1      -9.589   4.931  67.160  1.00  0.00    -0.159 C  
HETATM   26  N   UNL     1     -10.846   4.830  66.389  1.00  0.00    -0.021 NA 
HETATM   27  C   UNL     1     -11.812   5.861  66.830  1.00  0.00     2.005 C  
HETATM   28  C   UNL     1     -10.580   4.946  64.955  1.00  0.00     0.318 C  
HETATM   29  C   UNL     1     -11.218   7.280  67.007  1.00  0.00     0.229 C  
ENDBRANCH  22  23
ENDBRANCH  21  22
ENDBRANCH  20  21
ENDBRANCH  19  20
ENDBRANCH   4   6
ENDBRANCH   3   4
ENDBRANCH   2   3
TORSDOF 7
ENDMDL
MODEL      208
REMARK 921   NORMALIZED FREE ENERGY PREDICTED BY IDOCK:    1.73 KCAL/MOL
REMARK 922        TOTAL FREE ENERGY PREDICTED BY IDOCK:    1.48 KCAL/MOL
REMARK 923 INTER-LIGAND FREE ENERGY PREDICTED BY IDOCK:    1.25 KCAL/MOL
REMARK 924 INTRA-LIGAND FREE ENERGY PREDICTED BY IDOCK:    0.23 KCAL/MOL
REMARK 927      BINDING AFFINITY PREDICTED BY RF-SCORE:    0.00 PKD
ROOT
HETATM    1  C   UNL     1      -9.592  18.271  67.909  1.00  0.00    -0.297 C  
HETATM    2  C   UNL     1      -8.396  18.018  67.004  1.00  0.00    -0.248 C  
ENDROOT
BRANCH   2   3
HETATM    3  C   UNL     1      -7.090  18.167  67.780  1.00  0.00    -0.212 C  
BRANCH   3   4
HETATM    4  C   UNL     1      -6.840  17.022  68.747  1.00  0.00    -0.199 C  
HETATM    5  O   UNL     1      -6.850  17.158  69.969  1.00  0.00     0.197 OA 
BRANCH   4   6
HETATM    6  C   UNL     1      -6.619  15.662  68.165  1.00  0.00    -0.135 A  
HETATM    7  C   UNL     1      -7.694  15.009  67.538  1.00  0.00    -0.208 A  
HETATM    8  C   UNL     1      -7.572  13.739  66.918  1.00  0.00     0.477 A  
HETATM    9  C   UNL     1      -6.298  13.145  66.989  1.00  0.00     0.613 A  
HETATM   10  S   UNL     1      -5.888  11.573  66.288  1.00  0.00     0.182 SA 
HETATM   11  C   UNL     1      -5.225  13.792  67.634  1.00  0.00     0.058 A  
HETATM   12  C   UNL     1      -7.430  11.048  65.592  1.00  0.00     0.132 A  
HETATM   13  C   UNL     1      -5.379  15.043  68.218  1.00  0.00    -0.114 A  
HETATM   14  C   UNL     1      -7.385   9.781  64.970  1.00  0.00    -0.128 A  
HETATM   15  C   UNL     1      -8.508   9.231  64.375  1.00  0.00    -0.201 A  
HETATM   16  C   UNL     1      -9.692   9.943  64.398  1.00  0.00    -0.177 A  
HETATM   17  C   UNL     1      -9.742  11.202  65.016  1.00  0.00    -0.298 A  
HETATM   18  C   UNL     1      -8.621  11.808  65.634  1.00  0.00     0.301 A  
HETATM   19  N   UNL     1      -8.668  13.094  66.257  1.00  0.00     0.207 NA 
BRANCH  19  20
HETATM   20  C   UNL     1      -9.930  13.867  66.192  1.00  0.00    -0.310 C  
BRANCH  20  21
HETATM   21  C   UNL     1     -11.148  13.071  66.693  1.00  0.00    -0.318 C  
BRANCH  21  22
HETATM   22  C   UNL     1     -11.886  13.792  67.822  1.00  0.00    -0.369 C  
BRANCH  22  23
HETATM   23  N   UNL     1     -11.430  15.176  68.070  1.00  0.00    -0.336 NA 
HETATM   24  C   UNL     1     -12.590  16.010  68.475  1.00  0.00     1.282 C  
HETATM   25  C   UNL     1     -13.164  15.648  69.869  1.00  0.00     0.712 C  
HETATM   26  N   UNL     1     -12.173  15.639  70.966  1.00  0.00    -0.381 NA 
HETATM   27  C   UNL     1     -10.946  14.920  70.554  1.00  0.00    -0.100 C  
HETATM   28  C   UNL     1     -11.858  17.004  71.386  1.00  0.00     1.368 C  
HETATM   29  C   UNL     1     -10.419  15.281  69.144  1.00  0.00    -0.247 C  
ENDBRANCH  22  23
ENDBRANCH  21  22
ENDBRANCH  20  21
ENDBRANCH  19  20
ENDBRANCH   4   6
ENDBRANCH   3   4
ENDBRANCH   2   3
TORSDOF 7
ENDMDL
MODEL      209
REMARK 921   NORMALIZED FREE ENERGY PREDICTED BY IDOCK:    2.19 KCAL/MOL
REMARK 922        TOTAL FREE ENERGY PREDICTED BY IDOCK:    2.13 KCAL/MOL
REMARK 923 INTER-LIGAND FREE ENERGY PREDICTED BY IDOCK:   -1.60 KCAL/MOL
REMARK 924 INTRA-LIGAND FREE ENERGY PREDICTED BY IDOCK:    3.73 KCAL/MOL
REMARK 927      BINDING AFFINITY PREDICTED BY RF-SCORE:    0.00 PKD
ROOT
HETATM    1  C   UNL     1     -10.012   5.532  65.436  1.00  0.00     0.384 C  
HETATM    2  C   UNL     1      -8.892   5.012  66.325  1.00  0.00    -0.118 C  
ENDROOT
BRANCH   2   3
HETATM    3  C   UNL     1      -8.619   5.981  67.473  1.00  0.00    -0.106 C  
BRANCH   3   4
HETATM    4  C   UNL     1      -9.815   6.855  67.810  1.00  0.00    -0.136 C  
HETATM    5  O   UNL     1     -10.762   6.466  68.491  1.00  0.00    -0.228 OA 
BRANCH   4   6
HETATM    6  C   UNL     1      -9.799   8.267  67.320  1.00  0.00    -0.258 A  
HETATM    7  C   UNL     1      -9.239   9.264  68.137  1.00  0.00    -0.136 A  
HETATM    8  C   UNL     1      -9.136  10.622  67.742  1.00  0.00    -0.143 A  
HETATM    9  C   UNL     1      -9.662  10.929  66.473  1.00  0.00    -0.198 A  
HETATM   10  S   UNL     1      -9.649  12.545  65.750  1.00  0.00    -0.057 SA 
HETATM   11  C   UNL     1     -10.241   9.934  65.661  1.00  0.00    -0.229 A  
HETATM   12  C   UNL     1      -8.886  13.525  67.014  1.00  0.00    -0.211 A  
HETATM   13  C   UNL     1     -10.310   8.610  66.076  1.00  0.00     0.452 A  
HETATM   14  C   UNL     1      -8.766  14.895  66.692  1.00  0.00    -0.262 A  
HETATM   15  C   UNL     1      -8.190  15.793  67.574  1.00  0.00    -0.181 A  
HETATM   16  C   UNL     1      -7.726  15.330  68.792  1.00  0.00    -0.147 A  
HETATM   17  C   UNL     1      -7.845  13.969  69.116  1.00  0.00     0.106 A  
HETATM   18  C   UNL     1      -8.423  13.013  68.246  1.00  0.00    -0.159 A  
HETATM   19  N   UNL     1      -8.537  11.626  68.572  1.00  0.00    -0.156 NA 
BRANCH  19  20
HETATM   20  C   UNL     1      -7.957  11.147  69.848  1.00  0.00     0.845 C  
BRANCH  20  21
HETATM   21  C   UNL     1      -6.851  10.097  69.649  1.00  0.00    -0.087 C  
BRANCH  21  22
HETATM   22  C   UNL     1      -7.401   8.671  69.630  1.00  0.00    -0.056 C  
BRANCH  22  23
HETATM   23  N   UNL     1      -7.816   8.154  70.952  1.00  0.00    -0.086 NA 
HETATM   24  C   UNL     1      -8.692   6.970  70.763  1.00  0.00    -0.148 C  
HETATM   25  C   UNL     1      -7.953   5.730  70.195  1.00  0.00    -0.100 C  
HETATM   26  N   UNL     1      -6.751   5.323  70.952  1.00  0.00    -0.042 NA 
HETATM   27  C   UNL     1      -5.911   6.499  71.268  1.00  0.00    -0.028 C  
HETATM   28  C   UNL     1      -7.128   4.610  72.173  1.00  0.00    -0.066 C  
HETATM   29  C   UNL     1      -6.684   7.730  71.803  1.00  0.00    -0.050 C  
ENDBRANCH  22  23
ENDBRANCH  21  22
ENDBRANCH  20  21
ENDBRANCH  19  20
ENDBRANCH   4   6
ENDBRANCH   3   4
ENDBRANCH   2   3
TORSDOF 7
ENDMDL
MODEL      210
REMARK 921   NORMALIZED FREE ENERGY PREDICTED BY IDOCK:    3.35 KCAL/MOL
REMARK 922        TOTAL FREE ENERGY PREDICTED BY IDOCK:    3.77 KCAL/MOL
REMARK 923 INTER-LIGAND FREE ENERGY PREDICTED BY IDOCK:    2.52 KCAL/MOL
REMARK 924 INTRA-LIGAND FREE ENERGY PREDICTED BY IDOCK:    1.25 KCAL/MOL
REMARK 927      BINDING AFFINITY PREDICTED BY RF-SCORE:    0.00 PKD
ROOT
HETATM    1  C   UNL     1      -7.978  10.674  64.184  1.00  0.00     0.096 C  
HETATM    2  C   UNL     1      -8.995   9.578  63.903  1.00  0.00    -0.217 C  
ENDROOT
BRANCH   2   3
HETATM    3  C   UNL     1     -10.418  10.110  64.053  1.00  0.00     0.848 C  
BRANCH   3   4
HETATM    4  C   UNL     1     -10.569  11.545  63.580  1.00  0.00    -0.423 C  
HETATM    5  O   UNL     1     -10.252  11.920  62.452  1.00  0.00     0.672 OA 
BRANCH   4   6
HETATM    6  C   UNL     1     -11.175  12.527  64.531  1.00  0.00    -0.370 A  
HETATM    7  C   UNL     1     -11.008  12.326  65.912  1.00  0.00    -0.338 A  
HETATM    8  C   UNL     1     -11.506  13.224  66.891  1.00  0.00    -0.338 A  
HETATM    9  C   UNL     1     -12.213  14.335  66.395  1.00  0.00    -0.401 A  
HETATM   10  S   UNL     1     -12.925  15.599  67.409  1.00  0.00     3.737 SA 
HETATM   11  C   UNL     1     -12.398  14.526  65.012  1.00  0.00    -0.353 A  
HETATM   12  C   UNL     1     -12.531  15.047  69.046  1.00  0.00     0.107 A  
HETATM   13  C   UNL     1     -11.882  13.632  64.082  1.00  0.00    -0.463 A  
HETATM   14  C   UNL     1     -13.011  15.889  70.073  1.00  0.00     0.585 A  
HETATM   15  C   UNL     1     -12.784  15.597  71.407  1.00  0.00    -0.535 A  
HETATM   16  C   UNL     1     -12.073  14.456  71.730  1.00  0.00    -0.296 A  
HETATM   17  C   UNL     1     -11.595  13.616  70.711  1.00  0.00     0.180 A  
HETATM   18  C   UNL     1     -11.799  13.874  69.334  1.00  0.00    -0.334 A  
HETATM   19  N   UNL     1     -11.305  13.024  68.296  1.00  0.00    -0.268 NA 
BRANCH  19  20
HETATM   20  C   UNL     1     -10.477  11.854  68.672  1.00  0.00    -0.212 C  
BRANCH  20  21
HETATM   21  C   UNL     1      -8.967  12.128  68.563  1.00  0.00    -0.082 C  
BRANCH  21  22
HETATM   22  C   UNL     1      -8.639  13.147  67.472  1.00  0.00    -0.196 C  
BRANCH  22  23
HETATM   23  N   UNL     1      -7.976  14.376  67.957  1.00  0.00    -0.127 NA 
HETATM   24  C   UNL     1      -8.142  14.475  69.429  1.00  0.00     0.102 C  
HETATM   25  C   UNL     1      -7.354  13.399  70.221  1.00  0.00     1.599 C  
HETATM   26  N   UNL     1      -5.912  13.326  69.903  1.00  0.00    -0.128 NA 
HETATM   27  C   UNL     1      -5.699  13.351  68.438  1.00  0.00    -0.087 C  
HETATM   28  C   UNL     1      -5.186  14.418  70.552  1.00  0.00    -0.109 C  
HETATM   29  C   UNL     1      -6.525  14.416  67.676  1.00  0.00    -0.131 C  
ENDBRANCH  22  23
ENDBRANCH  21  22
ENDBRANCH  20  21
ENDBRANCH  19  20
ENDBRANCH   4   6
ENDBRANCH   3   4
ENDBRANCH   2   3
TORSDOF 7
ENDMDL
MODEL      211
REMARK 921   NORMALIZED FREE ENERGY PREDICTED BY IDOCK:    4.47 KCAL/MOL
REMARK 922        TOTAL FREE ENERGY PREDICTED BY IDOCK:    5.34 KCAL/MOL
REMARK 923 INTER-LIGAND FREE ENERGY PREDICTED BY IDOCK:    5.22 KCAL/MOL
REMARK 924 INTRA-LIGAND FREE ENERGY PREDICTED BY IDOCK:    0.12 KCAL/MOL
REMARK 927      BINDING AFFINITY PREDICTED BY RF-SCORE:    0.00 PKD
ROOT
HETATM    1  C   UNL     1     -10.192  10.354  65.125  1.00  0.00    -0.326 C  
HETATM    2  C   UNL     1     -11.262  10.943  64.218  1.00  0.00     0.363 C  
ENDROOT
BRANCH   2   3
HETATM    3  C   UNL     1     -12.576  11.117  64.976  1.00  0.00     2.807 C  
BRANCH   3   4
HETATM    4  C   UNL     1     -13.227  12.468  64.734  1.00  0.00     0.482 C  
HETATM    5  O   UNL     1     -14.349  12.597  64.247  1.00  0.00     2.511 OA 
BRANCH   4   6
HETATM    6  C   UNL     1     -12.469  13.686  65.156  1.00  0.00    -0.488 A  
HETATM    7  C   UNL     1     -12.479  14.056  66.512  1.00  0.00    -0.351 A  
HETATM    8  C   UNL     1     -11.755  15.166  67.017  1.00  0.00    -0.110 A  
HETATM    9  C   UNL     1     -11.034  15.908  66.063  1.00  0.00    -0.139 A  
HETATM   10  S   UNL     1     -10.049  17.329  66.440  1.00  0.00    -0.318 SA 
HETATM   11  C   UNL     1     -11.039  15.549  64.701  1.00  0.00    -0.373 A  
HETATM   12  C   UNL     1     -10.277  17.503  68.188  1.00  0.00    -0.359 A  
HETATM   13  C   UNL     1     -11.749  14.445  64.246  1.00  0.00    -0.328 A  
HETATM   14  C   UNL     1      -9.595  18.602  68.756  1.00  0.00    -0.383 A  
HETATM   15  C   UNL     1      -9.670  18.873  70.111  1.00  0.00     1.145 A  
HETATM   16  C   UNL     1     -10.432  18.046  70.917  1.00  0.00     2.420 A  
HETATM   17  C   UNL     1     -11.112  16.954  70.356  1.00  0.00     0.336 A  
HETATM   18  C   UNL     1     -11.063  16.635  68.977  1.00  0.00    -0.234 A  
HETATM   19  N   UNL     1     -11.749  15.518  68.406  1.00  0.00    -0.356 NA 
BRANCH  19  20
HETATM   20  C   UNL     1     -12.489  14.605  69.308  1.00  0.00    -0.019 C  
BRANCH  20  21
HETATM   21  C   UNL     1     -11.574  13.598  70.027  1.00  0.00    -0.250 C  
BRANCH  21  22
HETATM   22  C   UNL     1     -11.898  12.151  69.655  1.00  0.00    -0.322 C  
BRANCH  22  23
HETATM   23  N   UNL     1     -11.513  11.768  68.280  1.00  0.00    -0.281 NA 
HETATM   24  C   UNL     1     -10.067  12.040  68.081  1.00  0.00    -0.200 C  
HETATM   25  C   UNL     1      -9.137  11.111  68.904  1.00  0.00    -0.089 C  
HETATM   26  N   UNL     1      -9.384   9.665  68.719  1.00  0.00    -0.145 NA 
HETATM   27  C   UNL     1     -10.833   9.371  68.787  1.00  0.00    -0.114 C  
HETATM   28  C   UNL     1      -8.819   9.204  67.451  1.00  0.00    -0.118 C  
HETATM   29  C   UNL     1     -11.735  10.337  67.981  1.00  0.00     0.460 C  
ENDBRANCH  22  23
ENDBRANCH  21  22
ENDBRANCH  20  21
ENDBRANCH  19  20
ENDBRANCH   4   6
ENDBRANCH   3   4
ENDBRANCH   2   3
TORSDOF 7
ENDMDL
MODEL      212
REMARK 921   NORMALIZED FREE ENERGY PREDICTED BY IDOCK:    5.09 KCAL/MOL
REMARK 922        TOTAL FREE ENERGY PREDICTED BY IDOCK:    6.21 KCAL/MOL
REMARK 923 INTER-LIGAND FREE ENERGY PREDICTED BY IDOCK:    7.11 KCAL/MOL
REMARK 924 INTRA-LIGAND FREE ENERGY PREDICTED BY IDOCK:   -0.90 KCAL/MOL
REMARK 927      BINDING AFFINITY PREDICTED BY RF-SCORE:    0.00 PKD
ROOT
HETATM    1  C   UNL     1      -9.816   8.616  65.405  1.00  0.00     0.552 C  
HETATM    2  C   UNL     1     -11.307   8.849  65.596  1.00  0.00     5.011 C  
ENDROOT
BRANCH   2   3
HETATM    3  C   UNL     1     -11.696  10.256  65.147  1.00  0.00     3.310 C  
BRANCH   3   4
HETATM    4  C   UNL     1     -11.887  11.217  66.307  1.00  0.00     0.839 C  
HETATM    5  O   UNL     1     -12.502  10.923  67.331  1.00  0.00     1.120 OA 
BRANCH   4   6
HETATM    6  C   UNL     1     -11.250  12.566  66.200  1.00  0.00    -0.362 A  
HETATM    7  C   UNL     1      -9.983  12.766  66.774  1.00  0.00    -0.237 A  
HETATM    8  C   UNL     1      -9.278  13.994  66.685  1.00  0.00    -0.244 A  
HETATM    9  C   UNL     1      -9.942  15.029  66.001  1.00  0.00    -0.310 A  
HETATM   10  S   UNL     1      -9.273  16.649  65.749  1.00  0.00     0.161 SA 
HETATM   11  C   UNL     1     -11.220  14.835  65.442  1.00  0.00    -0.347 A  
HETATM   12  C   UNL     1      -7.708  16.551  66.574  1.00  0.00    -0.288 A  
HETATM   13  C   UNL     1     -11.873  13.612  65.536  1.00  0.00    -0.382 A  
HETATM   14  C   UNL     1      -6.958  17.748  66.538  1.00  0.00    -0.265 A  
HETATM   15  C   UNL     1      -5.712  17.833  67.135  1.00  0.00    -0.160 A  
HETATM   16  C   UNL     1      -5.201  16.721  67.778  1.00  0.00    -0.134 A  
HETATM   17  C   UNL     1      -5.944  15.531  67.817  1.00  0.00    -0.169 A  
HETATM   18  C   UNL     1      -7.220  15.393  67.218  1.00  0.00    -0.194 A  
HETATM   19  N   UNL     1      -7.974  14.179  67.250  1.00  0.00    -0.177 NA 
BRANCH  19  20
HETATM   20  C   UNL     1      -7.364  12.982  67.874  1.00  0.00    -0.128 C  
BRANCH  20  21
HETATM   21  C   UNL     1      -6.739  12.021  66.847  1.00  0.00    -0.041 C  
BRANCH  21  22
HETATM   22  C   UNL     1      -7.128  10.565  67.104  1.00  0.00    -0.091 C  
BRANCH  22  23
HETATM   23  N   UNL     1      -6.280   9.867  68.093  1.00  0.00    -0.054 NA 
HETATM   24  C   UNL     1      -7.114   8.913  68.868  1.00  0.00    -0.066 C  
HETATM   25  C   UNL     1      -7.625   7.709  68.035  1.00  0.00    -0.110 C  
HETATM   26  N   UNL     1      -6.572   6.956  67.320  1.00  0.00    -0.049 NA 
HETATM   27  C   UNL     1      -5.644   7.883  66.634  1.00  0.00    -0.029 C  
HETATM   28  C   UNL     1      -5.847   6.084  68.244  1.00  0.00    -0.016 C  
HETATM   29  C   UNL     1      -5.179   9.091  67.484  1.00  0.00    -0.034 C  
ENDBRANCH  22  23
ENDBRANCH  21  22
ENDBRANCH  20  21
ENDBRANCH  19  20
ENDBRANCH   4   6
ENDBRANCH   3   4
ENDBRANCH   2   3
TORSDOF 7
ENDMDL
MODEL      213
REMARK 921   NORMALIZED FREE ENERGY PREDICTED BY IDOCK:    5.28 KCAL/MOL
REMARK 922        TOTAL FREE ENERGY PREDICTED BY IDOCK:    6.48 KCAL/MOL
REMARK 923 INTER-LIGAND FREE ENERGY PREDICTED BY IDOCK:   -1.76 KCAL/MOL
REMARK 924 INTRA-LIGAND FREE ENERGY PREDICTED BY IDOCK:    8.24 KCAL/MOL
REMARK 927      BINDING AFFINITY PREDICTED BY RF-SCORE:    0.00 PKD
ROOT
HETATM    1  C   UNL     1      -9.951  15.112  64.361  1.00  0.00     1.455 C  
HETATM    2  C   UNL     1     -11.008  14.138  64.858  1.00  0.00    -0.405 C  
ENDROOT
BRANCH   2   3
HETATM    3  C   UNL     1     -11.139  12.951  63.907  1.00  0.00    -0.454 C  
BRANCH   3   4
HETATM    4  C   UNL     1     -11.197  11.615  64.627  1.00  0.00    -0.253 C  
HETATM    5  O   UNL     1     -12.207  11.199  65.192  1.00  0.00     0.648 OA 
BRANCH   4   6
HETATM    6  C   UNL     1      -9.972  10.759  64.598  1.00  0.00    -0.386 A  
HETATM    7  C   UNL     1      -9.926   9.611  65.407  1.00  0.00    -0.230 A  
HETATM    8  C   UNL     1      -8.828   8.713  65.414  1.00  0.00    -0.155 A  
HETATM    9  C   UNL     1      -7.755   9.054  64.571  1.00  0.00    -0.116 A  
HETATM   10  S   UNL     1      -6.277   8.096  64.395  1.00  0.00    -0.065 SA 
HETATM   11  C   UNL     1      -7.793  10.216  63.773  1.00  0.00    -0.149 A  
HETATM   12  C   UNL     1      -6.552   6.756  65.522  1.00  0.00    -0.051 A  
HETATM   13  C   UNL     1      -8.893  11.064  63.781  1.00  0.00    -0.003 A  
HETATM   14  C   UNL     1      -5.488   5.829  65.592  1.00  0.00    -0.013 A  
HETATM   15  C   UNL     1      -5.550   4.725  66.424  1.00  0.00    -0.017 A  
HETATM   16  C   UNL     1      -6.679   4.535  67.200  1.00  0.00    -0.051 A  
HETATM   17  C   UNL     1      -7.737   5.455  67.134  1.00  0.00    -0.096 A  
HETATM   18  C   UNL     1      -7.722   6.597  66.297  1.00  0.00    -0.098 A  
HETATM   19  N   UNL     1      -8.803   7.529  66.223  1.00  0.00    -0.154 NA 
BRANCH  19  20
HETATM   20  C   UNL     1     -10.031   7.254  67.004  1.00  0.00    -0.224 C  
BRANCH  20  21
HETATM   21  C   UNL     1     -10.731   5.950  66.583  1.00  0.00    -0.323 C  
BRANCH  21  22
HETATM   22  C   UNL     1      -9.737   4.875  66.143  1.00  0.00    -0.190 C  
BRANCH  22  23
HETATM   23  N   UNL     1      -9.324   4.961  64.727  1.00  0.00    -0.065 NA 
HETATM   24  C   UNL     1      -7.963   4.386  64.576  1.00  0.00    -0.091 C  
HETATM   25  C   UNL     1      -7.905   2.852  64.794  1.00  0.00    -0.078 C  
HETATM   26  N   UNL     1      -8.851   2.071  63.968  1.00  0.00    -0.091 NA 
HETATM   27  C   UNL     1     -10.196   2.687  63.993  1.00  0.00    -0.079 C  
HETATM   28  C   UNL     1      -8.359   1.953  62.595  1.00  0.00    -0.065 C  
HETATM   29  C   UNL     1     -10.215   4.224  63.805  1.00  0.00     0.036 C  
ENDBRANCH  22  23
ENDBRANCH  21  22
ENDBRANCH  20  21
ENDBRANCH  19  20
ENDBRANCH   4   6
ENDBRANCH   3   4
ENDBRANCH   2   3
TORSDOF 7
ENDMDL
MODEL      214
REMARK 921   NORMALIZED FREE ENERGY PREDICTED BY IDOCK:    5.36 KCAL/MOL
REMARK 922        TOTAL FREE ENERGY PREDICTED BY IDOCK:    6.60 KCAL/MOL
REMARK 923 INTER-LIGAND FREE ENERGY PREDICTED BY IDOCK:    2.73 KCAL/MOL
REMARK 924 INTRA-LIGAND FREE ENERGY PREDICTED BY IDOCK:    3.87 KCAL/MOL
REMARK 927      BINDING AFFINITY PREDICTED BY RF-SCORE:    0.00 PKD
ROOT
HETATM    1  C   UNL     1      -9.578   7.439  69.646  1.00  0.00    -0.156 C  
HETATM    2  C   UNL     1     -11.045   7.211  69.313  1.00  0.00    -0.112 C  
ENDROOT
BRANCH   2   3
HETATM    3  C   UNL     1     -11.944   7.983  70.277  1.00  0.00     0.278 C  
BRANCH   3   4
HETATM    4  C   UNL     1     -11.176   8.957  71.154  1.00  0.00    -0.284 C  
HETATM    5  O   UNL     1     -10.229   8.622  71.864  1.00  0.00    -0.276 OA 
BRANCH   4   6
HETATM    6  C   UNL     1     -11.577  10.397  71.103  1.00  0.00    -0.315 A  
HETATM    7  C   UNL     1     -10.745  11.310  70.433  1.00  0.00     0.906 A  
HETATM    8  C   UNL     1     -11.061  12.685  70.291  1.00  0.00     0.932 A  
HETATM    9  C   UNL     1     -12.264  13.099  70.892  1.00  0.00    -0.241 A  
HETATM   10  S   UNL     1     -12.882  14.757  70.850  1.00  0.00    -0.376 SA 
HETATM   11  C   UNL     1     -13.089  12.188  71.581  1.00  0.00    -0.413 A  
HETATM   12  C   UNL     1     -11.623  15.615  69.947  1.00  0.00    -0.347 A  
HETATM   13  C   UNL     1     -12.753  10.844  71.685  1.00  0.00    -0.498 A  
HETATM   14  C   UNL     1     -11.866  16.997  69.782  1.00  0.00     1.732 A  
HETATM   15  C   UNL     1     -10.977  17.807  69.096  1.00  0.00     0.680 A  
HETATM   16  C   UNL     1      -9.830  17.243  68.568  1.00  0.00    -0.307 A  
HETATM   17  C   UNL     1      -9.584  15.871  68.732  1.00  0.00    -0.219 A  
HETATM   18  C   UNL     1     -10.464  15.002  69.421  1.00  0.00    -0.247 A  
HETATM   19  N   UNL     1     -10.218  13.602  69.581  1.00  0.00     0.534 NA 
BRANCH  19  20
HETATM   20  C   UNL     1      -9.023  13.014  68.933  1.00  0.00     0.326 C  
BRANCH  20  21
HETATM   21  C   UNL     1      -7.713  13.358  69.664  1.00  0.00     0.890 C  
BRANCH  21  22
HETATM   22  C   UNL     1      -6.703  12.212  69.614  1.00  0.00     0.035 C  
BRANCH  22  23
HETATM   23  N   UNL     1      -7.160  11.021  68.867  1.00  0.00    -0.089 NA 
HETATM   24  C   UNL     1      -8.222  11.420  67.909  1.00  0.00    -0.132 C  
HETATM   25  C   UNL     1      -7.710  12.304  66.742  1.00  0.00     0.079 C  
HETATM   26  N   UNL     1      -6.570  11.740  65.989  1.00  0.00     0.391 NA 
HETATM   27  C   UNL     1      -5.541  11.217  66.916  1.00  0.00    -0.088 C  
HETATM   28  C   UNL     1      -7.025  10.694  65.073  1.00  0.00     0.093 C  
HETATM   29  C   UNL     1      -6.090  10.365  68.087  1.00  0.00    -0.044 C  
ENDBRANCH  22  23
ENDBRANCH  21  22
ENDBRANCH  20  21
ENDBRANCH  19  20
ENDBRANCH   4   6
ENDBRANCH   3   4
ENDBRANCH   2   3
TORSDOF 7
ENDMDL
MODEL      215
REMARK 921   NORMALIZED FREE ENERGY PREDICTED BY IDOCK:    6.65 KCAL/MOL
REMARK 922        TOTAL FREE ENERGY PREDICTED BY IDOCK:    8.41 KCAL/MOL
REMARK 923 INTER-LIGAND FREE ENERGY PREDICTED BY IDOCK:    4.20 KCAL/MOL
REMARK 924 INTRA-LIGAND FREE ENERGY PREDICTED BY IDOCK:    4.21 KCAL/MOL
REMARK 927      BINDING AFFINITY PREDICTED BY RF-SCORE:    0.00 PKD
ROOT
HETATM    1  C   UNL     1     -12.233  13.807  69.137  1.00  0.00    -0.289 C  
HETATM    2  C   UNL     1     -10.793  14.007  69.584  1.00  0.00    -0.013 C  
ENDROOT
BRANCH   2   3
HETATM    3  C   UNL     1      -9.837  13.877  68.401  1.00  0.00    -0.229 C  
BRANCH   3   4
HETATM    4  C   UNL     1      -8.974  12.629  68.468  1.00  0.00    -0.046 C  
HETATM    5  O   UNL     1      -7.744  12.661  68.490  1.00  0.00    -0.132 OA 
BRANCH   4   6
HETATM    6  C   UNL     1      -9.672  11.310  68.557  1.00  0.00    -0.199 A  
HETATM    7  C   UNL     1      -8.960  10.141  68.237  1.00  0.00    -0.120 A  
HETATM    8  C   UNL     1      -9.520   8.842  68.334  1.00  0.00    -0.140 A  
HETATM    9  C   UNL     1     -10.863   8.787  68.751  1.00  0.00     0.013 A  
HETATM   10  S   UNL     1     -11.784   7.290  68.958  1.00  0.00     1.026 SA 
HETATM   11  C   UNL     1     -11.583   9.959  69.053  1.00  0.00     0.097 A  
HETATM   12  C   UNL     1     -10.611   6.048  68.488  1.00  0.00    -0.265 A  
HETATM   13  C   UNL     1     -10.995  11.214  68.961  1.00  0.00    -0.286 A  
HETATM   14  C   UNL     1     -11.108   4.727  68.546  1.00  0.00     1.931 A  
HETATM   15  C   UNL     1     -10.314   3.644  68.212  1.00  0.00     1.194 A  
HETATM   16  C   UNL     1      -9.010   3.869  67.813  1.00  0.00    -0.155 A  
HETATM   17  C   UNL     1      -8.512   5.181  67.751  1.00  0.00    -0.104 A  
HETATM   18  C   UNL     1      -9.284   6.320  68.087  1.00  0.00    -0.110 A  
HETATM   19  N   UNL     1      -8.775   7.655  68.033  1.00  0.00    -0.126 NA 
BRANCH  19  20
HETATM   20  C   UNL     1      -7.350   7.857  67.681  1.00  0.00    -0.096 C  
BRANCH  20  21
HETATM   21  C   UNL     1      -7.010   9.326  67.375  1.00  0.00    -0.078 C  
BRANCH  21  22
HETATM   22  C   UNL     1      -5.702   9.468  66.597  1.00  0.00    -0.054 C  
BRANCH  22  23
HETATM   23  N   UNL     1      -5.849   9.400  65.127  1.00  0.00    -0.058 NA 
HETATM   24  C   UNL     1      -7.158   8.782  64.793  1.00  0.00    -0.077 C  
HETATM   25  C   UNL     1      -8.378   9.666  65.159  1.00  0.00    -0.137 C  
HETATM   26  N   UNL     1      -8.340  11.037  64.608  1.00  0.00     0.128 NA 
HETATM   27  C   UNL     1      -7.005  11.644  64.812  1.00  0.00     2.542 C  
HETATM   28  C   UNL     1      -8.696  11.032  63.189  1.00  0.00    -0.097 C  
HETATM   29  C   UNL     1      -5.809  10.723  64.468  1.00  0.00     0.082 C  
ENDBRANCH  22  23
ENDBRANCH  21  22
ENDBRANCH  20  21
ENDBRANCH  19  20
ENDBRANCH   4   6
ENDBRANCH   3   4
ENDBRANCH   2   3
TORSDOF 7
ENDMDL
MODEL      216
REMARK 921   NORMALIZED FREE ENERGY PREDICTED BY IDOCK:    7.20 KCAL/MOL
REMARK 922        TOTAL FREE ENERGY PREDICTED BY IDOCK:    9.19 KCAL/MOL
REMARK 923 INTER-LIGAND FREE ENERGY PREDICTED BY IDOCK:    2.04 KCAL/MOL
REMARK 924 INTRA-LIGAND FREE ENERGY PREDICTED BY IDOCK:    7.15 KCAL/MOL
REMARK 927      BINDING AFFINITY PREDICTED BY RF-SCORE:    0.00 PKD
ROOT
HETATM    1  C   UNL     1     -11.665  17.995  67.868  1.00  0.00     1.652 C  
HETATM    2  C   UNL     1     -11.907  17.590  66.421  1.00  0.00     2.768 C  
ENDROOT
BRANCH   2   3
HETATM    3  C   UNL     1     -10.824  18.166  65.512  1.00  0.00     0.152 C  
BRANCH   3   4
HETATM    4  C   UNL     1      -9.682  18.808  66.280  1.00  0.00    -0.330 C  
HETATM    5  O   UNL     1      -9.552  20.025  66.401  1.00  0.00    -0.394 OA 
BRANCH   4   6
HETATM    6  C   UNL     1      -8.705  17.899  66.955  1.00  0.00    -0.258 A  
HETATM    7  C   UNL     1      -9.006  16.530  67.052  1.00  0.00    -0.224 A  
HETATM    8  C   UNL     1      -8.125  15.583  67.632  1.00  0.00    -0.146 A  
HETATM    9  C   UNL     1      -6.918  16.102  68.138  1.00  0.00    -0.128 A  
HETATM   10  S   UNL     1      -5.653  15.128  68.900  1.00  0.00    -0.100 SA 
HETATM   11  C   UNL     1      -6.624  17.478  68.057  1.00  0.00    -0.173 A  
HETATM   12  C   UNL     1      -6.342  13.496  68.853  1.00  0.00    -0.098 A  
HETATM   13  C   UNL     1      -7.507  18.374  67.468  1.00  0.00    -0.221 A  
HETATM   14  C   UNL     1      -5.521  12.502  69.429  1.00  0.00    -0.075 A  
HETATM   15  C   UNL     1      -5.916  11.176  69.468  1.00  0.00    -0.072 A  
HETATM   16  C   UNL     1      -7.142  10.828  68.931  1.00  0.00    -0.082 A  
HETATM   17  C   UNL     1      -7.962  11.814  68.359  1.00  0.00    -0.147 A  
HETATM   18  C   UNL     1      -7.600  13.181  68.292  1.00  0.00    -0.139 A  
HETATM   19  N   UNL     1      -8.430  14.184  67.702  1.00  0.00    -0.172 NA 
BRANCH  19  20
HETATM   20  C   UNL     1      -9.699  13.766  67.062  1.00  0.00    -0.251 C  
BRANCH  20  21
HETATM   21  C   UNL     1      -9.811  12.242  66.886  1.00  0.00    -0.216 C  
BRANCH  21  22
HETATM   22  C   UNL     1     -10.003  11.518  68.219  1.00  0.00    -0.202 C  
BRANCH  22  23
HETATM   23  N   UNL     1     -11.404  11.445  68.684  1.00  0.00    -0.238 NA 
HETATM   24  C   UNL     1     -11.478  11.901  70.095  1.00  0.00    -0.049 C  
HETATM   25  C   UNL     1     -11.199  13.416  70.278  1.00  0.00     0.436 C  
HETATM   26  N   UNL     1     -12.031  14.306  69.441  1.00  0.00    -0.323 NA 
HETATM   27  C   UNL     1     -12.083  13.812  68.046  1.00  0.00    -0.280 C  
HETATM   28  C   UNL     1     -13.377  14.428  69.999  1.00  0.00     0.726 C  
HETATM   29  C   UNL     1     -12.331  12.290  67.901  1.00  0.00     0.621 C  
ENDBRANCH  22  23
ENDBRANCH  21  22
ENDBRANCH  20  21
ENDBRANCH  19  20
ENDBRANCH   4   6
ENDBRANCH   3   4
ENDBRANCH   2   3
TORSDOF 7
ENDMDL
MODEL      217
REMARK 921   NORMALIZED FREE ENERGY PREDICTED BY IDOCK:    7.56 KCAL/MOL
REMARK 922        TOTAL FREE ENERGY PREDICTED BY IDOCK:    9.70 KCAL/MOL
REMARK 923 INTER-LIGAND FREE ENERGY PREDICTED BY IDOCK:    6.36 KCAL/MOL
REMARK 924 INTRA-LIGAND FREE ENERGY PREDICTED BY IDOCK:    3.34 KCAL/MOL
REMARK 927      BINDING AFFINITY PREDICTED BY RF-SCORE:    0.00 PKD
ROOT
HETATM    1  C   UNL     1     -11.775  18.005  67.841  1.00  0.00     1.652 C  
HETATM    2  C   UNL     1     -12.110  17.730  66.383  1.00  0.00     4.106 C  
ENDROOT
BRANCH   2   3
HETATM    3  C   UNL     1     -11.083  18.382  65.461  1.00  0.00     0.576 C  
BRANCH   3   4
HETATM    4  C   UNL     1      -9.890  18.952  66.209  1.00  0.00    -0.365 C  
HETATM    5  O   UNL     1      -9.748  20.153  66.434  1.00  0.00    -0.411 OA 
BRANCH   4   6
HETATM    6  C   UNL     1      -8.874  17.987  66.728  1.00  0.00    -0.274 A  
HETATM    7  C   UNL     1      -9.113  16.609  66.590  1.00  0.00    -0.277 A  
HETATM    8  C   UNL     1      -8.190  15.617  67.009  1.00  0.00    -0.233 A  
HETATM    9  C   UNL     1      -7.009  16.096  67.606  1.00  0.00    -0.151 A  
HETATM   10  S   UNL     1      -5.702  15.063  68.203  1.00  0.00    -0.143 SA 
HETATM   11  C   UNL     1      -6.777  17.477  67.761  1.00  0.00    -0.182 A  
HETATM   12  C   UNL     1      -6.317  13.435  67.874  1.00  0.00    -0.151 A  
HETATM   13  C   UNL     1      -7.699  18.420  67.324  1.00  0.00    -0.228 A  
HETATM   14  C   UNL     1      -5.452  12.395  68.281  1.00  0.00    -0.058 A  
HETATM   15  C   UNL     1      -5.788  11.065  68.093  1.00  0.00    -0.046 A  
HETATM   16  C   UNL     1      -6.996  10.759  67.494  1.00  0.00    -0.084 A  
HETATM   17  C   UNL     1      -7.859  11.790  67.089  1.00  0.00    -0.166 A  
HETATM   18  C   UNL     1      -7.558  13.164  67.257  1.00  0.00    -0.080 A  
HETATM   19  N   UNL     1      -8.432  14.214  66.838  1.00  0.00    -0.148 NA 
BRANCH  19  20
HETATM   20  C   UNL     1      -9.681  13.856  66.126  1.00  0.00    -0.272 C  
BRANCH  20  21
HETATM   21  C   UNL     1      -9.698  12.395  65.642  1.00  0.00    -0.183 C  
BRANCH  21  22
HETATM   22  C   UNL     1     -11.116  11.829  65.556  1.00  0.00    -0.280 C  
BRANCH  22  23
HETATM   23  N   UNL     1     -11.798  12.072  64.267  1.00  0.00    -0.360 NA 
HETATM   24  C   UNL     1     -13.105  12.732  64.520  1.00  0.00     0.044 C  
HETATM   25  C   UNL     1     -12.979  14.184  65.051  1.00  0.00    -0.091 C  
HETATM   26  N   UNL     1     -12.142  15.078  64.223  1.00  0.00    -0.505 NA 
HETATM   27  C   UNL     1     -10.878  14.406  63.846  1.00  0.00     1.009 C  
HETATM   28  C   UNL     1     -12.874  15.514  63.034  1.00  0.00     3.769 C  
HETATM   29  C   UNL     1     -11.036  12.947  63.351  1.00  0.00    -0.109 C  
ENDBRANCH  22  23
ENDBRANCH  21  22
ENDBRANCH  20  21
ENDBRANCH  19  20
ENDBRANCH   4   6
ENDBRANCH   3   4
ENDBRANCH   2   3
TORSDOF 7
ENDMDL
MODEL      218
REMARK 921   NORMALIZED FREE ENERGY PREDICTED BY IDOCK:   10.52 KCAL/MOL
REMARK 922        TOTAL FREE ENERGY PREDICTED BY IDOCK:   13.86 KCAL/MOL
REMARK 923 INTER-LIGAND FREE ENERGY PREDICTED BY IDOCK:   11.89 KCAL/MOL
REMARK 924 INTRA-LIGAND FREE ENERGY PREDICTED BY IDOCK:    1.97 KCAL/MOL
REMARK 927      BINDING AFFINITY PREDICTED BY RF-SCORE:    0.00 PKD
ROOT
HETATM    1  C   UNL     1      -9.511  17.630  71.602  1.00  0.00     8.683 C  
HETATM    2  C   UNL     1      -8.673  17.119  70.440  1.00  0.00     3.425 C  
ENDROOT
BRANCH   2   3
HETATM    3  C   UNL     1      -9.534  16.321  69.463  1.00  0.00    -0.068 C  
BRANCH   3   4
HETATM    4  C   UNL     1      -9.667  14.858  69.847  1.00  0.00     0.189 C  
HETATM    5  O   UNL     1     -10.589  14.423  70.534  1.00  0.00     0.335 OA 
BRANCH   4   6
HETATM    6  C   UNL     1      -8.641  13.908  69.315  1.00  0.00     0.490 A  
HETATM    7  C   UNL     1      -8.930  13.180  68.148  1.00  0.00    -0.195 A  
HETATM    8  C   UNL     1      -8.006  12.291  67.542  1.00  0.00    -0.166 A  
HETATM    9  C   UNL     1      -6.771  12.153  68.200  1.00  0.00    -0.070 A  
HETATM   10  S   UNL     1      -5.452  11.113  67.642  1.00  0.00    -0.043 SA 
HETATM   11  C   UNL     1      -6.488  12.868  69.382  1.00  0.00    -0.091 A  
HETATM   12  C   UNL     1      -6.136  10.372  66.186  1.00  0.00    -0.096 A  
HETATM   13  C   UNL     1      -7.413  13.742  69.937  1.00  0.00     0.734 A  
HETATM   14  C   UNL     1      -5.273   9.460  65.539  1.00  0.00    -0.036 A  
HETATM   15  C   UNL     1      -5.659   8.798  64.386  1.00  0.00    -0.063 A  
HETATM   16  C   UNL     1      -6.917   9.040  63.866  1.00  0.00    -0.088 A  
HETATM   17  C   UNL     1      -7.779   9.945  64.508  1.00  0.00    -0.142 A  
HETATM   18  C   UNL     1      -7.428  10.648  65.686  1.00  0.00    -0.093 A  
HETATM   19  N   UNL     1      -8.301  11.575  66.335  1.00  0.00    -0.154 NA 
BRANCH  19  20
HETATM   20  C   UNL     1      -9.609  11.874  65.708  1.00  0.00    -0.224 C  
BRANCH  20  21
HETATM   21  C   UNL     1     -10.691  10.834  66.050  1.00  0.00    -0.168 C  
BRANCH  21  22
HETATM   22  C   UNL     1     -11.974  11.482  66.571  1.00  0.00     0.633 C  
BRANCH  22  23
HETATM   23  N   UNL     1     -12.784  12.161  65.537  1.00  0.00    -0.011 NA 
HETATM   24  C   UNL     1     -13.146  13.521  66.013  1.00  0.00     0.377 C  
HETATM   25  C   UNL     1     -11.940  14.491  66.109  1.00  0.00    -0.312 C  
HETATM   26  N   UNL     1     -11.139  14.612  64.872  1.00  0.00    -0.387 NA 
HETATM   27  C   UNL     1     -10.862  13.276  64.298  1.00  0.00    -0.392 C  
HETATM   28  C   UNL     1     -11.822  15.464  63.898  1.00  0.00     0.232 C  
HETATM   29  C   UNL     1     -12.081  12.321  64.247  1.00  0.00    -0.412 C  
ENDBRANCH  22  23
ENDBRANCH  21  22
ENDBRANCH  20  21
ENDBRANCH  19  20
ENDBRANCH   4   6
ENDBRANCH   3   4
ENDBRANCH   2   3
TORSDOF 7
ENDMDL
MODEL      219
REMARK 921   NORMALIZED FREE ENERGY PREDICTED BY IDOCK:   18.93 KCAL/MOL
REMARK 922        TOTAL FREE ENERGY PREDICTED BY IDOCK:   25.73 KCAL/MOL
REMARK 923 INTER-LIGAND FREE ENERGY PREDICTED BY IDOCK:   22.81 KCAL/MOL
REMARK 924 INTRA-LIGAND FREE ENERGY PREDICTED BY IDOCK:    2.91 KCAL/MOL
REMARK 927      BINDING AFFINITY PREDICTED BY RF-SCORE:    0.00 PKD
ROOT
HETATM    1  C   UNL     1      -8.632  10.563  64.570  1.00  0.00    -0.165 C  
HETATM    2  C   UNL     1      -9.098   9.337  65.341  1.00  0.00    -0.277 C  
ENDROOT
BRANCH   2   3
HETATM    3  C   UNL     1     -10.492   9.563  65.922  1.00  0.00     0.123 C  
BRANCH   3   4
HETATM    4  C   UNL     1     -11.272  10.643  65.192  1.00  0.00     0.646 C  
HETATM    5  O   UNL     1     -11.579  10.566  64.004  1.00  0.00     1.502 OA 
BRANCH   4   6
HETATM    6  C   UNL     1     -11.719  11.829  65.986  1.00  0.00    -0.100 A  
HETATM    7  C   UNL     1     -10.940  12.248  67.078  1.00  0.00    -0.314 A  
HETATM    8  C   UNL     1     -11.255  13.387  67.863  1.00  0.00    -0.275 A  
HETATM    9  C   UNL     1     -12.428  14.073  67.497  1.00  0.00     0.124 A  
HETATM   10  S   UNL     1     -13.032  15.523  68.312  1.00  0.00     2.778 SA 
HETATM   11  C   UNL     1     -13.220  13.642  66.415  1.00  0.00     1.291 A  
HETATM   12  C   UNL     1     -11.839  15.767  69.599  1.00  0.00    -0.340 A  
HETATM   13  C   UNL     1     -12.870  12.530  65.659  1.00  0.00     0.621 A  
HETATM   14  C   UNL     1     -12.101  16.878  70.430  1.00  0.00     2.161 A  
HETATM   15  C   UNL     1     -11.260  17.204  71.481  1.00  0.00     1.116 A  
HETATM   16  C   UNL     1     -10.145  16.420  71.713  1.00  0.00     3.972 A  
HETATM   17  C   UNL     1      -9.882  15.314  70.889  1.00  0.00     1.091 A  
HETATM   18  C   UNL     1     -10.710  14.943  69.802  1.00  0.00    -0.204 A  
HETATM   19  N   UNL     1     -10.438  13.822  68.957  1.00  0.00    -0.157 NA 
BRANCH  19  20
HETATM   20  C   UNL     1      -9.193  13.051  69.181  1.00  0.00     0.684 C  
BRANCH  20  21
HETATM   21  C   UNL     1      -8.130  13.300  68.097  1.00  0.00    -0.159 C  
BRANCH  21  22
HETATM   22  C   UNL     1      -8.746  13.759  66.775  1.00  0.00    -0.087 C  
BRANCH  22  23
HETATM   23  N   UNL     1      -8.426  15.152  66.398  1.00  0.00    -0.117 NA 
HETATM   24  C   UNL     1      -8.259  15.968  67.628  1.00  0.00    -0.148 C  
HETATM   25  C   UNL     1      -6.999  15.603  68.455  1.00  0.00    -0.115 C  
HETATM   26  N   UNL     1      -5.732  15.616  67.694  1.00  0.00    -0.233 NA 
HETATM   27  C   UNL     1      -5.893  14.917  66.400  1.00  0.00     3.744 C  
HETATM   28  C   UNL     1      -5.270  16.989  67.489  1.00  0.00    -0.123 C  
HETATM   29  C   UNL     1      -7.178  15.281  65.616  1.00  0.00     5.773 C  
ENDBRANCH  22  23
ENDBRANCH  21  22
ENDBRANCH  20  21
ENDBRANCH  19  20
ENDBRANCH   4   6
ENDBRANCH   3   4
ENDBRANCH   2   3
TORSDOF 7
ENDMDL
