MODEL        1
REMARK 921   NORMALIZED FREE ENERGY PREDICTED BY IDOCK:   -6.53 KCAL/MOL
REMARK 922        TOTAL FREE ENERGY PREDICTED BY IDOCK:  -10.21 KCAL/MOL
REMARK 923 INTER-LIGAND FREE ENERGY PREDICTED BY IDOCK:   -8.43 KCAL/MOL
REMARK 924 INTRA-LIGAND FREE ENERGY PREDICTED BY IDOCK:   -1.78 KCAL/MOL
REMARK 927      BINDING AFFINITY PREDICTED BY RF-SCORE:    0.00 PKD
ROOT
HETATM    1  C   UNL     1      -9.459  11.246  66.182  1.00  0.00    -0.208 C  
HETATM    2  N   UNL     1     -10.154  12.515  66.418  1.00  0.00    -0.238 NA 
ENDROOT
BRANCH   2   3
HETATM    3  C   UNL     1     -11.575  12.287  66.756  1.00  0.00    -0.369 C  
BRANCH   3   4
HETATM    4  C   UNL     1     -11.860  12.224  68.251  1.00  0.00    -0.367 A  
HETATM    5  C   UNL     1     -11.941  13.390  69.063  1.00  0.00    -0.357 A  
HETATM    6  C   UNL     1     -12.025  10.954  68.836  1.00  0.00    -0.277 A  
HETATM    7  C   UNL     1     -11.789  14.705  68.569  1.00  0.00    -0.346 A  
HETATM    8  C   UNL     1     -12.258  10.821  70.201  1.00  0.00    -0.425 A  
HETATM    9  C   UNL     1     -11.825  15.818  69.410  1.00  0.00    -0.361 A  
HETATM   10  C   UNL     1     -12.328  11.956  71.003  1.00  0.00    -0.362 A  
HETATM   11  C   UNL     1     -12.033  15.648  70.771  1.00  0.00    -0.438 A  
HETATM   12  C   UNL     1     -12.166  13.237  70.455  1.00  0.00    -0.416 A  
HETATM   13  C   UNL     1     -12.212  14.367  71.289  1.00  0.00    -0.429 A  
ENDBRANCH   3   4
ENDBRANCH   2   3
BRANCH   2  14
HETATM   14  C   UNL     1     -10.063  13.421  65.260  1.00  0.00    -0.249 C  
BRANCH  14  15
HETATM   15  C   UNL     1      -9.911  14.882  65.633  1.00  0.00    -0.372 A  
HETATM   16  C   UNL     1     -10.680  17.191  65.585  1.00  0.00    -0.140 A  
HETATM   17  C   UNL     1      -8.878  15.277  66.485  1.00  0.00    -0.335 A  
HETATM   18  C   UNL     1      -8.758  16.608  66.896  1.00  0.00    -0.241 A  
HETATM   19  C   UNL     1     -10.801  15.857  65.168  1.00  0.00    -0.438 A  
HETATM   20  C   UNL     1      -9.666  17.594  66.475  1.00  0.00    -0.310 A  
BRANCH  20  21
HETATM   21  C   UNL     1      -9.586  19.046  66.982  1.00  0.00    -0.364 C  
HETATM   22  C   UNL     1      -8.151  19.622  66.946  1.00  0.00    -0.315 C  
HETATM   23  C   UNL     1     -10.473  19.965  66.117  1.00  0.00    -0.581 C  
HETATM   24  C   UNL     1     -10.065  19.124  68.447  1.00  0.00    -0.498 C  
ENDBRANCH  20  21
ENDBRANCH  14  15
ENDBRANCH   2  14
TORSDOF 5
ENDMDL
MODEL        2
REMARK 921   NORMALIZED FREE ENERGY PREDICTED BY IDOCK:   -6.45 KCAL/MOL
REMARK 922        TOTAL FREE ENERGY PREDICTED BY IDOCK:  -10.12 KCAL/MOL
REMARK 923 INTER-LIGAND FREE ENERGY PREDICTED BY IDOCK:   -8.88 KCAL/MOL
REMARK 924 INTRA-LIGAND FREE ENERGY PREDICTED BY IDOCK:   -1.24 KCAL/MOL
REMARK 927      BINDING AFFINITY PREDICTED BY RF-SCORE:    0.00 PKD
ROOT
HETATM    1  C   UNL     1      -8.918  11.417  68.540  1.00  0.00    -0.158 C  
HETATM    2  N   UNL     1      -9.726  12.602  68.236  1.00  0.00    -0.221 NA 
ENDROOT
BRANCH   2   3
HETATM    3  C   UNL     1     -11.156  12.250  68.108  1.00  0.00    -0.240 C  
BRANCH   3   4
HETATM    4  C   UNL     1     -11.883  12.092  69.436  1.00  0.00    -0.384 A  
HETATM    5  C   UNL     1     -12.283  13.206  70.226  1.00  0.00    -0.376 A  
HETATM    6  C   UNL     1     -12.139  10.785  69.894  1.00  0.00    -0.410 A  
HETATM    7  C   UNL     1     -12.070  14.552  69.853  1.00  0.00    -0.389 A  
HETATM    8  C   UNL     1     -12.772  10.566  71.113  1.00  0.00    -0.518 A  
HETATM    9  C   UNL     1     -12.434  15.614  70.681  1.00  0.00    -0.463 A  
HETATM   10  C   UNL     1     -13.157  11.650  71.895  1.00  0.00    -0.490 A  
HETATM   11  C   UNL     1     -13.039  15.360  71.904  1.00  0.00    -0.515 A  
HETATM   12  C   UNL     1     -12.916  12.966  71.473  1.00  0.00    -0.388 A  
HETATM   13  C   UNL     1     -13.287  14.045  72.292  1.00  0.00    -0.574 A  
ENDBRANCH   3   4
ENDBRANCH   2   3
BRANCH   2  14
HETATM   14  C   UNL     1      -9.274  13.282  67.009  1.00  0.00    -0.237 C  
BRANCH  14  15
HETATM   15  C   UNL     1      -9.461  14.785  67.035  1.00  0.00    -0.241 A  
HETATM   16  C   UNL     1      -9.073  16.970  68.036  1.00  0.00    -0.237 A  
HETATM   17  C   UNL     1     -10.138  15.419  65.992  1.00  0.00    -0.346 A  
HETATM   18  C   UNL     1     -10.265  16.811  65.961  1.00  0.00    -0.361 A  
HETATM   19  C   UNL     1      -8.946  15.574  68.071  1.00  0.00    -0.174 A  
HETATM   20  C   UNL     1      -9.718  17.623  66.968  1.00  0.00    -0.292 A  
BRANCH  20  21
HETATM   21  C   UNL     1      -9.788  19.160  66.904  1.00  0.00    -0.403 C  
HETATM   22  C   UNL     1     -10.785  19.678  65.841  1.00  0.00    -0.515 C  
HETATM   23  C   UNL     1     -10.228  19.735  68.266  1.00  0.00    -0.569 C  
HETATM   24  C   UNL     1      -8.404  19.739  66.542  1.00  0.00    -0.373 C  
ENDBRANCH  20  21
ENDBRANCH  14  15
ENDBRANCH   2  14
TORSDOF 5
ENDMDL
MODEL        3
REMARK 921   NORMALIZED FREE ENERGY PREDICTED BY IDOCK:   -6.37 KCAL/MOL
REMARK 922        TOTAL FREE ENERGY PREDICTED BY IDOCK:  -10.01 KCAL/MOL
REMARK 923 INTER-LIGAND FREE ENERGY PREDICTED BY IDOCK:   -8.70 KCAL/MOL
REMARK 924 INTRA-LIGAND FREE ENERGY PREDICTED BY IDOCK:   -1.31 KCAL/MOL
REMARK 927      BINDING AFFINITY PREDICTED BY RF-SCORE:    0.00 PKD
ROOT
HETATM    1  C   UNL     1     -10.217  14.201  65.514  1.00  0.00    -0.351 C  
HETATM    2  N   UNL     1      -9.943  15.229  66.524  1.00  0.00    -0.254 NA 
ENDROOT
BRANCH   2   3
HETATM    3  C   UNL     1      -9.012  16.251  66.001  1.00  0.00    -0.290 C  
BRANCH   3   4
HETATM    4  C   UNL     1      -9.156  17.620  66.652  1.00  0.00    -0.280 A  
HETATM    5  C   UNL     1      -8.189  18.140  67.559  1.00  0.00    -0.236 A  
HETATM    6  C   UNL     1     -10.306  18.375  66.351  1.00  0.00    -0.430 A  
HETATM    7  C   UNL     1      -7.007  17.460  67.923  1.00  0.00    -0.181 A  
HETATM    8  C   UNL     1     -10.516  19.620  66.933  1.00  0.00    -0.606 A  
HETATM    9  C   UNL     1      -6.111  17.984  68.856  1.00  0.00    -0.212 A  
HETATM   10  C   UNL     1      -9.581  20.131  67.828  1.00  0.00    -0.508 A  
HETATM   11  C   UNL     1      -6.364  19.218  69.438  1.00  0.00    -0.337 A  
HETATM   12  C   UNL     1      -8.425  19.406  68.154  1.00  0.00    -0.367 A  
HETATM   13  C   UNL     1      -7.509  19.928  69.083  1.00  0.00    -0.183 A  
ENDBRANCH   3   4
ENDBRANCH   2   3
BRANCH   2  14
HETATM   14  C   UNL     1      -9.397  14.655  67.766  1.00  0.00    -0.197 C  
BRANCH  14  15
HETATM   15  C   UNL     1     -10.369  14.668  68.928  1.00  0.00    -0.245 A  
HETATM   16  C   UNL     1     -12.158  13.652  70.230  1.00  0.00    -0.427 A  
HETATM   17  C   UNL     1     -10.312  15.697  69.870  1.00  0.00    -0.322 A  
HETATM   18  C   UNL     1     -11.154  15.694  70.986  1.00  0.00    -0.365 A  
HETATM   19  C   UNL     1     -11.316  13.653  69.108  1.00  0.00    -0.335 A  
HETATM   20  C   UNL     1     -12.081  14.663  71.207  1.00  0.00    -0.410 A  
BRANCH  20  21
HETATM   21  C   UNL     1     -12.960  14.613  72.471  1.00  0.00    -0.492 C  
HETATM   22  C   UNL     1     -12.193  14.997  73.757  1.00  0.00    -0.628 C  
HETATM   23  C   UNL     1     -14.150  15.584  72.336  1.00  0.00    -0.627 C  
HETATM   24  C   UNL     1     -13.504  13.183  72.682  1.00  0.00    -0.419 C  
ENDBRANCH  20  21
ENDBRANCH  14  15
ENDBRANCH   2  14
TORSDOF 5
ENDMDL
MODEL        4
REMARK 921   NORMALIZED FREE ENERGY PREDICTED BY IDOCK:   -6.37 KCAL/MOL
REMARK 922        TOTAL FREE ENERGY PREDICTED BY IDOCK:  -10.01 KCAL/MOL
REMARK 923 INTER-LIGAND FREE ENERGY PREDICTED BY IDOCK:   -8.63 KCAL/MOL
REMARK 924 INTRA-LIGAND FREE ENERGY PREDICTED BY IDOCK:   -1.38 KCAL/MOL
REMARK 927      BINDING AFFINITY PREDICTED BY RF-SCORE:    0.00 PKD
ROOT
HETATM    1  C   UNL     1     -11.562  14.699  64.517  1.00  0.00    -0.370 C  
HETATM    2  N   UNL     1     -10.795  14.998  65.731  1.00  0.00    -0.337 NA 
ENDROOT
BRANCH   2   3
HETATM    3  C   UNL     1      -9.459  15.535  65.397  1.00  0.00     0.002 C  
BRANCH   3   4
HETATM    4  C   UNL     1      -8.771  16.259  66.546  1.00  0.00    -0.327 A  
HETATM    5  C   UNL     1      -9.230  17.511  67.045  1.00  0.00    -0.253 A  
HETATM    6  C   UNL     1      -7.625  15.662  67.108  1.00  0.00    -0.258 A  
HETATM    7  C   UNL     1     -10.366  18.187  66.548  1.00  0.00    -0.397 A  
HETATM    8  C   UNL     1      -6.931  16.282  68.140  1.00  0.00    -0.134 A  
HETATM    9  C   UNL     1     -10.752  19.437  67.033  1.00  0.00    -0.582 A  
HETATM   10  C   UNL     1      -7.367  17.510  68.627  1.00  0.00    -0.256 A  
HETATM   11  C   UNL     1     -10.019  20.041  68.046  1.00  0.00    -0.550 A  
HETATM   12  C   UNL     1      -8.502  18.136  68.090  1.00  0.00    -0.282 A  
HETATM   13  C   UNL     1      -8.908  19.390  68.577  1.00  0.00    -0.411 A  
ENDBRANCH   3   4
ENDBRANCH   2   3
BRANCH   2  14
HETATM   14  C   UNL     1     -10.648  13.816  66.599  1.00  0.00    -0.274 C  
BRANCH  14  15
HETATM   15  C   UNL     1     -11.361  13.938  67.930  1.00  0.00    -0.320 A  
HETATM   16  C   UNL     1     -12.200  12.973  70.002  1.00  0.00    -0.306 A  
HETATM   17  C   UNL     1     -11.772  15.192  68.385  1.00  0.00    -0.338 A  
HETATM   18  C   UNL     1     -12.373  15.337  69.640  1.00  0.00    -0.245 A  
HETATM   19  C   UNL     1     -11.600  12.824  68.743  1.00  0.00    -0.353 A  
HETATM   20  C   UNL     1     -12.582  14.237  70.488  1.00  0.00    -0.418 A  
BRANCH  20  21
HETATM   21  C   UNL     1     -13.174  14.398  71.901  1.00  0.00    -0.444 C  
HETATM   22  C   UNL     1     -12.170  14.997  72.914  1.00  0.00    -0.450 C  
HETATM   23  C   UNL     1     -14.403  15.329  71.865  1.00  0.00    -0.691 C  
HETATM   24  C   UNL     1     -13.605  13.023  72.455  1.00  0.00    -0.628 C  
ENDBRANCH  20  21
ENDBRANCH  14  15
ENDBRANCH   2  14
TORSDOF 5
ENDMDL
MODEL        5
REMARK 921   NORMALIZED FREE ENERGY PREDICTED BY IDOCK:   -6.23 KCAL/MOL
REMARK 922        TOTAL FREE ENERGY PREDICTED BY IDOCK:   -9.84 KCAL/MOL
REMARK 923 INTER-LIGAND FREE ENERGY PREDICTED BY IDOCK:   -8.40 KCAL/MOL
REMARK 924 INTRA-LIGAND FREE ENERGY PREDICTED BY IDOCK:   -1.44 KCAL/MOL
REMARK 927      BINDING AFFINITY PREDICTED BY RF-SCORE:    0.00 PKD
ROOT
HETATM    1  C   UNL     1      -9.642  11.248  66.921  1.00  0.00    -0.191 C  
HETATM    2  N   UNL     1     -10.055  12.651  67.036  1.00  0.00    -0.223 NA 
ENDROOT
BRANCH   2   3
HETATM    3  C   UNL     1     -11.509  12.758  67.278  1.00  0.00    -0.337 C  
BRANCH   3   4
HETATM    4  C   UNL     1     -11.876  13.305  68.651  1.00  0.00    -0.380 A  
HETATM    5  C   UNL     1     -12.266  12.461  69.730  1.00  0.00    -0.198 A  
HETATM    6  C   UNL     1     -11.843  14.701  68.834  1.00  0.00    -0.344 A  
HETATM    7  C   UNL     1     -12.330  11.053  69.644  1.00  0.00    -0.303 A  
HETATM    8  C   UNL     1     -12.194  15.269  70.053  1.00  0.00    -0.385 A  
HETATM    9  C   UNL     1     -12.767  10.267  70.711  1.00  0.00    -0.434 A  
HETATM   10  C   UNL     1     -12.586  14.453  71.109  1.00  0.00    -0.422 A  
HETATM   11  C   UNL     1     -13.136  10.870  71.906  1.00  0.00    -0.537 A  
HETATM   12  C   UNL     1     -12.633  13.059  70.963  1.00  0.00    -0.386 A  
HETATM   13  C   UNL     1     -13.060  12.255  72.034  1.00  0.00    -0.461 A  
ENDBRANCH   3   4
ENDBRANCH   2   3
BRANCH   2  14
HETATM   14  C   UNL     1      -9.696  13.435  65.840  1.00  0.00    -0.182 C  
BRANCH  14  15
HETATM   15  C   UNL     1      -9.587  14.924  66.092  1.00  0.00    -0.340 A  
HETATM   16  C   UNL     1     -10.410  17.201  65.834  1.00  0.00    -0.294 A  
HETATM   17  C   UNL     1      -8.583  15.416  66.928  1.00  0.00    -0.291 A  
HETATM   18  C   UNL     1      -8.503  16.779  67.228  1.00  0.00    -0.202 A  
HETATM   19  C   UNL     1     -10.490  15.834  65.530  1.00  0.00    -0.425 A  
HETATM   20  C   UNL     1      -9.426  17.703  66.708  1.00  0.00    -0.285 A  
BRANCH  20  21
HETATM   21  C   UNL     1      -9.391  19.194  67.092  1.00  0.00    -0.358 C  
HETATM   22  C   UNL     1      -7.956  19.745  67.255  1.00  0.00    -0.320 C  
HETATM   23  C   UNL     1     -10.090  20.043  66.010  1.00  0.00    -0.559 C  
HETATM   24  C   UNL     1     -10.112  19.411  68.439  1.00  0.00    -0.538 C  
ENDBRANCH  20  21
ENDBRANCH  14  15
ENDBRANCH   2  14
TORSDOF 5
ENDMDL
MODEL        6
REMARK 921   NORMALIZED FREE ENERGY PREDICTED BY IDOCK:   -6.15 KCAL/MOL
REMARK 922        TOTAL FREE ENERGY PREDICTED BY IDOCK:   -9.73 KCAL/MOL
REMARK 923 INTER-LIGAND FREE ENERGY PREDICTED BY IDOCK:   -8.26 KCAL/MOL
REMARK 924 INTRA-LIGAND FREE ENERGY PREDICTED BY IDOCK:   -1.47 KCAL/MOL
REMARK 927      BINDING AFFINITY PREDICTED BY RF-SCORE:    0.00 PKD
ROOT
HETATM    1  C   UNL     1     -11.487  15.677  71.200  1.00  0.00    -0.411 C  
HETATM    2  N   UNL     1     -11.305  14.595  70.227  1.00  0.00    -0.234 NA 
ENDROOT
BRANCH   2   3
HETATM    3  C   UNL     1     -10.876  15.128  68.916  1.00  0.00    -0.241 C  
BRANCH   3   4
HETATM    4  C   UNL     1     -10.229  14.095  68.003  1.00  0.00    -0.232 A  
HETATM    5  C   UNL     1     -10.872  13.600  66.833  1.00  0.00    -0.286 A  
HETATM    6  C   UNL     1      -8.956  13.608  68.358  1.00  0.00    -0.160 A  
HETATM    7  C   UNL     1     -12.146  14.026  66.396  1.00  0.00    -0.483 A  
HETATM    8  C   UNL     1      -8.320  12.643  67.585  1.00  0.00    -0.174 A  
HETATM    9  C   UNL     1     -12.762  13.476  65.271  1.00  0.00    -0.481 A  
HETATM   10  C   UNL     1      -8.946  12.146  66.447  1.00  0.00    -0.138 A  
HETATM   11  C   UNL     1     -12.110  12.494  64.538  1.00  0.00    -0.496 A  
HETATM   12  C   UNL     1     -10.215  12.606  66.064  1.00  0.00    -0.287 A  
HETATM   13  C   UNL     1     -10.842  12.069  64.926  1.00  0.00    -0.349 A  
ENDBRANCH   3   4
ENDBRANCH   2   3
BRANCH   2  14
HETATM   14  C   UNL     1     -12.528  13.791  70.055  1.00  0.00    -0.240 C  
BRANCH  14  15
HETATM   15  C   UNL     1     -12.375  12.344  70.475  1.00  0.00    -0.346 A  
HETATM   16  C   UNL     1     -12.932  10.469  71.926  1.00  0.00    -0.553 A  
HETATM   17  C   UNL     1     -11.584  11.480  69.717  1.00  0.00    -0.401 A  
HETATM   18  C   UNL     1     -11.481  10.125  70.047  1.00  0.00    -0.344 A  
HETATM   19  C   UNL     1     -13.034  11.829  71.598  1.00  0.00    -0.467 A  
HETATM   20  C   UNL     1     -12.168   9.581  71.145  1.00  0.00    -0.421 A  
BRANCH  20  21
HETATM   21  C   UNL     1     -12.122   8.076  71.472  1.00  0.00    -0.330 C  
HETATM   22  C   UNL     1     -13.526   7.441  71.604  1.00  0.00    -0.437 C  
HETATM   23  C   UNL     1     -11.372   7.309  70.364  1.00  0.00    -0.299 C  
HETATM   24  C   UNL     1     -11.397   7.848  72.816  1.00  0.00    -0.453 C  
ENDBRANCH  20  21
ENDBRANCH  14  15
ENDBRANCH   2  14
TORSDOF 5
ENDMDL
MODEL        7
REMARK 921   NORMALIZED FREE ENERGY PREDICTED BY IDOCK:   -6.15 KCAL/MOL
REMARK 922        TOTAL FREE ENERGY PREDICTED BY IDOCK:   -9.73 KCAL/MOL
REMARK 923 INTER-LIGAND FREE ENERGY PREDICTED BY IDOCK:   -8.49 KCAL/MOL
REMARK 924 INTRA-LIGAND FREE ENERGY PREDICTED BY IDOCK:   -1.23 KCAL/MOL
REMARK 927      BINDING AFFINITY PREDICTED BY RF-SCORE:    0.00 PKD
ROOT
HETATM    1  C   UNL     1     -11.510  15.831  71.548  1.00  0.00    -0.429 C  
HETATM    2  N   UNL     1     -11.839  14.950  70.423  1.00  0.00    -0.280 NA 
ENDROOT
BRANCH   2   3
HETATM    3  C   UNL     1     -12.154  15.733  69.209  1.00  0.00    -0.207 C  
BRANCH   3   4
HETATM    4  C   UNL     1     -11.093  15.654  68.120  1.00  0.00    -0.330 A  
HETATM    5  C   UNL     1     -11.244  14.836  66.965  1.00  0.00    -0.347 A  
HETATM    6  C   UNL     1      -9.916  16.408  68.293  1.00  0.00    -0.243 A  
HETATM    7  C   UNL     1     -12.384  14.046  66.704  1.00  0.00    -0.408 A  
HETATM    8  C   UNL     1      -8.893  16.359  67.352  1.00  0.00    -0.194 A  
HETATM    9  C   UNL     1     -12.469  13.220  65.582  1.00  0.00    -0.510 A  
HETATM   10  C   UNL     1      -9.028  15.555  66.225  1.00  0.00    -0.362 A  
HETATM   11  C   UNL     1     -11.418  13.175  64.677  1.00  0.00    -0.368 A  
HETATM   12  C   UNL     1     -10.185  14.789  66.021  1.00  0.00    -0.320 A  
HETATM   13  C   UNL     1     -10.288  13.961  64.891  1.00  0.00    -0.430 A  
ENDBRANCH   3   4
ENDBRANCH   2   3
BRANCH   2  14
HETATM   14  C   UNL     1     -12.963  14.049  70.734  1.00  0.00    -0.230 C  
BRANCH  14  15
HETATM   15  C   UNL     1     -12.589  12.582  70.747  1.00  0.00    -0.299 A  
HETATM   16  C   UNL     1     -11.331  10.689  69.875  1.00  0.00    -0.386 A  
HETATM   17  C   UNL     1     -13.097  11.745  71.742  1.00  0.00    -0.480 A  
HETATM   18  C   UNL     1     -12.713  10.402  71.814  1.00  0.00    -0.525 A  
HETATM   19  C   UNL     1     -11.716  12.035  69.799  1.00  0.00    -0.390 A  
HETATM   20  C   UNL     1     -11.805   9.845  70.898  1.00  0.00    -0.443 A  
BRANCH  20  21
HETATM   21  C   UNL     1     -11.319   8.388  71.014  1.00  0.00    -0.303 C  
HETATM   22  C   UNL     1     -10.569   7.898  69.754  1.00  0.00    -0.242 C  
HETATM   23  C   UNL     1     -10.358   8.237  72.211  1.00  0.00    -0.386 C  
HETATM   24  C   UNL     1     -12.522   7.442  71.217  1.00  0.00    -0.381 C  
ENDBRANCH  20  21
ENDBRANCH  14  15
ENDBRANCH   2  14
TORSDOF 5
ENDMDL
MODEL        8
REMARK 921   NORMALIZED FREE ENERGY PREDICTED BY IDOCK:   -5.88 KCAL/MOL
REMARK 922        TOTAL FREE ENERGY PREDICTED BY IDOCK:   -9.37 KCAL/MOL
REMARK 923 INTER-LIGAND FREE ENERGY PREDICTED BY IDOCK:   -8.43 KCAL/MOL
REMARK 924 INTRA-LIGAND FREE ENERGY PREDICTED BY IDOCK:   -0.94 KCAL/MOL
REMARK 927      BINDING AFFINITY PREDICTED BY RF-SCORE:    0.00 PKD
ROOT
HETATM    1  C   UNL     1     -11.313  15.407  72.047  1.00  0.00    -0.379 C  
HETATM    2  N   UNL     1     -11.827  14.804  70.812  1.00  0.00    -0.295 NA 
ENDROOT
BRANCH   2   3
HETATM    3  C   UNL     1     -12.151  15.841  69.810  1.00  0.00    -0.281 C  
BRANCH   3   4
HETATM    4  C   UNL     1     -11.454  15.654  68.469  1.00  0.00    -0.380 A  
HETATM    5  C   UNL     1     -10.532  16.605  67.949  1.00  0.00    -0.322 A  
HETATM    6  C   UNL     1     -11.765  14.502  67.721  1.00  0.00    -0.403 A  
HETATM    7  C   UNL     1     -10.157  17.788  68.623  1.00  0.00    -0.384 A  
HETATM    8  C   UNL     1     -11.188  14.283  66.475  1.00  0.00    -0.333 A  
HETATM    9  C   UNL     1      -9.287  18.719  68.053  1.00  0.00    -0.340 A  
HETATM   10  C   UNL     1     -10.293  15.212  65.955  1.00  0.00    -0.344 A  
HETATM   11  C   UNL     1      -8.750  18.482  66.795  1.00  0.00    -0.283 A  
HETATM   12  C   UNL     1      -9.962  16.373  66.670  1.00  0.00    -0.281 A  
HETATM   13  C   UNL     1      -9.078  17.312  66.113  1.00  0.00    -0.193 A  
ENDBRANCH   3   4
ENDBRANCH   2   3
BRANCH   2  14
HETATM   14  C   UNL     1     -13.015  13.967  71.057  1.00  0.00    -0.287 C  
BRANCH  14  15
HETATM   15  C   UNL     1     -12.727  12.480  71.067  1.00  0.00    -0.316 A  
HETATM   16  C   UNL     1     -11.522  10.530  70.244  1.00  0.00    -0.416 A  
HETATM   17  C   UNL     1     -13.348  11.658  72.009  1.00  0.00    -0.405 A  
HETATM   18  C   UNL     1     -13.048  10.295  72.080  1.00  0.00    -0.529 A  
HETATM   19  C   UNL     1     -11.824  11.898  70.169  1.00  0.00    -0.390 A  
HETATM   20  C   UNL     1     -12.113   9.700  71.216  1.00  0.00    -0.457 A  
BRANCH  20  21
HETATM   21  C   UNL     1     -11.720   8.216  71.336  1.00  0.00    -0.321 C  
HETATM   22  C   UNL     1     -10.952   7.691  70.101  1.00  0.00    -0.255 C  
HETATM   23  C   UNL     1     -10.817   7.997  72.567  1.00  0.00    -0.415 C  
HETATM   24  C   UNL     1     -12.985   7.343  71.484  1.00  0.00    -0.421 C  
ENDBRANCH  20  21
ENDBRANCH  14  15
ENDBRANCH   2  14
TORSDOF 5
ENDMDL
MODEL        9
REMARK 921   NORMALIZED FREE ENERGY PREDICTED BY IDOCK:   -5.85 KCAL/MOL
REMARK 922        TOTAL FREE ENERGY PREDICTED BY IDOCK:   -9.34 KCAL/MOL
REMARK 923 INTER-LIGAND FREE ENERGY PREDICTED BY IDOCK:   -7.94 KCAL/MOL
REMARK 924 INTRA-LIGAND FREE ENERGY PREDICTED BY IDOCK:   -1.39 KCAL/MOL
REMARK 927      BINDING AFFINITY PREDICTED BY RF-SCORE:    0.00 PKD
ROOT
HETATM    1  C   UNL     1      -9.819  11.302  64.583  1.00  0.00    -0.268 C  
HETATM    2  N   UNL     1     -10.266  12.485  65.326  1.00  0.00    -0.283 NA 
ENDROOT
BRANCH   2   3
HETATM    3  C   UNL     1     -11.622  12.282  65.879  1.00  0.00    -0.393 C  
BRANCH   3   4
HETATM    4  C   UNL     1     -11.705  12.409  67.394  1.00  0.00    -0.417 A  
HETATM    5  C   UNL     1     -11.404  11.327  68.269  1.00  0.00    -0.359 A  
HETATM    6  C   UNL     1     -12.120  13.645  67.929  1.00  0.00    -0.318 A  
HETATM    7  C   UNL     1     -10.982  10.054  67.829  1.00  0.00    -0.310 A  
HETATM    8  C   UNL     1     -12.246  13.821  69.302  1.00  0.00    -0.307 A  
HETATM    9  C   UNL     1     -10.746   9.005  68.719  1.00  0.00    -0.140 A  
HETATM   10  C   UNL     1     -11.963  12.766  70.164  1.00  0.00    -0.371 A  
HETATM   11  C   UNL     1     -10.908   9.209  70.083  1.00  0.00    -0.269 A  
HETATM   12  C   UNL     1     -11.551  11.521  69.667  1.00  0.00    -0.403 A  
HETATM   13  C   UNL     1     -11.299  10.460  70.553  1.00  0.00    -0.424 A  
ENDBRANCH   3   4
ENDBRANCH   2   3
BRANCH   2  14
HETATM   14  C   UNL     1     -10.250  13.701  64.495  1.00  0.00    -0.224 C  
BRANCH  14  15
HETATM   15  C   UNL     1     -10.084  14.983  65.285  1.00  0.00    -0.378 A  
HETATM   16  C   UNL     1      -8.924  16.338  66.941  1.00  0.00    -0.242 A  
HETATM   17  C   UNL     1     -10.906  16.077  65.012  1.00  0.00    -0.421 A  
HETATM   18  C   UNL     1     -10.728  17.292  65.682  1.00  0.00    -0.123 A  
HETATM   19  C   UNL     1      -9.102  15.118  66.273  1.00  0.00    -0.313 A  
HETATM   20  C   UNL     1      -9.721  17.461  66.646  1.00  0.00    -0.296 A  
BRANCH  20  21
HETATM   21  C   UNL     1      -9.469  18.815  67.335  1.00  0.00    -0.324 C  
HETATM   22  C   UNL     1     -10.012  18.869  68.782  1.00  0.00    -0.466 C  
HETATM   23  C   UNL     1      -7.957  19.111  67.399  1.00  0.00    -0.283 C  
HETATM   24  C   UNL     1     -10.166  19.947  66.550  1.00  0.00    -0.611 C  
ENDBRANCH  20  21
ENDBRANCH  14  15
ENDBRANCH   2  14
TORSDOF 5
ENDMDL
MODEL       10
REMARK 921   NORMALIZED FREE ENERGY PREDICTED BY IDOCK:   -5.84 KCAL/MOL
REMARK 922        TOTAL FREE ENERGY PREDICTED BY IDOCK:   -9.33 KCAL/MOL
REMARK 923 INTER-LIGAND FREE ENERGY PREDICTED BY IDOCK:   -8.72 KCAL/MOL
REMARK 924 INTRA-LIGAND FREE ENERGY PREDICTED BY IDOCK:   -0.61 KCAL/MOL
REMARK 927      BINDING AFFINITY PREDICTED BY RF-SCORE:    0.00 PKD
ROOT
HETATM    1  C   UNL     1      -9.861  15.507  69.921  1.00  0.00    -0.198 C  
HETATM    2  N   UNL     1     -10.787  16.196  69.016  1.00  0.00    -0.277 NA 
ENDROOT
BRANCH   2   3
HETATM    3  C   UNL     1     -12.036  15.423  68.845  1.00  0.00    -0.273 C  
BRANCH   3   4
HETATM    4  C   UNL     1     -12.503  14.704  70.103  1.00  0.00    -0.369 A  
HETATM    5  C   UNL     1     -12.369  13.296  70.272  1.00  0.00    -0.334 A  
HETATM    6  C   UNL     1     -13.107  15.474  71.116  1.00  0.00    -0.573 A  
HETATM    7  C   UNL     1     -11.779  12.442  69.316  1.00  0.00    -0.386 A  
HETATM    8  C   UNL     1     -13.583  14.877  72.278  1.00  0.00    -0.538 A  
HETATM    9  C   UNL     1     -11.714  11.060  69.500  1.00  0.00    -0.400 A  
HETATM   10  C   UNL     1     -13.465  13.501  72.447  1.00  0.00    -0.685 A  
HETATM   11  C   UNL     1     -12.223  10.494  70.660  1.00  0.00    -0.446 A  
HETATM   12  C   UNL     1     -12.871  12.702  71.458  1.00  0.00    -0.368 A  
HETATM   13  C   UNL     1     -12.789  11.311  71.637  1.00  0.00    -0.510 A  
ENDBRANCH   3   4
ENDBRANCH   2   3
BRANCH   2  14
HETATM   14  C   UNL     1     -10.183  16.454  67.697  1.00  0.00    -0.272 C  
BRANCH  14  15
HETATM   15  C   UNL     1     -10.250  15.274  66.749  1.00  0.00    -0.273 A  
HETATM   16  C   UNL     1      -9.718  12.973  66.160  1.00  0.00    -0.255 A  
HETATM   17  C   UNL     1     -11.018  15.360  65.586  1.00  0.00    -0.330 A  
HETATM   18  C   UNL     1     -11.149  14.262  64.731  1.00  0.00    -0.398 A  
HETATM   19  C   UNL     1      -9.583  14.074  67.018  1.00  0.00    -0.253 A  
HETATM   20  C   UNL     1     -10.521  13.035  65.006  1.00  0.00    -0.345 A  
BRANCH  20  21
HETATM   21  C   UNL     1     -10.720  11.798  64.109  1.00  0.00    -0.410 C  
HETATM   22  C   UNL     1     -12.124  11.738  63.463  1.00  0.00    -0.485 C  
HETATM   23  C   UNL     1      -9.686  11.794  62.965  1.00  0.00    -0.238 C  
HETATM   24  C   UNL     1     -10.551  10.509  64.940  1.00  0.00    -0.099 C  
ENDBRANCH  20  21
ENDBRANCH  14  15
ENDBRANCH   2  14
TORSDOF 5
ENDMDL
MODEL       11
REMARK 921   NORMALIZED FREE ENERGY PREDICTED BY IDOCK:   -5.82 KCAL/MOL
REMARK 922        TOTAL FREE ENERGY PREDICTED BY IDOCK:   -9.30 KCAL/MOL
REMARK 923 INTER-LIGAND FREE ENERGY PREDICTED BY IDOCK:   -6.95 KCAL/MOL
REMARK 924 INTRA-LIGAND FREE ENERGY PREDICTED BY IDOCK:   -2.34 KCAL/MOL
REMARK 927      BINDING AFFINITY PREDICTED BY RF-SCORE:    0.00 PKD
ROOT
HETATM    1  C   UNL     1      -8.598   8.884  62.704  1.00  0.00    -0.180 C  
HETATM    2  N   UNL     1      -8.914   9.354  64.057  1.00  0.00    -0.186 NA 
ENDROOT
BRANCH   2   3
HETATM    3  C   UNL     1      -8.794  10.825  64.148  1.00  0.00    -0.111 C  
BRANCH   3   4
HETATM    4  C   UNL     1     -10.106  11.542  64.439  1.00  0.00    -0.328 A  
HETATM    5  C   UNL     1     -10.418  12.073  65.722  1.00  0.00    -0.290 A  
HETATM    6  C   UNL     1     -11.040  11.654  63.391  1.00  0.00    -0.422 A  
HETATM    7  C   UNL     1      -9.548  12.010  66.833  1.00  0.00    -0.209 A  
HETATM    8  C   UNL     1     -12.270  12.270  63.595  1.00  0.00    -0.665 A  
HETATM    9  C   UNL     1      -9.915  12.498  68.087  1.00  0.00    -0.224 A  
HETATM   10  C   UNL     1     -12.587  12.783  64.849  1.00  0.00    -0.541 A  
HETATM   11  C   UNL     1     -11.161  13.083  68.262  1.00  0.00    -0.309 A  
HETATM   12  C   UNL     1     -11.682  12.687  65.916  1.00  0.00    -0.470 A  
HETATM   13  C   UNL     1     -12.035  13.185  67.182  1.00  0.00    -0.397 A  
ENDBRANCH   3   4
ENDBRANCH   2   3
BRANCH   2  14
HETATM   14  C   UNL     1      -8.056   8.725  65.077  1.00  0.00    -0.144 C  
BRANCH  14  15
HETATM   15  C   UNL     1      -8.680   8.670  66.456  1.00  0.00    -0.143 A  
HETATM   16  C   UNL     1      -8.547   8.921  68.874  1.00  0.00    -0.135 A  
HETATM   17  C   UNL     1     -10.044   8.405  66.590  1.00  0.00    -0.358 A  
HETATM   18  C   UNL     1     -10.655   8.414  67.848  1.00  0.00    -0.218 A  
HETATM   19  C   UNL     1      -7.931   8.909  67.614  1.00  0.00    -0.102 A  
HETATM   20  C   UNL     1      -9.929   8.694  69.018  1.00  0.00    -0.197 A  
BRANCH  20  21
HETATM   21  C   UNL     1     -10.608   8.781  70.398  1.00  0.00    -0.251 C  
HETATM   22  C   UNL     1     -11.485   7.548  70.720  1.00  0.00    -0.305 C  
HETATM   23  C   UNL     1      -9.547   8.895  71.511  1.00  0.00    -0.362 C  
HETATM   24  C   UNL     1     -11.531  10.017  70.458  1.00  0.00    -0.407 C  
ENDBRANCH  20  21
ENDBRANCH  14  15
ENDBRANCH   2  14
TORSDOF 5
ENDMDL
MODEL       12
REMARK 921   NORMALIZED FREE ENERGY PREDICTED BY IDOCK:   -5.76 KCAL/MOL
REMARK 922        TOTAL FREE ENERGY PREDICTED BY IDOCK:   -9.23 KCAL/MOL
REMARK 923 INTER-LIGAND FREE ENERGY PREDICTED BY IDOCK:   -8.05 KCAL/MOL
REMARK 924 INTRA-LIGAND FREE ENERGY PREDICTED BY IDOCK:   -1.18 KCAL/MOL
REMARK 927      BINDING AFFINITY PREDICTED BY RF-SCORE:    0.00 PKD
ROOT
HETATM    1  C   UNL     1     -10.131   9.259  66.279  1.00  0.00    -0.252 C  
HETATM    2  N   UNL     1     -10.257  10.650  66.728  1.00  0.00    -0.224 NA 
ENDROOT
BRANCH   2   3
HETATM    3  C   UNL     1      -9.532  11.567  65.823  1.00  0.00    -0.234 C  
BRANCH   3   4
HETATM    4  C   UNL     1     -10.408  12.631  65.177  1.00  0.00    -0.312 A  
HETATM    5  C   UNL     1     -10.260  14.018  65.460  1.00  0.00    -0.362 A  
HETATM    6  C   UNL     1     -11.412  12.204  64.286  1.00  0.00    -0.437 A  
HETATM    7  C   UNL     1      -9.285  14.542  66.337  1.00  0.00    -0.264 A  
HETATM    8  C   UNL     1     -12.268  13.120  63.683  1.00  0.00    -0.553 A  
HETATM    9  C   UNL     1      -9.208  15.905  66.625  1.00  0.00    -0.280 A  
HETATM   10  C   UNL     1     -12.136  14.476  63.962  1.00  0.00    -0.271 A  
HETATM   11  C   UNL     1     -10.095  16.789  66.027  1.00  0.00    -0.350 A  
HETATM   12  C   UNL     1     -11.149  14.938  64.846  1.00  0.00    -0.424 A  
HETATM   13  C   UNL     1     -11.053  16.309  65.136  1.00  0.00    -0.219 A  
ENDBRANCH   3   4
ENDBRANCH   2   3
BRANCH   2  14
HETATM   14  C   UNL     1      -9.773  10.834  68.107  1.00  0.00    -0.159 C  
BRANCH  14  15
HETATM   15  C   UNL     1     -10.673  11.701  68.964  1.00  0.00    -0.217 A  
HETATM   16  C   UNL     1     -12.294  11.979  70.759  1.00  0.00    -0.403 A  
HETATM   17  C   UNL     1     -10.645  13.088  68.817  1.00  0.00    -0.218 A  
HETATM   18  C   UNL     1     -11.418  13.912  69.642  1.00  0.00    -0.310 A  
HETATM   19  C   UNL     1     -11.522  11.151  69.931  1.00  0.00    -0.386 A  
HETATM   20  C   UNL     1     -12.243  13.382  70.647  1.00  0.00    -0.427 A  
BRANCH  20  21
HETATM   21  C   UNL     1     -13.040  14.284  71.609  1.00  0.00    -0.417 C  
HETATM   22  C   UNL     1     -13.985  15.264  70.876  1.00  0.00    -0.250 C  
HETATM   23  C   UNL     1     -13.907  13.427  72.553  1.00  0.00    -0.595 C  
HETATM   24  C   UNL     1     -12.074  15.139  72.456  1.00  0.00    -0.483 C  
ENDBRANCH  20  21
ENDBRANCH  14  15
ENDBRANCH   2  14
TORSDOF 5
ENDMDL
MODEL       13
REMARK 921   NORMALIZED FREE ENERGY PREDICTED BY IDOCK:   -5.74 KCAL/MOL
REMARK 922        TOTAL FREE ENERGY PREDICTED BY IDOCK:   -9.19 KCAL/MOL
REMARK 923 INTER-LIGAND FREE ENERGY PREDICTED BY IDOCK:   -8.28 KCAL/MOL
REMARK 924 INTRA-LIGAND FREE ENERGY PREDICTED BY IDOCK:   -0.91 KCAL/MOL
REMARK 927      BINDING AFFINITY PREDICTED BY RF-SCORE:    0.00 PKD
ROOT
HETATM    1  C   UNL     1     -14.404   7.880  71.601  1.00  0.00    -0.479 C  
HETATM    2  N   UNL     1     -13.160   8.654  71.531  1.00  0.00    -0.323 NA 
ENDROOT
BRANCH   2   3
HETATM    3  C   UNL     1     -12.067   7.968  72.253  1.00  0.00    -0.341 C  
BRANCH   3   4
HETATM    4  C   UNL     1     -11.367   6.885  71.443  1.00  0.00    -0.308 A  
HETATM    5  C   UNL     1     -10.971   5.641  72.013  1.00  0.00    -0.302 A  
HETATM    6  C   UNL     1     -11.089   7.152  70.089  1.00  0.00    -0.301 A  
HETATM    7  C   UNL     1     -11.204   5.282  73.358  1.00  0.00    -0.314 A  
HETATM    8  C   UNL     1     -10.426   6.219  69.299  1.00  0.00    -0.298 A  
HETATM    9  C   UNL     1     -10.754   4.073  73.889  1.00  0.00    -0.312 A  
HETATM   10  C   UNL     1     -10.027   5.006  69.850  1.00  0.00    -0.322 A  
HETATM   11  C   UNL     1     -10.071   3.176  73.079  1.00  0.00    -0.220 A  
HETATM   12  C   UNL     1     -10.284   4.706  71.196  1.00  0.00    -0.199 A  
HETATM   13  C   UNL     1      -9.846   3.487  71.740  1.00  0.00    -0.230 A  
ENDBRANCH   3   4
ENDBRANCH   2   3
BRANCH   2  14
HETATM   14  C   UNL     1     -13.324  10.017  72.067  1.00  0.00    -0.409 C  
BRANCH  14  15
HETATM   15  C   UNL     1     -12.745  11.100  71.180  1.00  0.00    -0.510 A  
HETATM   16  C   UNL     1     -11.663  11.826  69.124  1.00  0.00    -0.388 A  
HETATM   17  C   UNL     1     -12.845  12.438  71.563  1.00  0.00    -0.377 A  
HETATM   18  C   UNL     1     -12.377  13.459  70.729  1.00  0.00    -0.433 A  
HETATM   19  C   UNL     1     -12.129  10.801  69.959  1.00  0.00    -0.423 A  
HETATM   20  C   UNL     1     -11.796  13.182  69.481  1.00  0.00    -0.383 A  
BRANCH  20  21
HETATM   21  C   UNL     1     -11.346  14.302  68.524  1.00  0.00    -0.309 C  
HETATM   22  C   UNL     1     -11.766  15.712  69.002  1.00  0.00    -0.408 C  
HETATM   23  C   UNL     1      -9.810  14.302  68.382  1.00  0.00    -0.233 C  
HETATM   24  C   UNL     1     -11.976  14.094  67.130  1.00  0.00    -0.460 C  
ENDBRANCH  20  21
ENDBRANCH  14  15
ENDBRANCH   2  14
TORSDOF 5
ENDMDL
MODEL       14
REMARK 921   NORMALIZED FREE ENERGY PREDICTED BY IDOCK:   -5.74 KCAL/MOL
REMARK 922        TOTAL FREE ENERGY PREDICTED BY IDOCK:   -9.19 KCAL/MOL
REMARK 923 INTER-LIGAND FREE ENERGY PREDICTED BY IDOCK:   -7.97 KCAL/MOL
REMARK 924 INTRA-LIGAND FREE ENERGY PREDICTED BY IDOCK:   -1.23 KCAL/MOL
REMARK 927      BINDING AFFINITY PREDICTED BY RF-SCORE:    0.00 PKD
ROOT
HETATM    1  C   UNL     1     -10.815  15.401  70.457  1.00  0.00    -0.300 C  
HETATM    2  N   UNL     1     -11.090  14.355  69.466  1.00  0.00    -0.250 NA 
ENDROOT
BRANCH   2   3
HETATM    3  C   UNL     1     -11.101  14.912  68.096  1.00  0.00    -0.283 C  
BRANCH   3   4
HETATM    4  C   UNL     1     -11.173  13.863  66.995  1.00  0.00    -0.327 A  
HETATM    5  C   UNL     1     -10.124  12.930  66.759  1.00  0.00    -0.238 A  
HETATM    6  C   UNL     1     -12.320  13.846  66.177  1.00  0.00    -0.504 A  
HETATM    7  C   UNL     1      -8.939  12.869  67.523  1.00  0.00    -0.193 A  
HETATM    8  C   UNL     1     -12.439  12.934  65.134  1.00  0.00    -0.561 A  
HETATM    9  C   UNL     1      -7.913  11.971  67.224  1.00  0.00    -0.174 A  
HETATM   10  C   UNL     1     -11.414  12.025  64.890  1.00  0.00    -0.352 A  
HETATM   11  C   UNL     1      -8.053  11.092  66.159  1.00  0.00    -0.111 A  
HETATM   12  C   UNL     1     -10.257  12.015  65.682  1.00  0.00    -0.284 A  
HETATM   13  C   UNL     1      -9.221  11.108  65.400  1.00  0.00    -0.225 A  
ENDBRANCH   3   4
ENDBRANCH   2   3
BRANCH   2  14
HETATM   14  C   UNL     1     -12.366  13.666  69.727  1.00  0.00    -0.228 C  
BRANCH  14  15
HETATM   15  C   UNL     1     -12.206  12.238  70.207  1.00  0.00    -0.342 A  
HETATM   16  C   UNL     1     -12.798  10.405  71.696  1.00  0.00    -0.579 A  
HETATM   17  C   UNL     1     -11.359  11.366  69.522  1.00  0.00    -0.357 A  
HETATM   18  C   UNL     1     -11.246  10.026  69.907  1.00  0.00    -0.327 A  
HETATM   19  C   UNL     1     -12.911  11.750  71.313  1.00  0.00    -0.409 A  
HETATM   20  C   UNL     1     -11.978   9.506  70.988  1.00  0.00    -0.407 A  
BRANCH  20  21
HETATM   21  C   UNL     1     -11.917   8.016  71.372  1.00  0.00    -0.328 C  
HETATM   22  C   UNL     1     -13.314   7.362  71.486  1.00  0.00    -0.435 C  
HETATM   23  C   UNL     1     -11.122   7.221  70.316  1.00  0.00    -0.289 C  
HETATM   24  C   UNL     1     -11.230   7.850  72.744  1.00  0.00    -0.466 C  
ENDBRANCH  20  21
ENDBRANCH  14  15
ENDBRANCH   2  14
TORSDOF 5
ENDMDL
MODEL       15
REMARK 921   NORMALIZED FREE ENERGY PREDICTED BY IDOCK:   -5.74 KCAL/MOL
REMARK 922        TOTAL FREE ENERGY PREDICTED BY IDOCK:   -9.19 KCAL/MOL
REMARK 923 INTER-LIGAND FREE ENERGY PREDICTED BY IDOCK:   -8.41 KCAL/MOL
REMARK 924 INTRA-LIGAND FREE ENERGY PREDICTED BY IDOCK:   -0.78 KCAL/MOL
REMARK 927      BINDING AFFINITY PREDICTED BY RF-SCORE:    0.00 PKD
ROOT
HETATM    1  C   UNL     1     -10.869  14.848  67.982  1.00  0.00    -0.263 C  
HETATM    2  N   UNL     1     -11.308  13.491  68.325  1.00  0.00    -0.275 NA 
ENDROOT
BRANCH   2   3
HETATM    3  C   UNL     1     -12.401  13.046  67.434  1.00  0.00     0.120 C  
BRANCH   3   4
HETATM    4  C   UNL     1     -11.962  12.750  66.006  1.00  0.00    -0.491 A  
HETATM    5  C   UNL     1     -11.096  11.668  65.682  1.00  0.00    -0.308 A  
HETATM    6  C   UNL     1     -12.423  13.604  64.985  1.00  0.00    -0.454 A  
HETATM    7  C   UNL     1     -10.581  10.759  66.633  1.00  0.00    -0.291 A  
HETATM    8  C   UNL     1     -12.038  13.410  63.664  1.00  0.00    -0.513 A  
HETATM    9  C   UNL     1      -9.694   9.743  66.279  1.00  0.00    -0.295 A  
HETATM   10  C   UNL     1     -11.184  12.361  63.340  1.00  0.00    -0.492 A  
HETATM   11  C   UNL     1      -9.309   9.594  64.954  1.00  0.00    -0.306 A  
HETATM   12  C   UNL     1     -10.702  11.491  64.330  1.00  0.00    -0.404 A  
HETATM   13  C   UNL     1      -9.817  10.456  63.985  1.00  0.00    -0.355 A  
ENDBRANCH   3   4
ENDBRANCH   2   3
BRANCH   2  14
HETATM   14  C   UNL     1     -11.744  13.386  69.728  1.00  0.00    -0.286 C  
BRANCH  14  15
HETATM   15  C   UNL     1     -11.840  11.963  70.237  1.00  0.00    -0.368 A  
HETATM   16  C   UNL     1     -12.954  10.227  71.531  1.00  0.00    -0.556 A  
HETATM   17  C   UNL     1     -10.930  11.003  69.793  1.00  0.00    -0.258 A  
HETATM   18  C   UNL     1     -11.040   9.669  70.198  1.00  0.00    -0.314 A  
HETATM   19  C   UNL     1     -12.844  11.566  71.129  1.00  0.00    -0.414 A  
HETATM   20  C   UNL     1     -12.065   9.242  71.057  1.00  0.00    -0.349 A  
BRANCH  20  21
HETATM   21  C   UNL     1     -12.239   7.762  71.449  1.00  0.00    -0.343 C  
HETATM   22  C   UNL     1     -11.694   6.786  70.380  1.00  0.00    -0.418 C  
HETATM   23  C   UNL     1     -11.496   7.465  72.767  1.00  0.00    -0.312 C  
HETATM   24  C   UNL     1     -13.736   7.436  71.635  1.00  0.00    -0.468 C  
ENDBRANCH  20  21
ENDBRANCH  14  15
ENDBRANCH   2  14
TORSDOF 5
ENDMDL
MODEL       16
REMARK 921   NORMALIZED FREE ENERGY PREDICTED BY IDOCK:   -5.72 KCAL/MOL
REMARK 922        TOTAL FREE ENERGY PREDICTED BY IDOCK:   -9.17 KCAL/MOL
REMARK 923 INTER-LIGAND FREE ENERGY PREDICTED BY IDOCK:   -8.30 KCAL/MOL
REMARK 924 INTRA-LIGAND FREE ENERGY PREDICTED BY IDOCK:   -0.87 KCAL/MOL
REMARK 927      BINDING AFFINITY PREDICTED BY RF-SCORE:    0.00 PKD
ROOT
HETATM    1  C   UNL     1     -14.338   7.875  71.625  1.00  0.00    -0.479 C  
HETATM    2  N   UNL     1     -13.075   8.621  71.595  1.00  0.00    -0.339 NA 
ENDROOT
BRANCH   2   3
HETATM    3  C   UNL     1     -12.006   7.881  72.300  1.00  0.00    -0.337 C  
BRANCH   3   4
HETATM    4  C   UNL     1     -11.337   6.801  71.461  1.00  0.00    -0.316 A  
HETATM    5  C   UNL     1     -10.896   5.566  72.017  1.00  0.00    -0.287 A  
HETATM    6  C   UNL     1     -11.134   7.061  70.092  1.00  0.00    -0.323 A  
HETATM    7  C   UNL     1     -11.054   5.214  73.375  1.00  0.00    -0.385 A  
HETATM    8  C   UNL     1     -10.503   6.131  69.274  1.00  0.00    -0.314 A  
HETATM    9  C   UNL     1     -10.561   4.013  73.889  1.00  0.00    -0.293 A  
HETATM   10  C   UNL     1     -10.060   4.926  69.811  1.00  0.00    -0.319 A  
HETATM   11  C   UNL     1      -9.911   3.119  73.050  1.00  0.00    -0.204 A  
HETATM   12  C   UNL     1     -10.242   4.634  71.171  1.00  0.00    -0.199 A  
HETATM   13  C   UNL     1      -9.761   3.423  71.699  1.00  0.00    -0.234 A  
ENDBRANCH   3   4
ENDBRANCH   2   3
BRANCH   2  14
HETATM   14  C   UNL     1     -13.211   9.966  72.181  1.00  0.00    -0.415 C  
BRANCH  14  15
HETATM   15  C   UNL     1     -12.825  11.088  71.239  1.00  0.00    -0.528 A  
HETATM   16  C   UNL     1     -12.563  13.453  70.726  1.00  0.00    -0.369 A  
HETATM   17  C   UNL     1     -12.258  10.789  69.999  1.00  0.00    -0.409 A  
HETATM   18  C   UNL     1     -11.832  11.808  69.141  1.00  0.00    -0.389 A  
HETATM   19  C   UNL     1     -12.993  12.433  71.587  1.00  0.00    -0.409 A  
HETATM   20  C   UNL     1     -11.953  13.163  69.491  1.00  0.00    -0.354 A  
BRANCH  20  21
HETATM   21  C   UNL     1     -11.419  14.290  68.586  1.00  0.00    -0.328 C  
HETATM   22  C   UNL     1      -9.877  14.301  68.479  1.00  0.00    -0.231 C  
HETATM   23  C   UNL     1     -11.979  14.141  67.156  1.00  0.00    -0.460 C  
HETATM   24  C   UNL     1     -11.841  15.665  69.146  1.00  0.00    -0.378 C  
ENDBRANCH  20  21
ENDBRANCH  14  15
ENDBRANCH   2  14
TORSDOF 5
ENDMDL
MODEL       17
REMARK 921   NORMALIZED FREE ENERGY PREDICTED BY IDOCK:   -5.71 KCAL/MOL
REMARK 922        TOTAL FREE ENERGY PREDICTED BY IDOCK:   -9.16 KCAL/MOL
REMARK 923 INTER-LIGAND FREE ENERGY PREDICTED BY IDOCK:   -7.60 KCAL/MOL
REMARK 924 INTRA-LIGAND FREE ENERGY PREDICTED BY IDOCK:   -1.56 KCAL/MOL
REMARK 927      BINDING AFFINITY PREDICTED BY RF-SCORE:    0.00 PKD
ROOT
HETATM    1  C   UNL     1      -6.909  12.311  69.130  1.00  0.00    -0.073 C  
HETATM    2  N   UNL     1      -7.998  12.989  68.420  1.00  0.00    -0.145 NA 
ENDROOT
BRANCH   2   3
HETATM    3  C   UNL     1      -8.959  12.012  67.866  1.00  0.00    -0.182 C  
BRANCH   3   4
HETATM    4  C   UNL     1     -10.200  12.640  67.245  1.00  0.00    -0.227 A  
HETATM    5  C   UNL     1     -10.599  12.377  65.904  1.00  0.00    -0.289 A  
HETATM    6  C   UNL     1     -10.955  13.527  68.037  1.00  0.00    -0.271 A  
HETATM    7  C   UNL     1      -9.909  11.505  65.034  1.00  0.00    -0.294 A  
HETATM    8  C   UNL     1     -12.083  14.158  67.524  1.00  0.00    -0.363 A  
HETATM    9  C   UNL     1     -10.306  11.316  63.710  1.00  0.00    -0.453 A  
HETATM   10  C   UNL     1     -12.474  13.915  66.211  1.00  0.00    -0.454 A  
HETATM   11  C   UNL     1     -11.421  11.983  63.222  1.00  0.00    -0.398 A  
HETATM   12  C   UNL     1     -11.745  13.040  65.392  1.00  0.00    -0.401 A  
HETATM   13  C   UNL     1     -12.141  12.831  64.060  1.00  0.00    -0.533 A  
ENDBRANCH   3   4
ENDBRANCH   2   3
BRANCH   2  14
HETATM   14  C   UNL     1      -7.500  13.858  67.339  1.00  0.00    -0.128 C  
BRANCH  14  15
HETATM   15  C   UNL     1      -8.075  15.259  67.362  1.00  0.00    -0.205 A  
HETATM   16  C   UNL     1      -8.483  17.383  68.478  1.00  0.00    -0.274 A  
HETATM   17  C   UNL     1      -8.666  15.785  66.213  1.00  0.00    -0.358 A  
HETATM   18  C   UNL     1      -9.145  17.099  66.191  1.00  0.00    -0.214 A  
HETATM   19  C   UNL     1      -8.006  16.065  68.504  1.00  0.00    -0.159 A  
HETATM   20  C   UNL     1      -9.046  17.938  67.313  1.00  0.00    -0.251 A  
BRANCH  20  21
HETATM   21  C   UNL     1      -9.501  19.409  67.274  1.00  0.00    -0.398 C  
HETATM   22  C   UNL     1     -10.200  19.861  68.578  1.00  0.00    -0.529 C  
HETATM   23  C   UNL     1      -8.291  20.340  67.054  1.00  0.00    -0.373 C  
HETATM   24  C   UNL     1     -10.510  19.622  66.126  1.00  0.00    -0.624 C  
ENDBRANCH  20  21
ENDBRANCH  14  15
ENDBRANCH   2  14
TORSDOF 5
ENDMDL
MODEL       18
REMARK 921   NORMALIZED FREE ENERGY PREDICTED BY IDOCK:   -5.70 KCAL/MOL
REMARK 922        TOTAL FREE ENERGY PREDICTED BY IDOCK:   -9.15 KCAL/MOL
REMARK 923 INTER-LIGAND FREE ENERGY PREDICTED BY IDOCK:   -8.29 KCAL/MOL
REMARK 924 INTRA-LIGAND FREE ENERGY PREDICTED BY IDOCK:   -0.86 KCAL/MOL
REMARK 927      BINDING AFFINITY PREDICTED BY RF-SCORE:    0.00 PKD
ROOT
HETATM    1  C   UNL     1     -11.872  16.186  71.864  1.00  0.00    -0.525 C  
HETATM    2  N   UNL     1     -11.801  15.228  70.756  1.00  0.00    -0.307 NA 
ENDROOT
BRANCH   2   3
HETATM    3  C   UNL     1     -11.689  15.927  69.457  1.00  0.00    -0.326 C  
BRANCH   3   4
HETATM    4  C   UNL     1     -10.261  16.270  69.053  1.00  0.00    -0.261 A  
HETATM    5  C   UNL     1      -9.942  17.428  68.289  1.00  0.00    -0.320 A  
HETATM    6  C   UNL     1      -9.237  15.385  69.441  1.00  0.00    -0.268 A  
HETATM    7  C   UNL     1     -10.898  18.372  67.854  1.00  0.00    -0.234 A  
HETATM    8  C   UNL     1      -7.915  15.622  69.081  1.00  0.00    -0.227 A  
HETATM    9  C   UNL     1     -10.547  19.467  67.063  1.00  0.00    -0.586 A  
HETATM   10  C   UNL     1      -7.595  16.746  68.325  1.00  0.00    -0.188 A  
HETATM   11  C   UNL     1      -9.222  19.659  66.698  1.00  0.00    -0.439 A  
HETATM   12  C   UNL     1      -8.590  17.648  67.919  1.00  0.00    -0.238 A  
HETATM   13  C   UNL     1      -8.249  18.761  67.132  1.00  0.00    -0.275 A  
ENDBRANCH   3   4
ENDBRANCH   2   3
BRANCH   2  14
HETATM   14  C   UNL     1     -12.964  14.323  70.729  1.00  0.00    -0.304 C  
BRANCH  14  15
HETATM   15  C   UNL     1     -12.599  12.853  70.751  1.00  0.00    -0.314 A  
HETATM   16  C   UNL     1     -11.300  10.961  69.937  1.00  0.00    -0.381 A  
HETATM   17  C   UNL     1     -13.168  12.010  71.706  1.00  0.00    -0.421 A  
HETATM   18  C   UNL     1     -12.797  10.665  71.788  1.00  0.00    -0.549 A  
HETATM   19  C   UNL     1     -11.674  12.310  69.851  1.00  0.00    -0.346 A  
HETATM   20  C   UNL     1     -11.839  10.111  70.922  1.00  0.00    -0.468 A  
BRANCH  20  21
HETATM   21  C   UNL     1     -11.368   8.650  71.053  1.00  0.00    -0.322 C  
HETATM   22  C   UNL     1     -12.526   7.664  71.331  1.00  0.00    -0.359 C  
HETATM   23  C   UNL     1     -10.674   8.192  69.754  1.00  0.00    -0.229 C  
HETATM   24  C   UNL     1     -10.372   8.517  72.224  1.00  0.00    -0.402 C  
ENDBRANCH  20  21
ENDBRANCH  14  15
ENDBRANCH   2  14
TORSDOF 5
ENDMDL
MODEL       19
REMARK 921   NORMALIZED FREE ENERGY PREDICTED BY IDOCK:   -5.69 KCAL/MOL
REMARK 922        TOTAL FREE ENERGY PREDICTED BY IDOCK:   -9.14 KCAL/MOL
REMARK 923 INTER-LIGAND FREE ENERGY PREDICTED BY IDOCK:   -7.70 KCAL/MOL
REMARK 924 INTRA-LIGAND FREE ENERGY PREDICTED BY IDOCK:   -1.44 KCAL/MOL
REMARK 927      BINDING AFFINITY PREDICTED BY RF-SCORE:    0.00 PKD
ROOT
HETATM    1  C   UNL     1     -14.073   8.792  72.119  1.00  0.00    -0.450 C  
HETATM    2  N   UNL     1     -12.864   9.317  71.476  1.00  0.00    -0.338 NA 
ENDROOT
BRANCH   2   3
HETATM    3  C   UNL     1     -11.659   8.603  71.949  1.00  0.00    -0.350 C  
BRANCH   3   4
HETATM    4  C   UNL     1     -10.943   7.801  70.871  1.00  0.00    -0.260 A  
HETATM    5  C   UNL     1      -9.684   8.195  70.335  1.00  0.00    -0.179 A  
HETATM    6  C   UNL     1     -11.578   6.642  70.382  1.00  0.00    -0.457 A  
HETATM    7  C   UNL     1      -8.972   9.338  70.759  1.00  0.00    -0.292 A  
HETATM    8  C   UNL     1     -10.994   5.879  69.377  1.00  0.00    -0.421 A  
HETATM    9  C   UNL     1      -7.764   9.715  70.171  1.00  0.00    -0.179 A  
HETATM   10  C   UNL     1      -9.769   6.262  68.841  1.00  0.00    -0.144 A  
HETATM   11  C   UNL     1      -7.223   8.945  69.150  1.00  0.00    -0.067 A  
HETATM   12  C   UNL     1      -9.109   7.412  69.301  1.00  0.00    -0.135 A  
HETATM   13  C   UNL     1      -7.887   7.797  68.725  1.00  0.00    -0.123 A  
ENDBRANCH   3   4
ENDBRANCH   2   3
BRANCH   2  14
HETATM   14  C   UNL     1     -12.700  10.764  71.701  1.00  0.00    -0.414 C  
BRANCH  14  15
HETATM   15  C   UNL     1     -12.266  11.532  70.470  1.00  0.00    -0.469 A  
HETATM   16  C   UNL     1     -11.637  11.624  68.120  1.00  0.00    -0.389 A  
HETATM   17  C   UNL     1     -12.183  12.924  70.513  1.00  0.00    -0.395 A  
HETATM   18  C   UNL     1     -11.850  13.659  69.371  1.00  0.00    -0.392 A  
HETATM   19  C   UNL     1     -11.969  10.885  69.265  1.00  0.00    -0.382 A  
HETATM   20  C   UNL     1     -11.590  13.031  68.142  1.00  0.00    -0.379 A  
BRANCH  20  21
HETATM   21  C   UNL     1     -11.295  13.835  66.861  1.00  0.00    -0.345 C  
HETATM   22  C   UNL     1     -12.491  13.872  65.881  1.00  0.00    -0.519 C  
HETATM   23  C   UNL     1     -10.943  15.294  67.213  1.00  0.00    -0.327 C  
HETATM   24  C   UNL     1     -10.110  13.204  66.100  1.00  0.00    -0.291 C  
ENDBRANCH  20  21
ENDBRANCH  14  15
ENDBRANCH   2  14
TORSDOF 5
ENDMDL
MODEL       20
REMARK 921   NORMALIZED FREE ENERGY PREDICTED BY IDOCK:   -5.68 KCAL/MOL
REMARK 922        TOTAL FREE ENERGY PREDICTED BY IDOCK:   -9.12 KCAL/MOL
REMARK 923 INTER-LIGAND FREE ENERGY PREDICTED BY IDOCK:   -6.52 KCAL/MOL
REMARK 924 INTRA-LIGAND FREE ENERGY PREDICTED BY IDOCK:   -2.60 KCAL/MOL
REMARK 927      BINDING AFFINITY PREDICTED BY RF-SCORE:    0.00 PKD
ROOT
HETATM    1  C   UNL     1     -11.627  12.046  67.045  1.00  0.00    -0.317 C  
HETATM    2  N   UNL     1     -11.204  10.792  67.678  1.00  0.00    -0.368 NA 
ENDROOT
BRANCH   2   3
HETATM    3  C   UNL     1     -10.591  11.045  68.999  1.00  0.00    -0.225 C  
BRANCH   3   4
HETATM    4  C   UNL     1     -11.268  10.315  70.152  1.00  0.00    -0.387 A  
HETATM    5  C   UNL     1     -10.571   9.401  70.992  1.00  0.00    -0.400 A  
HETATM    6  C   UNL     1     -12.640  10.551  70.365  1.00  0.00    -0.364 A  
HETATM    7  C   UNL     1      -9.198   9.099  70.857  1.00  0.00    -0.326 A  
HETATM    8  C   UNL     1     -13.327   9.896  71.381  1.00  0.00    -0.447 A  
HETATM    9  C   UNL     1      -8.566   8.158  71.670  1.00  0.00    -0.181 A  
HETATM   10  C   UNL     1     -12.656   8.994  72.199  1.00  0.00    -0.461 A  
HETATM   11  C   UNL     1      -9.288   7.502  72.657  1.00  0.00    -0.208 A  
HETATM   12  C   UNL     1     -11.290   8.732  72.015  1.00  0.00    -0.441 A  
HETATM   13  C   UNL     1     -10.639   7.794  72.834  1.00  0.00    -0.428 A  
ENDBRANCH   3   4
ENDBRANCH   2   3
BRANCH   2  14
HETATM   14  C   UNL     1     -10.261  10.036  66.835  1.00  0.00    -0.238 C  
BRANCH  14  15
HETATM   15  C   UNL     1      -9.949   8.648  67.355  1.00  0.00    -0.270 A  
HETATM   16  C   UNL     1      -8.371   6.951  68.103  1.00  0.00    -0.118 A  
HETATM   17  C   UNL     1     -10.990   7.776  67.677  1.00  0.00    -0.020 A  
HETATM   18  C   UNL     1     -10.727   6.515  68.222  1.00  0.00    -0.341 A  
HETATM   19  C   UNL     1      -8.632   8.215  67.554  1.00  0.00    -0.129 A  
HETATM   20  C   UNL     1      -9.414   6.079  68.469  1.00  0.00    -0.127 A  
BRANCH  20  21
HETATM   21  C   UNL     1      -9.117   4.723  69.137  1.00  0.00    -0.155 C  
HETATM   22  C   UNL     1      -9.395   3.518  68.209  1.00  0.00    -0.235 C  
HETATM   23  C   UNL     1      -7.637   4.647  69.561  1.00  0.00    -0.055 C  
HETATM   24  C   UNL     1     -10.005   4.543  70.387  1.00  0.00    -0.284 C  
ENDBRANCH  20  21
ENDBRANCH  14  15
ENDBRANCH   2  14
TORSDOF 5
ENDMDL
MODEL       21
REMARK 921   NORMALIZED FREE ENERGY PREDICTED BY IDOCK:   -5.66 KCAL/MOL
REMARK 922        TOTAL FREE ENERGY PREDICTED BY IDOCK:   -9.09 KCAL/MOL
REMARK 923 INTER-LIGAND FREE ENERGY PREDICTED BY IDOCK:   -7.80 KCAL/MOL
REMARK 924 INTRA-LIGAND FREE ENERGY PREDICTED BY IDOCK:   -1.29 KCAL/MOL
REMARK 927      BINDING AFFINITY PREDICTED BY RF-SCORE:    0.00 PKD
ROOT
HETATM    1  C   UNL     1     -14.363   7.572  71.616  1.00  0.00    -0.477 C  
HETATM    2  N   UNL     1     -13.143   8.381  71.533  1.00  0.00    -0.319 NA 
ENDROOT
BRANCH   2   3
HETATM    3  C   UNL     1     -12.008   7.699  72.190  1.00  0.00    -0.302 C  
BRANCH   3   4
HETATM    4  C   UNL     1     -10.672   7.884  71.483  1.00  0.00    -0.267 A  
HETATM    5  C   UNL     1     -10.402   7.323  70.203  1.00  0.00    -0.221 A  
HETATM    6  C   UNL     1      -9.672   8.620  72.147  1.00  0.00    -0.383 A  
HETATM    7  C   UNL     1     -11.338   6.570  69.460  1.00  0.00    -0.419 A  
HETATM    8  C   UNL     1      -8.419   8.803  71.572  1.00  0.00    -0.230 A  
HETATM    9  C   UNL     1     -11.014   5.996  68.230  1.00  0.00    -0.347 A  
HETATM   10  C   UNL     1      -8.144   8.250  70.326  1.00  0.00    -0.104 A  
HETATM   11  C   UNL     1      -9.745   6.175  67.698  1.00  0.00    -0.121 A  
HETATM   12  C   UNL     1      -9.114   7.508  69.636  1.00  0.00    -0.140 A  
HETATM   13  C   UNL     1      -8.805   6.934  68.392  1.00  0.00    -0.123 A  
ENDBRANCH   3   4
ENDBRANCH   2   3
BRANCH   2  14
HETATM   14  C   UNL     1     -13.323   9.719  72.124  1.00  0.00    -0.431 C  
BRANCH  14  15
HETATM   15  C   UNL     1     -12.773  10.845  71.273  1.00  0.00    -0.542 A  
HETATM   16  C   UNL     1     -11.709  11.668  69.244  1.00  0.00    -0.396 A  
HETATM   17  C   UNL     1     -12.912  12.167  71.697  1.00  0.00    -0.427 A  
HETATM   18  C   UNL     1     -12.472  13.227  70.898  1.00  0.00    -0.424 A  
HETATM   19  C   UNL     1     -12.147  10.603  70.045  1.00  0.00    -0.393 A  
HETATM   20  C   UNL     1     -11.880  13.007  69.644  1.00  0.00    -0.385 A  
BRANCH  20  21
HETATM   21  C   UNL     1     -11.460  14.169  68.724  1.00  0.00    -0.333 C  
HETATM   22  C   UNL     1      -9.926  14.320  68.600  1.00  0.00    -0.234 C  
HETATM   23  C   UNL     1     -12.019  13.956  67.302  1.00  0.00    -0.446 C  
HETATM   24  C   UNL     1     -12.000  15.505  69.278  1.00  0.00    -0.338 C  
ENDBRANCH  20  21
ENDBRANCH  14  15
ENDBRANCH   2  14
TORSDOF 5
ENDMDL
MODEL       22
REMARK 921   NORMALIZED FREE ENERGY PREDICTED BY IDOCK:   -5.65 KCAL/MOL
REMARK 922        TOTAL FREE ENERGY PREDICTED BY IDOCK:   -9.09 KCAL/MOL
REMARK 923 INTER-LIGAND FREE ENERGY PREDICTED BY IDOCK:   -8.10 KCAL/MOL
REMARK 924 INTRA-LIGAND FREE ENERGY PREDICTED BY IDOCK:   -0.99 KCAL/MOL
REMARK 927      BINDING AFFINITY PREDICTED BY RF-SCORE:    0.00 PKD
ROOT
HETATM    1  C   UNL     1     -12.444  14.405  64.380  1.00  0.00    -0.312 C  
HETATM    2  N   UNL     1     -11.210  14.054  65.091  1.00  0.00    -0.316 NA 
ENDROOT
BRANCH   2   3
HETATM    3  C   UNL     1     -10.335  15.236  65.249  1.00  0.00    -0.401 C  
BRANCH   3   4
HETATM    4  C   UNL     1     -10.350  15.842  66.646  1.00  0.00    -0.302 A  
HETATM    5  C   UNL     1     -10.364  17.248  66.868  1.00  0.00    -0.310 A  
HETATM    6  C   UNL     1     -10.326  14.962  67.745  1.00  0.00    -0.244 A  
HETATM    7  C   UNL     1     -10.388  18.208  65.832  1.00  0.00    -0.284 A  
HETATM    8  C   UNL     1     -10.308  15.448  69.048  1.00  0.00    -0.243 A  
HETATM    9  C   UNL     1     -10.350  19.578  66.094  1.00  0.00    -0.614 A  
HETATM   10  C   UNL     1     -10.311  16.821  69.273  1.00  0.00    -0.309 A  
HETATM   11  C   UNL     1     -10.305  20.029  67.406  1.00  0.00    -0.533 A  
HETATM   12  C   UNL     1     -10.332  17.727  68.203  1.00  0.00    -0.393 A  
HETATM   13  C   UNL     1     -10.306  19.110  68.453  1.00  0.00    -0.412 A  
ENDBRANCH   3   4
ENDBRANCH   2   3
BRANCH   2  14
HETATM   14  C   UNL     1     -10.466  12.978  64.413  1.00  0.00    -0.404 C  
BRANCH  14  15
HETATM   15  C   UNL     1     -10.392  11.689  65.204  1.00  0.00    -0.326 A  
HETATM   16  C   UNL     1      -9.601   9.406  65.501  1.00  0.00    -0.328 A  
HETATM   17  C   UNL     1     -10.985  11.614  66.465  1.00  0.00    -0.349 A  
HETATM   18  C   UNL     1     -10.873  10.456  67.242  1.00  0.00    -0.324 A  
HETATM   19  C   UNL     1      -9.715  10.564  64.719  1.00  0.00    -0.365 A  
HETATM   20  C   UNL     1     -10.161   9.333  66.791  1.00  0.00    -0.325 A  
BRANCH  20  21
HETATM   21  C   UNL     1      -9.968   8.082  67.670  1.00  0.00    -0.234 C  
HETATM   22  C   UNL     1      -8.495   7.618  67.747  1.00  0.00    -0.122 C  
HETATM   23  C   UNL     1     -10.440   8.361  69.111  1.00  0.00    -0.218 C  
HETATM   24  C   UNL     1     -10.783   6.902  67.098  1.00  0.00    -0.436 C  
ENDBRANCH  20  21
ENDBRANCH  14  15
ENDBRANCH   2  14
TORSDOF 5
ENDMDL
MODEL       23
REMARK 921   NORMALIZED FREE ENERGY PREDICTED BY IDOCK:   -5.65 KCAL/MOL
REMARK 922        TOTAL FREE ENERGY PREDICTED BY IDOCK:   -9.08 KCAL/MOL
REMARK 923 INTER-LIGAND FREE ENERGY PREDICTED BY IDOCK:   -7.87 KCAL/MOL
REMARK 924 INTRA-LIGAND FREE ENERGY PREDICTED BY IDOCK:   -1.22 KCAL/MOL
REMARK 927      BINDING AFFINITY PREDICTED BY RF-SCORE:    0.00 PKD
ROOT
HETATM    1  C   UNL     1     -11.990  12.983  66.434  1.00  0.00    -0.402 C  
HETATM    2  N   UNL     1     -11.344  12.038  67.351  1.00  0.00    -0.305 NA 
ENDROOT
BRANCH   2   3
HETATM    3  C   UNL     1     -10.936  12.710  68.604  1.00  0.00    -0.256 C  
BRANCH   3   4
HETATM    4  C   UNL     1     -11.792  12.354  69.812  1.00  0.00    -0.387 A  
HETATM    5  C   UNL     1     -12.463  13.340  70.588  1.00  0.00    -0.373 A  
HETATM    6  C   UNL     1     -11.891  10.996  70.171  1.00  0.00    -0.441 A  
HETATM    7  C   UNL     1     -12.424  14.724  70.309  1.00  0.00    -0.393 A  
HETATM    8  C   UNL     1     -12.631  10.604  71.280  1.00  0.00    -0.533 A  
HETATM    9  C   UNL     1     -13.056  15.661  71.126  1.00  0.00    -0.523 A  
HETATM   10  C   UNL     1     -13.283  11.562  72.051  1.00  0.00    -0.443 A  
HETATM   11  C   UNL     1     -13.765  15.237  72.242  1.00  0.00    -0.614 A  
HETATM   12  C   UNL     1     -13.204  12.924  71.725  1.00  0.00    -0.479 A  
HETATM   13  C   UNL     1     -13.846  13.877  72.533  1.00  0.00    -0.620 A  
ENDBRANCH   3   4
ENDBRANCH   2   3
BRANCH   2  14
HETATM   14  C   UNL     1     -10.175  11.383  66.740  1.00  0.00    -0.223 C  
BRANCH  14  15
HETATM   15  C   UNL     1      -9.833  10.041  67.352  1.00  0.00    -0.226 A  
HETATM   16  C   UNL     1      -8.554   8.659  68.896  1.00  0.00    -0.130 A  
HETATM   17  C   UNL     1     -10.571   8.909  67.002  1.00  0.00    -0.279 A  
HETATM   18  C   UNL     1     -10.317   7.673  67.604  1.00  0.00    -0.303 A  
HETATM   19  C   UNL     1      -8.805   9.900  68.292  1.00  0.00    -0.119 A  
HETATM   20  C   UNL     1      -9.319   7.520  68.580  1.00  0.00    -0.143 A  
BRANCH  20  21
HETATM   21  C   UNL     1      -9.082   6.180  69.303  1.00  0.00    -0.129 C  
HETATM   22  C   UNL     1      -7.929   6.243  70.331  1.00  0.00    -0.111 C  
HETATM   23  C   UNL     1     -10.353   5.748  70.061  1.00  0.00    -0.328 C  
HETATM   24  C   UNL     1      -8.713   5.085  68.280  1.00  0.00    -0.106 C  
ENDBRANCH  20  21
ENDBRANCH  14  15
ENDBRANCH   2  14
TORSDOF 5
ENDMDL
MODEL       24
REMARK 921   NORMALIZED FREE ENERGY PREDICTED BY IDOCK:   -5.65 KCAL/MOL
REMARK 922        TOTAL FREE ENERGY PREDICTED BY IDOCK:   -9.08 KCAL/MOL
REMARK 923 INTER-LIGAND FREE ENERGY PREDICTED BY IDOCK:   -8.23 KCAL/MOL
REMARK 924 INTRA-LIGAND FREE ENERGY PREDICTED BY IDOCK:   -0.85 KCAL/MOL
REMARK 927      BINDING AFFINITY PREDICTED BY RF-SCORE:    0.00 PKD
ROOT
HETATM    1  C   UNL     1      -8.162  12.424  67.941  1.00  0.00    -0.163 C  
HETATM    2  N   UNL     1      -9.595  12.727  68.009  1.00  0.00    -0.211 NA 
ENDROOT
BRANCH   2   3
HETATM    3  C   UNL     1     -10.388  11.498  68.224  1.00  0.00    -0.197 C  
BRANCH   3   4
HETATM    4  C   UNL     1     -11.291  11.543  69.450  1.00  0.00    -0.355 A  
HETATM    5  C   UNL     1     -11.565  10.391  70.240  1.00  0.00    -0.410 A  
HETATM    6  C   UNL     1     -11.886  12.776  69.783  1.00  0.00    -0.380 A  
HETATM    7  C   UNL     1     -11.018   9.115  69.985  1.00  0.00    -0.240 A  
HETATM    8  C   UNL     1     -12.745  12.882  70.871  1.00  0.00    -0.291 A  
HETATM    9  C   UNL     1     -11.353   8.001  70.756  1.00  0.00    -0.282 A  
HETATM   10  C   UNL     1     -13.025  11.759  71.643  1.00  0.00    -0.467 A  
HETATM   11  C   UNL     1     -12.235   8.137  71.819  1.00  0.00    -0.358 A  
HETATM   12  C   UNL     1     -12.454  10.515  71.339  1.00  0.00    -0.516 A  
HETATM   13  C   UNL     1     -12.774   9.387  72.114  1.00  0.00    -0.460 A  
ENDBRANCH   3   4
ENDBRANCH   2   3
BRANCH   2  14
HETATM   14  C   UNL     1     -10.074  13.416  66.797  1.00  0.00    -0.260 C  
BRANCH  14  15
HETATM   15  C   UNL     1     -10.024  14.927  66.889  1.00  0.00    -0.245 A  
HETATM   16  C   UNL     1     -10.591  17.020  67.996  1.00  0.00    -0.373 A  
HETATM   17  C   UNL     1      -9.257  15.654  65.978  1.00  0.00    -0.374 A  
HETATM   18  C   UNL     1      -9.143  17.043  66.084  1.00  0.00    -0.239 A  
HETATM   19  C   UNL     1     -10.709  15.627  67.890  1.00  0.00    -0.294 A  
HETATM   20  C   UNL     1      -9.787  17.759  67.107  1.00  0.00    -0.311 A  
BRANCH  20  21
HETATM   21  C   UNL     1      -9.607  19.280  67.276  1.00  0.00    -0.394 C  
HETATM   22  C   UNL     1      -8.126  19.721  67.243  1.00  0.00    -0.327 C  
HETATM   23  C   UNL     1     -10.339  20.035  66.149  1.00  0.00    -0.570 C  
HETATM   24  C   UNL     1     -10.181  19.733  68.636  1.00  0.00    -0.515 C  
ENDBRANCH  20  21
ENDBRANCH  14  15
ENDBRANCH   2  14
TORSDOF 5
ENDMDL
MODEL       25
REMARK 921   NORMALIZED FREE ENERGY PREDICTED BY IDOCK:   -5.63 KCAL/MOL
REMARK 922        TOTAL FREE ENERGY PREDICTED BY IDOCK:   -9.06 KCAL/MOL
REMARK 923 INTER-LIGAND FREE ENERGY PREDICTED BY IDOCK:   -7.51 KCAL/MOL
REMARK 924 INTRA-LIGAND FREE ENERGY PREDICTED BY IDOCK:   -1.55 KCAL/MOL
REMARK 927      BINDING AFFINITY PREDICTED BY RF-SCORE:    0.00 PKD
ROOT
HETATM    1  C   UNL     1     -14.153   8.841  72.070  1.00  0.00    -0.441 C  
HETATM    2  N   UNL     1     -12.908   9.327  71.466  1.00  0.00    -0.338 NA 
ENDROOT
BRANCH   2   3
HETATM    3  C   UNL     1     -11.748   8.535  71.930  1.00  0.00    -0.341 C  
BRANCH   3   4
HETATM    4  C   UNL     1     -11.026   7.777  70.825  1.00  0.00    -0.259 A  
HETATM    5  C   UNL     1      -9.820   8.251  70.236  1.00  0.00    -0.186 A  
HETATM    6  C   UNL     1     -11.601   6.575  70.368  1.00  0.00    -0.470 A  
HETATM    7  C   UNL     1      -9.169   9.442  70.625  1.00  0.00    -0.303 A  
HETATM    8  C   UNL     1     -11.010   5.847  69.341  1.00  0.00    -0.421 A  
HETATM    9  C   UNL     1      -8.015   9.896  69.985  1.00  0.00    -0.194 A  
HETATM   10  C   UNL     1      -9.837   6.308  68.753  1.00  0.00    -0.156 A  
HETATM   11  C   UNL     1      -7.467   9.158  68.946  1.00  0.00    -0.075 A  
HETATM   12  C   UNL     1      -9.237   7.502  69.181  1.00  0.00    -0.144 A  
HETATM   13  C   UNL     1      -8.069   7.965  68.553  1.00  0.00    -0.123 A  
ENDBRANCH   3   4
ENDBRANCH   2   3
BRANCH   2  14
HETATM   14  C   UNL     1     -12.674  10.754  71.747  1.00  0.00    -0.359 C  
BRANCH  14  15
HETATM   15  C   UNL     1     -12.347  11.577  70.519  1.00  0.00    -0.432 A  
HETATM   16  C   UNL     1     -11.870  13.705  69.437  1.00  0.00    -0.392 A  
HETATM   17  C   UNL     1     -12.113  10.941  69.299  1.00  0.00    -0.332 A  
HETATM   18  C   UNL     1     -11.745  11.675  68.167  1.00  0.00    -0.365 A  
HETATM   19  C   UNL     1     -12.243  12.972  70.573  1.00  0.00    -0.392 A  
HETATM   20  C   UNL     1     -11.592  13.070  68.211  1.00  0.00    -0.375 A  
BRANCH  20  21
HETATM   21  C   UNL     1     -11.114  13.878  66.990  1.00  0.00    -0.311 C  
HETATM   22  C   UNL     1      -9.791  13.346  66.392  1.00  0.00    -0.299 C  
HETATM   23  C   UNL     1     -12.175  13.837  65.871  1.00  0.00    -0.501 C  
HETATM   24  C   UNL     1     -10.868  15.349  67.390  1.00  0.00    -0.309 C  
ENDBRANCH  20  21
ENDBRANCH  14  15
ENDBRANCH   2  14
TORSDOF 5
ENDMDL
MODEL       26
REMARK 921   NORMALIZED FREE ENERGY PREDICTED BY IDOCK:   -5.63 KCAL/MOL
REMARK 922        TOTAL FREE ENERGY PREDICTED BY IDOCK:   -9.05 KCAL/MOL
REMARK 923 INTER-LIGAND FREE ENERGY PREDICTED BY IDOCK:   -8.75 KCAL/MOL
REMARK 924 INTRA-LIGAND FREE ENERGY PREDICTED BY IDOCK:   -0.30 KCAL/MOL
REMARK 927      BINDING AFFINITY PREDICTED BY RF-SCORE:    0.00 PKD
ROOT
HETATM    1  C   UNL     1     -10.855   8.212  67.470  1.00  0.00    -0.039 C  
HETATM    2  N   UNL     1     -10.917   9.596  67.952  1.00  0.00    -0.210 NA 
ENDROOT
BRANCH   2   3
HETATM    3  C   UNL     1      -9.803  10.399  67.404  1.00  0.00    -0.178 C  
BRANCH   3   4
HETATM    4  C   UNL     1      -9.878  10.629  65.900  1.00  0.00    -0.296 A  
HETATM    5  C   UNL     1     -10.699  11.637  65.322  1.00  0.00    -0.346 A  
HETATM    6  C   UNL     1      -9.116   9.787  65.068  1.00  0.00    -0.280 A  
HETATM    7  C   UNL     1     -11.498  12.528  66.072  1.00  0.00    -0.423 A  
HETATM    8  C   UNL     1      -9.160   9.921  63.684  1.00  0.00    -0.294 A  
HETATM    9  C   UNL     1     -12.328  13.469  65.462  1.00  0.00    -0.524 A  
HETATM   10  C   UNL     1      -9.968  10.898  63.110  1.00  0.00    -0.368 A  
HETATM   11  C   UNL     1     -12.368  13.558  64.077  1.00  0.00    -0.391 A  
HETATM   12  C   UNL     1     -10.743  11.752  63.909  1.00  0.00    -0.457 A  
HETATM   13  C   UNL     1     -11.574  12.712  63.307  1.00  0.00    -0.419 A  
ENDBRANCH   3   4
ENDBRANCH   2   3
BRANCH   2  14
HETATM   14  C   UNL     1     -10.902   9.672  69.423  1.00  0.00    -0.217 C  
BRANCH  14  15
HETATM   15  C   UNL     1     -11.488  10.954  69.979  1.00  0.00    -0.411 A  
HETATM   16  C   UNL     1     -12.787  12.163  71.645  1.00  0.00    -0.390 A  
HETATM   17  C   UNL     1     -11.184  12.175  69.376  1.00  0.00    -0.248 A  
HETATM   18  C   UNL     1     -11.659  13.377  69.910  1.00  0.00    -0.270 A  
HETATM   19  C   UNL     1     -12.314  10.957  71.109  1.00  0.00    -0.479 A  
HETATM   20  C   UNL     1     -12.453  13.404  71.069  1.00  0.00    -0.437 A  
BRANCH  20  21
HETATM   21  C   UNL     1     -12.919  14.726  71.707  1.00  0.00    -0.410 C  
HETATM   22  C   UNL     1     -12.843  14.713  73.252  1.00  0.00    -0.580 C  
HETATM   23  C   UNL     1     -12.046  15.897  71.213  1.00  0.00    -0.487 C  
HETATM   24  C   UNL     1     -14.390  15.007  71.332  1.00  0.00    -0.594 C  
ENDBRANCH  20  21
ENDBRANCH  14  15
ENDBRANCH   2  14
TORSDOF 5
ENDMDL
MODEL       27
REMARK 921   NORMALIZED FREE ENERGY PREDICTED BY IDOCK:   -5.61 KCAL/MOL
REMARK 922        TOTAL FREE ENERGY PREDICTED BY IDOCK:   -9.03 KCAL/MOL
REMARK 923 INTER-LIGAND FREE ENERGY PREDICTED BY IDOCK:   -7.47 KCAL/MOL
REMARK 924 INTRA-LIGAND FREE ENERGY PREDICTED BY IDOCK:   -1.56 KCAL/MOL
REMARK 927      BINDING AFFINITY PREDICTED BY RF-SCORE:    0.00 PKD
ROOT
HETATM    1  C   UNL     1     -11.835  14.553  66.675  1.00  0.00    -0.366 C  
HETATM    2  N   UNL     1     -11.210  13.590  67.587  1.00  0.00    -0.269 NA 
ENDROOT
BRANCH   2   3
HETATM    3  C   UNL     1     -10.769  14.250  68.835  1.00  0.00    -0.257 C  
BRANCH   3   4
HETATM    4  C   UNL     1     -11.795  14.210  69.960  1.00  0.00    -0.388 A  
HETATM    5  C   UNL     1     -12.205  12.994  70.577  1.00  0.00    -0.392 A  
HETATM    6  C   UNL     1     -12.363  15.430  70.375  1.00  0.00    -0.443 A  
HETATM    7  C   UNL     1     -11.694  11.725  70.230  1.00  0.00    -0.317 A  
HETATM    8  C   UNL     1     -13.327  15.463  71.376  1.00  0.00    -0.601 A  
HETATM    9  C   UNL     1     -12.161  10.552  70.825  1.00  0.00    -0.468 A  
HETATM   10  C   UNL     1     -13.741  14.279  71.977  1.00  0.00    -0.542 A  
HETATM   11  C   UNL     1     -13.144  10.620  71.803  1.00  0.00    -0.571 A  
HETATM   12  C   UNL     1     -13.199  13.045  71.588  1.00  0.00    -0.426 A  
HETATM   13  C   UNL     1     -13.652  11.858  72.188  1.00  0.00    -0.188 A  
ENDBRANCH   3   4
ENDBRANCH   2   3
BRANCH   2  14
HETATM   14  C   UNL     1     -10.067  12.898  66.966  1.00  0.00    -0.245 C  
BRANCH  14  15
HETATM   15  C   UNL     1      -9.908  11.457  67.406  1.00  0.00    -0.199 A  
HETATM   16  C   UNL     1      -8.745   9.720  68.653  1.00  0.00    -0.122 A  
HETATM   17  C   UNL     1     -10.867  10.510  67.043  1.00  0.00    -0.288 A  
HETATM   18  C   UNL     1     -10.776   9.189  67.493  1.00  0.00    -0.255 A  
HETATM   19  C   UNL     1      -8.832  11.044  68.201  1.00  0.00    -0.141 A  
HETATM   20  C   UNL     1      -9.727   8.765  68.326  1.00  0.00    -0.175 A  
BRANCH  20  21
HETATM   21  C   UNL     1      -9.660   7.332  68.888  1.00  0.00    -0.143 C  
HETATM   22  C   UNL     1      -8.289   6.656  68.657  1.00  0.00    -0.123 C  
HETATM   23  C   UNL     1      -9.920   7.339  70.408  1.00  0.00    -0.192 C  
HETATM   24  C   UNL     1     -10.721   6.444  68.203  1.00  0.00    -0.359 C  
ENDBRANCH  20  21
ENDBRANCH  14  15
ENDBRANCH   2  14
TORSDOF 5
ENDMDL
MODEL       28
REMARK 921   NORMALIZED FREE ENERGY PREDICTED BY IDOCK:   -5.60 KCAL/MOL
REMARK 922        TOTAL FREE ENERGY PREDICTED BY IDOCK:   -9.01 KCAL/MOL
REMARK 923 INTER-LIGAND FREE ENERGY PREDICTED BY IDOCK:   -6.96 KCAL/MOL
REMARK 924 INTRA-LIGAND FREE ENERGY PREDICTED BY IDOCK:   -2.06 KCAL/MOL
REMARK 927      BINDING AFFINITY PREDICTED BY RF-SCORE:    0.00 PKD
ROOT
HETATM    1  C   UNL     1     -10.196   5.560  74.559  1.00  0.00    -0.269 C  
HETATM    2  N   UNL     1     -10.141   6.223  73.252  1.00  0.00    -0.183 NA 
ENDROOT
BRANCH   2   3
HETATM    3  C   UNL     1     -10.163   7.694  73.402  1.00  0.00    -0.315 C  
BRANCH   3   4
HETATM    4  C   UNL     1      -9.715   8.456  72.162  1.00  0.00    -0.370 A  
HETATM    5  C   UNL     1     -10.584   9.324  71.443  1.00  0.00    -0.417 A  
HETATM    6  C   UNL     1      -8.394   8.262  71.713  1.00  0.00    -0.193 A  
HETATM    7  C   UNL     1     -11.922   9.581  71.814  1.00  0.00    -0.443 A  
HETATM    8  C   UNL     1      -7.927   8.903  70.571  1.00  0.00    -0.133 A  
HETATM    9  C   UNL     1     -12.755  10.400  71.051  1.00  0.00    -0.490 A  
HETATM   10  C   UNL     1      -8.773   9.746  69.857  1.00  0.00    -0.238 A  
HETATM   11  C   UNL     1     -12.265  11.003  69.901  1.00  0.00    -0.408 A  
HETATM   12  C   UNL     1     -10.096   9.960  70.272  1.00  0.00    -0.295 A  
HETATM   13  C   UNL     1     -10.942  10.792  69.520  1.00  0.00    -0.317 A  
ENDBRANCH   3   4
ENDBRANCH   2   3
BRANCH   2  14
HETATM   14  C   UNL     1     -11.243   5.802  72.369  1.00  0.00    -0.290 C  
BRANCH  14  15
HETATM   15  C   UNL     1     -10.844   5.653  70.916  1.00  0.00    -0.294 A  
HETATM   16  C   UNL     1     -11.045   6.273  68.570  1.00  0.00    -0.397 A  
HETATM   17  C   UNL     1      -9.796   4.800  70.567  1.00  0.00    -0.301 A  
HETATM   18  C   UNL     1      -9.365   4.697  69.241  1.00  0.00    -0.207 A  
HETATM   19  C   UNL     1     -11.480   6.375  69.900  1.00  0.00    -0.483 A  
HETATM   20  C   UNL     1      -9.963   5.446  68.213  1.00  0.00    -0.212 A  
BRANCH  20  21
HETATM   21  C   UNL     1      -9.447   5.396  66.762  1.00  0.00    -0.144 C  
HETATM   22  C   UNL     1      -9.069   6.788  66.206  1.00  0.00    -0.165 C  
HETATM   23  C   UNL     1      -8.191   4.506  66.669  1.00  0.00    -0.102 C  
HETATM   24  C   UNL     1     -10.537   4.821  65.832  1.00  0.00    -0.290 C  
ENDBRANCH  20  21
ENDBRANCH  14  15
ENDBRANCH   2  14
TORSDOF 5
ENDMDL
MODEL       29
REMARK 921   NORMALIZED FREE ENERGY PREDICTED BY IDOCK:   -5.59 KCAL/MOL
REMARK 922        TOTAL FREE ENERGY PREDICTED BY IDOCK:   -9.00 KCAL/MOL
REMARK 923 INTER-LIGAND FREE ENERGY PREDICTED BY IDOCK:   -8.04 KCAL/MOL
REMARK 924 INTRA-LIGAND FREE ENERGY PREDICTED BY IDOCK:   -0.96 KCAL/MOL
REMARK 927      BINDING AFFINITY PREDICTED BY RF-SCORE:    0.00 PKD
ROOT
HETATM    1  C   UNL     1     -12.064  12.873  66.390  1.00  0.00    -0.329 C  
HETATM    2  N   UNL     1     -11.221  11.986  67.199  1.00  0.00    -0.296 NA 
ENDROOT
BRANCH   2   3
HETATM    3  C   UNL     1     -10.839  12.633  68.473  1.00  0.00    -0.252 C  
BRANCH   3   4
HETATM    4  C   UNL     1     -11.716  12.249  69.657  1.00  0.00    -0.386 A  
HETATM    5  C   UNL     1     -12.357  13.218  70.479  1.00  0.00    -0.389 A  
HETATM    6  C   UNL     1     -11.868  10.879  69.946  1.00  0.00    -0.427 A  
HETATM    7  C   UNL     1     -12.265  14.612  70.270  1.00  0.00    -0.389 A  
HETATM    8  C   UNL     1     -12.630  10.458  71.030  1.00  0.00    -0.491 A  
HETATM    9  C   UNL     1     -12.869  15.529  71.131  1.00  0.00    -0.551 A  
HETATM   10  C   UNL     1     -13.251  11.399  71.844  1.00  0.00    -0.485 A  
HETATM   11  C   UNL     1     -13.600  15.075  72.220  1.00  0.00    -0.547 A  
HETATM   12  C   UNL     1     -13.121  12.772  71.589  1.00  0.00    -0.428 A  
HETATM   13  C   UNL     1     -13.733  13.707  72.441  1.00  0.00    -0.697 A  
ENDBRANCH   3   4
ENDBRANCH   2   3
BRANCH   2  14
HETATM   14  C   UNL     1     -10.007  11.564  66.478  1.00  0.00    -0.210 C  
BRANCH  14  15
HETATM   15  C   UNL     1      -9.766  10.069  66.504  1.00  0.00    -0.254 A  
HETATM   16  C   UNL     1     -10.446   7.804  67.084  1.00  0.00    -0.413 A  
HETATM   17  C   UNL     1      -8.649   9.534  65.861  1.00  0.00    -0.144 A  
HETATM   18  C   UNL     1      -8.441   8.152  65.814  1.00  0.00    -0.162 A  
HETATM   19  C   UNL     1     -10.655   9.190  67.134  1.00  0.00    -0.286 A  
HETATM   20  C   UNL     1      -9.343   7.252  66.404  1.00  0.00    -0.199 A  
BRANCH  20  21
HETATM   21  C   UNL     1      -9.163   5.726  66.293  1.00  0.00    -0.168 C  
HETATM   22  C   UNL     1      -8.605   5.087  67.586  1.00  0.00    -0.104 C  
HETATM   23  C   UNL     1     -10.514   5.047  65.990  1.00  0.00    -0.289 C  
HETATM   24  C   UNL     1      -8.170   5.390  65.160  1.00  0.00    -0.138 C  
ENDBRANCH  20  21
ENDBRANCH  14  15
ENDBRANCH   2  14
TORSDOF 5
ENDMDL
MODEL       30
REMARK 921   NORMALIZED FREE ENERGY PREDICTED BY IDOCK:   -5.56 KCAL/MOL
REMARK 922        TOTAL FREE ENERGY PREDICTED BY IDOCK:   -8.96 KCAL/MOL
REMARK 923 INTER-LIGAND FREE ENERGY PREDICTED BY IDOCK:   -8.04 KCAL/MOL
REMARK 924 INTRA-LIGAND FREE ENERGY PREDICTED BY IDOCK:   -0.92 KCAL/MOL
REMARK 927      BINDING AFFINITY PREDICTED BY RF-SCORE:    0.00 PKD
ROOT
HETATM    1  C   UNL     1     -13.284  10.025  71.207  1.00  0.00    -0.383 C  
HETATM    2  N   UNL     1     -12.024  10.109  70.462  1.00  0.00    -0.301 NA 
ENDROOT
BRANCH   2   3
HETATM    3  C   UNL     1     -10.936   9.411  71.178  1.00  0.00    -0.360 C  
BRANCH   3   4
HETATM    4  C   UNL     1     -10.820   7.929  70.849  1.00  0.00    -0.245 A  
HETATM    5  C   UNL     1     -10.673   6.932  71.855  1.00  0.00    -0.245 A  
HETATM    6  C   UNL     1     -10.840   7.553  69.492  1.00  0.00    -0.184 A  
HETATM    7  C   UNL     1     -10.642   7.210  73.239  1.00  0.00    -0.405 A  
HETATM    8  C   UNL     1     -10.709   6.220  69.119  1.00  0.00    -0.362 A  
HETATM    9  C   UNL     1     -10.445   6.208  74.190  1.00  0.00    -0.247 A  
HETATM   10  C   UNL     1     -10.555   5.241  70.095  1.00  0.00    -0.297 A  
HETATM   11  C   UNL     1     -10.291   4.890  73.781  1.00  0.00    -0.273 A  
HETATM   12  C   UNL     1     -10.528   5.578  71.457  1.00  0.00    -0.298 A  
HETATM   13  C   UNL     1     -10.342   4.577  72.425  1.00  0.00    -0.256 A  
ENDBRANCH   3   4
ENDBRANCH   2   3
BRANCH   2  14
HETATM   14  C   UNL     1     -11.627  11.504  70.201  1.00  0.00    -0.249 C  
BRANCH  14  15
HETATM   15  C   UNL     1     -11.575  11.863  68.730  1.00  0.00    -0.366 A  
HETATM   16  C   UNL     1     -11.256  11.261  66.393  1.00  0.00    -0.190 A  
HETATM   17  C   UNL     1     -11.908  13.154  68.318  1.00  0.00    -0.384 A  
HETATM   18  C   UNL     1     -11.932  13.490  66.961  1.00  0.00    -0.440 A  
HETATM   19  C   UNL     1     -11.228  10.922  67.754  1.00  0.00    -0.384 A  
HETATM   20  C   UNL     1     -11.629  12.549  65.964  1.00  0.00    -0.456 A  
BRANCH  20  21
HETATM   21  C   UNL     1     -11.725  12.889  64.464  1.00  0.00    -0.416 C  
HETATM   22  C   UNL     1     -12.833  12.095  63.734  1.00  0.00    -0.451 C  
HETATM   23  C   UNL     1     -12.030  14.388  64.273  1.00  0.00    -0.433 C  
HETATM   24  C   UNL     1     -10.393  12.555  63.758  1.00  0.00    -0.418 C  
ENDBRANCH  20  21
ENDBRANCH  14  15
ENDBRANCH   2  14
TORSDOF 5
ENDMDL
MODEL       31
REMARK 921   NORMALIZED FREE ENERGY PREDICTED BY IDOCK:   -5.54 KCAL/MOL
REMARK 922        TOTAL FREE ENERGY PREDICTED BY IDOCK:   -8.94 KCAL/MOL
REMARK 923 INTER-LIGAND FREE ENERGY PREDICTED BY IDOCK:   -8.00 KCAL/MOL
REMARK 924 INTRA-LIGAND FREE ENERGY PREDICTED BY IDOCK:   -0.94 KCAL/MOL
REMARK 927      BINDING AFFINITY PREDICTED BY RF-SCORE:    0.00 PKD
ROOT
HETATM    1  C   UNL     1     -12.767  13.964  65.328  1.00  0.00    -0.449 C  
HETATM    2  N   UNL     1     -11.801  13.463  66.312  1.00  0.00    -0.374 NA 
ENDROOT
BRANCH   2   3
HETATM    3  C   UNL     1     -10.595  14.318  66.353  1.00  0.00    -0.286 C  
BRANCH   3   4
HETATM    4  C   UNL     1     -10.554  15.285  67.529  1.00  0.00    -0.273 A  
HETATM    5  C   UNL     1     -10.478  16.696  67.354  1.00  0.00    -0.314 A  
HETATM    6  C   UNL     1     -10.571  14.742  68.828  1.00  0.00    -0.251 A  
HETATM    7  C   UNL     1     -10.456  17.333  66.094  1.00  0.00    -0.279 A  
HETATM    8  C   UNL     1     -10.506  15.566  69.946  1.00  0.00    -0.323 A  
HETATM    9  C   UNL     1     -10.329  18.717  65.969  1.00  0.00    -0.436 A  
HETATM   10  C   UNL     1     -10.421  16.945  69.785  1.00  0.00    -0.078 A  
HETATM   11  C   UNL     1     -10.239  19.507  67.106  1.00  0.00    -0.542 A  
HETATM   12  C   UNL     1     -10.399  17.521  68.506  1.00  0.00    -0.380 A  
HETATM   13  C   UNL     1     -10.283  18.914  68.366  1.00  0.00    -0.433 A  
ENDBRANCH   3   4
ENDBRANCH   2   3
BRANCH   2  14
HETATM   14  C   UNL     1     -11.408  12.069  66.043  1.00  0.00    -0.343 C  
BRANCH  14  15
HETATM   15  C   UNL     1     -11.207  11.236  67.292  1.00  0.00    -0.364 A  
HETATM   16  C   UNL     1     -11.573  10.815  69.662  1.00  0.00    -0.388 A  
HETATM   17  C   UNL     1     -10.528  10.020  67.214  1.00  0.00    -0.313 A  
HETATM   18  C   UNL     1     -10.387   9.203  68.340  1.00  0.00    -0.242 A  
HETATM   19  C   UNL     1     -11.712  11.638  68.535  1.00  0.00    -0.378 A  
HETATM   20  C   UNL     1     -10.924   9.568  69.586  1.00  0.00    -0.233 A  
BRANCH  20  21
HETATM   21  C   UNL     1     -10.840   8.641  70.814  1.00  0.00    -0.272 C  
HETATM   22  C   UNL     1     -12.032   8.812  71.784  1.00  0.00    -0.418 C  
HETATM   23  C   UNL     1     -10.816   7.164  70.370  1.00  0.00    -0.269 C  
HETATM   24  C   UNL     1      -9.558   8.941  71.619  1.00  0.00    -0.363 C  
ENDBRANCH  20  21
ENDBRANCH  14  15
ENDBRANCH   2  14
TORSDOF 5
ENDMDL
MODEL       32
REMARK 921   NORMALIZED FREE ENERGY PREDICTED BY IDOCK:   -5.51 KCAL/MOL
REMARK 922        TOTAL FREE ENERGY PREDICTED BY IDOCK:   -8.90 KCAL/MOL
REMARK 923 INTER-LIGAND FREE ENERGY PREDICTED BY IDOCK:   -7.69 KCAL/MOL
REMARK 924 INTRA-LIGAND FREE ENERGY PREDICTED BY IDOCK:   -1.20 KCAL/MOL
REMARK 927      BINDING AFFINITY PREDICTED BY RF-SCORE:    0.00 PKD
ROOT
HETATM    1  C   UNL     1     -12.286  14.761  64.220  1.00  0.00    -0.379 C  
HETATM    2  N   UNL     1     -11.427  14.271  65.303  1.00  0.00    -0.332 NA 
ENDROOT
BRANCH   2   3
HETATM    3  C   UNL     1     -10.264  15.162  65.503  1.00  0.00    -0.376 C  
BRANCH   3   4
HETATM    4  C   UNL     1     -10.278  15.922  66.823  1.00  0.00    -0.283 A  
HETATM    5  C   UNL     1     -10.297  17.344  66.885  1.00  0.00    -0.317 A  
HETATM    6  C   UNL     1     -10.248  15.171  68.014  1.00  0.00    -0.230 A  
HETATM    7  C   UNL     1     -10.328  18.181  65.749  1.00  0.00    -0.178 A  
HETATM    8  C   UNL     1     -10.229  15.801  69.254  1.00  0.00    -0.248 A  
HETATM    9  C   UNL     1     -10.294  19.572  65.855  1.00  0.00    -0.562 A  
HETATM   10  C   UNL     1     -10.237  17.190  69.324  1.00  0.00    -0.231 A  
HETATM   11  C   UNL     1     -10.248  20.167  67.108  1.00  0.00    -0.554 A  
HETATM   12  C   UNL     1     -10.264  17.970  68.158  1.00  0.00    -0.392 A  
HETATM   13  C   UNL     1     -10.243  19.372  68.251  1.00  0.00    -0.535 A  
ENDBRANCH   3   4
ENDBRANCH   2   3
BRANCH   2  14
HETATM   14  C   UNL     1     -10.958  12.896  65.060  1.00  0.00    -0.297 C  
BRANCH  14  15
HETATM   15  C   UNL     1     -10.764  12.081  66.322  1.00  0.00    -0.302 A  
HETATM   16  C   UNL     1     -11.585  11.169  68.425  1.00  0.00    -0.376 A  
HETATM   17  C   UNL     1      -9.575  11.376  66.518  1.00  0.00    -0.220 A  
HETATM   18  C   UNL     1      -9.400  10.564  67.643  1.00  0.00    -0.160 A  
HETATM   19  C   UNL     1     -11.762  11.986  67.299  1.00  0.00    -0.339 A  
HETATM   20  C   UNL     1     -10.406  10.422  68.612  1.00  0.00    -0.202 A  
BRANCH  20  21
HETATM   21  C   UNL     1     -10.252   9.473  69.816  1.00  0.00    -0.249 C  
HETATM   22  C   UNL     1     -10.478   7.988  69.448  1.00  0.00    -0.223 C  
HETATM   23  C   UNL     1      -8.834   9.589  70.412  1.00  0.00    -0.279 C  
HETATM   24  C   UNL     1     -11.284   9.828  70.907  1.00  0.00    -0.429 C  
ENDBRANCH  20  21
ENDBRANCH  14  15
ENDBRANCH   2  14
TORSDOF 5
ENDMDL
MODEL       33
REMARK 921   NORMALIZED FREE ENERGY PREDICTED BY IDOCK:   -5.50 KCAL/MOL
REMARK 922        TOTAL FREE ENERGY PREDICTED BY IDOCK:   -8.89 KCAL/MOL
REMARK 923 INTER-LIGAND FREE ENERGY PREDICTED BY IDOCK:   -8.62 KCAL/MOL
REMARK 924 INTRA-LIGAND FREE ENERGY PREDICTED BY IDOCK:   -0.26 KCAL/MOL
REMARK 927      BINDING AFFINITY PREDICTED BY RF-SCORE:    0.00 PKD
ROOT
HETATM    1  C   UNL     1     -11.260  11.640  66.333  1.00  0.00    -0.287 C  
HETATM    2  N   UNL     1     -11.238  12.712  67.334  1.00  0.00    -0.274 NA 
ENDROOT
BRANCH   2   3
HETATM    3  C   UNL     1     -11.788  12.244  68.624  1.00  0.00    -0.305 C  
BRANCH   3   4
HETATM    4  C   UNL     1     -10.950  11.172  69.309  1.00  0.00    -0.300 A  
HETATM    5  C   UNL     1     -11.459  10.364  70.364  1.00  0.00    -0.420 A  
HETATM    6  C   UNL     1      -9.618  11.006  68.883  1.00  0.00    -0.174 A  
HETATM    7  C   UNL     1     -12.778  10.456  70.861  1.00  0.00    -0.477 A  
HETATM    8  C   UNL     1      -8.788  10.066  69.484  1.00  0.00    -0.209 A  
HETATM    9  C   UNL     1     -13.220   9.679  71.932  1.00  0.00    -0.538 A  
HETATM   10  C   UNL     1      -9.275   9.279  70.523  1.00  0.00    -0.311 A  
HETATM   11  C   UNL     1     -12.357   8.769  72.527  1.00  0.00    -0.358 A  
HETATM   12  C   UNL     1     -10.595   9.419  70.976  1.00  0.00    -0.400 A  
HETATM   13  C   UNL     1     -11.057   8.634  72.046  1.00  0.00    -0.437 A  
ENDBRANCH   3   4
ENDBRANCH   2   3
BRANCH   2  14
HETATM   14  C   UNL     1     -11.979  13.905  66.887  1.00  0.00    -0.433 C  
BRANCH  14  15
HETATM   15  C   UNL     1     -11.225  15.204  67.079  1.00  0.00    -0.308 A  
HETATM   16  C   UNL     1      -9.867  17.034  66.222  1.00  0.00    -0.310 A  
HETATM   17  C   UNL     1     -11.269  15.857  68.311  1.00  0.00    -0.354 A  
HETATM   18  C   UNL     1     -10.636  17.091  68.493  1.00  0.00    -0.370 A  
HETATM   19  C   UNL     1     -10.498  15.795  66.038  1.00  0.00    -0.350 A  
HETATM   20  C   UNL     1      -9.938  17.721  67.449  1.00  0.00    -0.323 A  
BRANCH  20  21
HETATM   21  C   UNL     1      -9.302  19.113  67.617  1.00  0.00    -0.357 C  
HETATM   22  C   UNL     1     -10.179  20.085  68.441  1.00  0.00    -0.510 C  
HETATM   23  C   UNL     1      -7.942  18.999  68.335  1.00  0.00    -0.375 C  
HETATM   24  C   UNL     1      -9.083  19.767  66.235  1.00  0.00    -0.444 C  
ENDBRANCH  20  21
ENDBRANCH  14  15
ENDBRANCH   2  14
TORSDOF 5
ENDMDL
MODEL       34
REMARK 921   NORMALIZED FREE ENERGY PREDICTED BY IDOCK:   -5.47 KCAL/MOL
REMARK 922        TOTAL FREE ENERGY PREDICTED BY IDOCK:   -8.85 KCAL/MOL
REMARK 923 INTER-LIGAND FREE ENERGY PREDICTED BY IDOCK:   -8.14 KCAL/MOL
REMARK 924 INTRA-LIGAND FREE ENERGY PREDICTED BY IDOCK:   -0.71 KCAL/MOL
REMARK 927      BINDING AFFINITY PREDICTED BY RF-SCORE:    0.00 PKD
ROOT
HETATM    1  C   UNL     1      -7.647   7.761  68.616  1.00  0.00    -0.105 C  
HETATM    2  N   UNL     1      -8.641   8.813  68.851  1.00  0.00    -0.135 NA 
ENDROOT
BRANCH   2   3
HETATM    3  C   UNL     1      -8.894   8.991  70.296  1.00  0.00    -0.189 C  
BRANCH   3   4
HETATM    4  C   UNL     1     -10.099   8.221  70.820  1.00  0.00    -0.218 A  
HETATM    5  C   UNL     1     -11.318   8.861  71.178  1.00  0.00    -0.357 A  
HETATM    6  C   UNL     1      -9.973   6.826  70.969  1.00  0.00    -0.196 A  
HETATM    7  C   UNL     1     -11.540  10.251  71.066  1.00  0.00    -0.430 A  
HETATM    8  C   UNL     1     -11.023   6.064  71.469  1.00  0.00    -0.335 A  
HETATM    9  C   UNL     1     -12.734  10.845  71.477  1.00  0.00    -0.533 A  
HETATM   10  C   UNL     1     -12.215   6.684  71.832  1.00  0.00    -0.381 A  
HETATM   11  C   UNL     1     -13.752  10.058  71.997  1.00  0.00    -0.252 A  
HETATM   12  C   UNL     1     -12.375   8.071  71.700  1.00  0.00    -0.344 A  
HETATM   13  C   UNL     1     -13.577   8.680  72.099  1.00  0.00    -0.447 A  
ENDBRANCH   3   4
ENDBRANCH   2   3
BRANCH   2  14
HETATM   14  C   UNL     1      -9.913   8.540  68.158  1.00  0.00    -0.181 C  
BRANCH  14  15
HETATM   15  C   UNL     1     -10.412   9.692  67.312  1.00  0.00    -0.323 A  
HETATM   16  C   UNL     1     -11.639  11.779  67.052  1.00  0.00    -0.321 A  
HETATM   17  C   UNL     1     -10.014   9.798  65.978  1.00  0.00    -0.342 A  
HETATM   18  C   UNL     1     -10.408  10.888  65.196  1.00  0.00    -0.344 A  
HETATM   19  C   UNL     1     -11.248  10.684  67.837  1.00  0.00    -0.376 A  
HETATM   20  C   UNL     1     -11.211  11.916  65.718  1.00  0.00    -0.365 A  
BRANCH  20  21
HETATM   21  C   UNL     1     -11.588  13.158  64.887  1.00  0.00    -0.356 C  
HETATM   22  C   UNL     1     -10.417  14.154  64.722  1.00  0.00    -0.432 C  
HETATM   23  C   UNL     1     -12.040  12.740  63.473  1.00  0.00    -0.642 C  
HETATM   24  C   UNL     1     -12.738  13.925  65.574  1.00  0.00    -0.536 C  
ENDBRANCH  20  21
ENDBRANCH  14  15
ENDBRANCH   2  14
TORSDOF 5
ENDMDL
MODEL       35
REMARK 921   NORMALIZED FREE ENERGY PREDICTED BY IDOCK:   -5.46 KCAL/MOL
REMARK 922        TOTAL FREE ENERGY PREDICTED BY IDOCK:   -8.83 KCAL/MOL
REMARK 923 INTER-LIGAND FREE ENERGY PREDICTED BY IDOCK:   -7.19 KCAL/MOL
REMARK 924 INTRA-LIGAND FREE ENERGY PREDICTED BY IDOCK:   -1.64 KCAL/MOL
REMARK 927      BINDING AFFINITY PREDICTED BY RF-SCORE:    0.00 PKD
ROOT
HETATM    1  C   UNL     1      -7.605   7.773  69.094  1.00  0.00    -0.099 C  
HETATM    2  N   UNL     1      -8.660   8.664  68.599  1.00  0.00    -0.130 NA 
ENDROOT
BRANCH   2   3
HETATM    3  C   UNL     1      -9.971   7.979  68.588  1.00  0.00    -0.189 C  
BRANCH   3   4
HETATM    4  C   UNL     1     -10.772   8.142  69.873  1.00  0.00    -0.241 A  
HETATM    5  C   UNL     1     -11.411   9.364  70.224  1.00  0.00    -0.261 A  
HETATM    6  C   UNL     1     -10.853   7.037  70.742  1.00  0.00    -0.272 A  
HETATM    7  C   UNL     1     -11.386  10.525  69.420  1.00  0.00    -0.331 A  
HETATM    8  C   UNL     1     -11.543   7.125  71.946  1.00  0.00    -0.314 A  
HETATM    9  C   UNL     1     -11.983  11.718  69.828  1.00  0.00    -0.392 A  
HETATM   10  C   UNL     1     -12.162   8.319  72.302  1.00  0.00    -0.428 A  
HETATM   11  C   UNL     1     -12.641  11.779  71.048  1.00  0.00    -0.409 A  
HETATM   12  C   UNL     1     -12.100   9.441  71.462  1.00  0.00    -0.456 A  
HETATM   13  C   UNL     1     -12.707  10.646  71.855  1.00  0.00    -0.410 A  
ENDBRANCH   3   4
ENDBRANCH   2   3
BRANCH   2  14
HETATM   14  C   UNL     1      -8.363   9.179  67.251  1.00  0.00    -0.121 C  
BRANCH  14  15
HETATM   15  C   UNL     1      -9.083  10.469  66.914  1.00  0.00    -0.161 A  
HETATM   16  C   UNL     1     -10.915  11.683  65.866  1.00  0.00    -0.334 A  
HETATM   17  C   UNL     1      -8.624  11.678  67.438  1.00  0.00    -0.149 A  
HETATM   18  C   UNL     1      -9.310  12.871  67.195  1.00  0.00    -0.229 A  
HETATM   19  C   UNL     1     -10.226  10.485  66.106  1.00  0.00    -0.299 A  
HETATM   20  C   UNL     1     -10.483  12.902  66.423  1.00  0.00    -0.278 A  
BRANCH  20  21
HETATM   21  C   UNL     1     -11.288  14.199  66.212  1.00  0.00    -0.340 C  
HETATM   22  C   UNL     1     -12.647  13.961  65.514  1.00  0.00    -0.560 C  
HETATM   23  C   UNL     1     -11.578  14.877  67.566  1.00  0.00    -0.355 C  
HETATM   24  C   UNL     1     -10.491  15.178  65.323  1.00  0.00    -0.434 C  
ENDBRANCH  20  21
ENDBRANCH  14  15
ENDBRANCH   2  14
TORSDOF 5
ENDMDL
MODEL       36
REMARK 921   NORMALIZED FREE ENERGY PREDICTED BY IDOCK:   -5.42 KCAL/MOL
REMARK 922        TOTAL FREE ENERGY PREDICTED BY IDOCK:   -8.79 KCAL/MOL
REMARK 923 INTER-LIGAND FREE ENERGY PREDICTED BY IDOCK:   -8.59 KCAL/MOL
REMARK 924 INTRA-LIGAND FREE ENERGY PREDICTED BY IDOCK:   -0.20 KCAL/MOL
REMARK 927      BINDING AFFINITY PREDICTED BY RF-SCORE:    0.00 PKD
ROOT
HETATM    1  C   UNL     1     -10.540   8.520  72.087  1.00  0.00    -0.349 C  
HETATM    2  N   UNL     1     -11.987   8.453  71.861  1.00  0.00    -0.314 NA 
ENDROOT
BRANCH   2   3
HETATM    3  C   UNL     1     -12.448   7.051  71.786  1.00  0.00    -0.356 C  
BRANCH   3   4
HETATM    4  C   UNL     1     -11.331   6.035  71.584  1.00  0.00    -0.313 A  
HETATM    5  C   UNL     1     -10.783   5.747  70.303  1.00  0.00    -0.380 A  
HETATM    6  C   UNL     1     -10.852   5.351  72.718  1.00  0.00    -0.310 A  
HETATM    7  C   UNL     1     -11.197   6.380  69.110  1.00  0.00    -0.421 A  
HETATM    8  C   UNL     1      -9.854   4.390  72.602  1.00  0.00    -0.205 A  
HETATM    9  C   UNL     1     -10.668   6.030  67.867  1.00  0.00    -0.363 A  
HETATM   10  C   UNL     1      -9.320   4.095  71.352  1.00  0.00    -0.211 A  
HETATM   11  C   UNL     1      -9.692   5.047  67.784  1.00  0.00    -0.192 A  
HETATM   12  C   UNL     1      -9.775   4.755  70.201  1.00  0.00    -0.288 A  
HETATM   13  C   UNL     1      -9.242   4.420  68.944  1.00  0.00    -0.199 A  
ENDBRANCH   3   4
ENDBRANCH   2   3
BRANCH   2  14
HETATM   14  C   UNL     1     -12.392   9.171  70.640  1.00  0.00     0.047 C  
BRANCH  14  15
HETATM   15  C   UNL     1     -12.554  10.665  70.831  1.00  0.00    -0.503 A  
HETATM   16  C   UNL     1     -13.297  12.586  72.129  1.00  0.00    -0.540 A  
HETATM   17  C   UNL     1     -12.003  11.548  69.900  1.00  0.00    -0.426 A  
HETATM   18  C   UNL     1     -12.082  12.931  70.090  1.00  0.00    -0.373 A  
HETATM   19  C   UNL     1     -13.221  11.199  71.940  1.00  0.00    -0.488 A  
HETATM   20  C   UNL     1     -12.710  13.485  71.218  1.00  0.00    -0.432 A  
BRANCH  20  21
HETATM   21  C   UNL     1     -12.736  15.004  71.473  1.00  0.00    -0.414 C  
HETATM   22  C   UNL     1     -12.261  15.831  70.256  1.00  0.00    -0.367 C  
HETATM   23  C   UNL     1     -14.168  15.466  71.813  1.00  0.00    -0.632 C  
HETATM   24  C   UNL     1     -11.804  15.360  72.650  1.00  0.00    -0.567 C  
ENDBRANCH  20  21
ENDBRANCH  14  15
ENDBRANCH   2  14
TORSDOF 5
ENDMDL
MODEL       37
REMARK 921   NORMALIZED FREE ENERGY PREDICTED BY IDOCK:   -5.42 KCAL/MOL
REMARK 922        TOTAL FREE ENERGY PREDICTED BY IDOCK:   -8.78 KCAL/MOL
REMARK 923 INTER-LIGAND FREE ENERGY PREDICTED BY IDOCK:   -7.82 KCAL/MOL
REMARK 924 INTRA-LIGAND FREE ENERGY PREDICTED BY IDOCK:   -0.96 KCAL/MOL
REMARK 927      BINDING AFFINITY PREDICTED BY RF-SCORE:    0.00 PKD
ROOT
HETATM    1  C   UNL     1     -12.630  13.720  65.352  1.00  0.00    -0.497 C  
HETATM    2  N   UNL     1     -11.613  13.357  66.344  1.00  0.00    -0.331 NA 
ENDROOT
BRANCH   2   3
HETATM    3  C   UNL     1     -10.432  14.241  66.241  1.00  0.00    -0.291 C  
BRANCH   3   4
HETATM    4  C   UNL     1     -10.395  15.358  67.276  1.00  0.00    -0.271 A  
HETATM    5  C   UNL     1      -9.447  16.418  67.221  1.00  0.00    -0.231 A  
HETATM    6  C   UNL     1     -11.328  15.309  68.330  1.00  0.00    -0.344 A  
HETATM    7  C   UNL     1      -8.475  16.553  66.206  1.00  0.00    -0.363 A  
HETATM    8  C   UNL     1     -11.331  16.280  69.325  1.00  0.00    -0.288 A  
HETATM    9  C   UNL     1      -7.531  17.581  66.219  1.00  0.00    -0.355 A  
HETATM   10  C   UNL     1     -10.402  17.314  69.285  1.00  0.00    -0.237 A  
HETATM   11  C   UNL     1      -7.546  18.518  67.242  1.00  0.00    -0.228 A  
HETATM   12  C   UNL     1      -9.456  17.394  68.251  1.00  0.00    -0.290 A  
HETATM   13  C   UNL     1      -8.508  18.430  68.246  1.00  0.00    -0.321 A  
ENDBRANCH   3   4
ENDBRANCH   2   3
BRANCH   2  14
HETATM   14  C   UNL     1     -11.189  11.952  66.214  1.00  0.00    -0.337 C  
BRANCH  14  15
HETATM   15  C   UNL     1     -11.214  11.180  67.517  1.00  0.00    -0.369 A  
HETATM   16  C   UNL     1     -11.942  10.903  69.824  1.00  0.00    -0.423 A  
HETATM   17  C   UNL     1     -10.592   9.933  67.598  1.00  0.00    -0.325 A  
HETATM   18  C   UNL     1     -10.659   9.172  68.769  1.00  0.00    -0.208 A  
HETATM   19  C   UNL     1     -11.874  11.669  68.650  1.00  0.00    -0.370 A  
HETATM   20  C   UNL     1     -11.353   9.627  69.903  1.00  0.00    -0.200 A  
BRANCH  20  21
HETATM   21  C   UNL     1     -11.496   8.765  71.172  1.00  0.00    -0.344 C  
HETATM   22  C   UNL     1     -10.225   8.768  72.053  1.00  0.00    -0.401 C  
HETATM   23  C   UNL     1     -12.661   9.279  72.042  1.00  0.00    -0.465 C  
HETATM   24  C   UNL     1     -11.772   7.296  70.786  1.00  0.00    -0.333 C  
ENDBRANCH  20  21
ENDBRANCH  14  15
ENDBRANCH   2  14
TORSDOF 5
ENDMDL
MODEL       38
REMARK 921   NORMALIZED FREE ENERGY PREDICTED BY IDOCK:   -5.42 KCAL/MOL
REMARK 922        TOTAL FREE ENERGY PREDICTED BY IDOCK:   -8.78 KCAL/MOL
REMARK 923 INTER-LIGAND FREE ENERGY PREDICTED BY IDOCK:   -8.31 KCAL/MOL
REMARK 924 INTRA-LIGAND FREE ENERGY PREDICTED BY IDOCK:   -0.48 KCAL/MOL
REMARK 927      BINDING AFFINITY PREDICTED BY RF-SCORE:    0.00 PKD
ROOT
HETATM    1  C   UNL     1     -10.422   9.256  71.639  1.00  0.00    -0.258 C  
HETATM    2  N   UNL     1     -11.752   9.173  71.024  1.00  0.00    -0.289 NA 
ENDROOT
BRANCH   2   3
HETATM    3  C   UNL     1     -12.580  10.341  71.393  1.00  0.00    -0.434 C  
BRANCH   3   4
HETATM    4  C   UNL     1     -12.357  11.567  70.518  1.00  0.00    -0.432 A  
HETATM    5  C   UNL     1     -12.622  12.889  70.975  1.00  0.00    -0.376 A  
HETATM    6  C   UNL     1     -11.891  11.363  69.205  1.00  0.00    -0.413 A  
HETATM    7  C   UNL     1     -13.090  13.195  72.271  1.00  0.00    -0.458 A  
HETATM    8  C   UNL     1     -11.693  12.435  68.343  1.00  0.00    -0.386 A  
HETATM    9  C   UNL     1     -13.386  14.502  72.661  1.00  0.00    -0.588 A  
HETATM   10  C   UNL     1     -11.959  13.730  68.778  1.00  0.00    -0.400 A  
HETATM   11  C   UNL     1     -13.203  15.546  71.766  1.00  0.00    -0.567 A  
HETATM   12  C   UNL     1     -12.427  13.971  70.078  1.00  0.00    -0.339 A  
HETATM   13  C   UNL     1     -12.718  15.284  70.487  1.00  0.00    -0.440 A  
ENDBRANCH   3   4
ENDBRANCH   2   3
BRANCH   2  14
HETATM   14  C   UNL     1     -12.456   7.933  71.393  1.00  0.00    -0.309 C  
BRANCH  14  15
HETATM   15  C   UNL     1     -11.636   6.676  71.188  1.00  0.00    -0.384 A  
HETATM   16  C   UNL     1     -10.388   5.147  69.763  1.00  0.00    -0.332 A  
HETATM   17  C   UNL     1     -11.267   5.900  72.288  1.00  0.00    -0.343 A  
HETATM   18  C   UNL     1     -10.455   4.773  72.131  1.00  0.00    -0.243 A  
HETATM   19  C   UNL     1     -11.206   6.276  69.918  1.00  0.00    -0.498 A  
HETATM   20  C   UNL     1      -9.977   4.380  70.870  1.00  0.00    -0.242 A  
BRANCH  20  21
HETATM   21  C   UNL     1      -9.021   3.185  70.696  1.00  0.00    -0.164 C  
HETATM   22  C   UNL     1      -7.597   3.466  71.228  1.00  0.00    -0.047 C  
HETATM   23  C   UNL     1      -9.560   1.953  71.450  1.00  0.00    -0.213 C  
HETATM   24  C   UNL     1      -8.880   2.832  69.200  1.00  0.00    -0.152 C  
ENDBRANCH  20  21
ENDBRANCH  14  15
ENDBRANCH   2  14
TORSDOF 5
ENDMDL
MODEL       39
REMARK 921   NORMALIZED FREE ENERGY PREDICTED BY IDOCK:   -5.40 KCAL/MOL
REMARK 922        TOTAL FREE ENERGY PREDICTED BY IDOCK:   -8.76 KCAL/MOL
REMARK 923 INTER-LIGAND FREE ENERGY PREDICTED BY IDOCK:   -8.08 KCAL/MOL
REMARK 924 INTRA-LIGAND FREE ENERGY PREDICTED BY IDOCK:   -0.69 KCAL/MOL
REMARK 927      BINDING AFFINITY PREDICTED BY RF-SCORE:    0.00 PKD
ROOT
HETATM    1  C   UNL     1     -12.339  12.121  64.221  1.00  0.00    -0.371 C  
HETATM    2  N   UNL     1     -12.335  12.387  65.664  1.00  0.00    -0.621 NA 
ENDROOT
BRANCH   2   3
HETATM    3  C   UNL     1     -12.758  13.774  65.949  1.00  0.00    -0.401 C  
BRANCH   3   4
HETATM    4  C   UNL     1     -11.621  14.703  66.355  1.00  0.00    -0.343 A  
HETATM    5  C   UNL     1     -11.443  15.152  67.694  1.00  0.00    -0.319 A  
HETATM    6  C   UNL     1     -10.738  15.140  65.349  1.00  0.00    -0.396 A  
HETATM    7  C   UNL     1     -12.275  14.770  68.769  1.00  0.00    -0.135 A  
HETATM    8  C   UNL     1      -9.696  16.013  65.644  1.00  0.00    -0.273 A  
HETATM    9  C   UNL     1     -12.095  15.275  70.058  1.00  0.00    -0.386 A  
HETATM   10  C   UNL     1      -9.521  16.465  66.948  1.00  0.00    -0.249 A  
HETATM   11  C   UNL     1     -11.061  16.166  70.311  1.00  0.00    -0.375 A  
HETATM   12  C   UNL     1     -10.383  16.052  67.975  1.00  0.00    -0.266 A  
HETATM   13  C   UNL     1     -10.205  16.544  69.279  1.00  0.00    -0.290 A  
ENDBRANCH   3   4
ENDBRANCH   2   3
BRANCH   2  14
HETATM   14  C   UNL     1     -11.014  12.140  66.269  1.00  0.00    -0.295 C  
BRANCH  14  15
HETATM   15  C   UNL     1     -11.046  11.186  67.445  1.00  0.00    -0.370 A  
HETATM   16  C   UNL     1     -10.404   9.099  68.522  1.00  0.00    -0.236 A  
HETATM   17  C   UNL     1     -11.687  11.560  68.626  1.00  0.00    -0.389 A  
HETATM   18  C   UNL     1     -11.673  10.724  69.747  1.00  0.00    -0.399 A  
HETATM   19  C   UNL     1     -10.420   9.935  67.396  1.00  0.00    -0.325 A  
HETATM   20  C   UNL     1     -11.013   9.484  69.731  1.00  0.00    -0.245 A  
BRANCH  20  21
HETATM   21  C   UNL     1     -10.927   8.590  70.983  1.00  0.00    -0.296 C  
HETATM   22  C   UNL     1     -11.979   8.950  72.058  1.00  0.00    -0.439 C  
HETATM   23  C   UNL     1     -11.146   7.111  70.602  1.00  0.00    -0.294 C  
HETATM   24  C   UNL     1      -9.541   8.735  71.645  1.00  0.00    -0.363 C  
ENDBRANCH  20  21
ENDBRANCH  14  15
ENDBRANCH   2  14
TORSDOF 5
ENDMDL
MODEL       40
REMARK 921   NORMALIZED FREE ENERGY PREDICTED BY IDOCK:   -5.40 KCAL/MOL
REMARK 922        TOTAL FREE ENERGY PREDICTED BY IDOCK:   -8.75 KCAL/MOL
REMARK 923 INTER-LIGAND FREE ENERGY PREDICTED BY IDOCK:   -7.46 KCAL/MOL
REMARK 924 INTRA-LIGAND FREE ENERGY PREDICTED BY IDOCK:   -1.29 KCAL/MOL
REMARK 927      BINDING AFFINITY PREDICTED BY RF-SCORE:    0.00 PKD
ROOT
HETATM    1  C   UNL     1      -8.378   8.296  64.938  1.00  0.00    -0.135 C  
HETATM    2  N   UNL     1      -8.887   9.381  65.784  1.00  0.00    -0.160 NA 
ENDROOT
BRANCH   2   3
HETATM    3  C   UNL     1      -8.676  10.697  65.143  1.00  0.00    -0.186 C  
BRANCH   3   4
HETATM    4  C   UNL     1      -9.954  11.493  64.913  1.00  0.00    -0.303 A  
HETATM    5  C   UNL     1     -10.439  12.446  65.852  1.00  0.00    -0.284 A  
HETATM    6  C   UNL     1     -10.679  11.244  63.732  1.00  0.00    -0.448 A  
HETATM    7  C   UNL     1      -9.784  12.763  67.062  1.00  0.00    -0.224 A  
HETATM    8  C   UNL     1     -11.870  11.914  63.472  1.00  0.00    -0.560 A  
HETATM    9  C   UNL     1     -10.322  13.668  67.978  1.00  0.00    -0.250 A  
HETATM   10  C   UNL     1     -12.357  12.840  64.388  1.00  0.00    -0.498 A  
HETATM   11  C   UNL     1     -11.527  14.298  67.699  1.00  0.00    -0.370 A  
HETATM   12  C   UNL     1     -11.662  13.111  65.577  1.00  0.00    -0.393 A  
HETATM   13  C   UNL     1     -12.187  14.028  66.503  1.00  0.00    -0.485 A  
ENDBRANCH   3   4
ENDBRANCH   2   3
BRANCH   2  14
HETATM   14  C   UNL     1      -8.268   9.380  67.121  1.00  0.00    -0.113 C  
BRANCH  14  15
HETATM   15  C   UNL     1      -9.237   9.080  68.246  1.00  0.00    -0.139 A  
HETATM   16  C   UNL     1     -10.754   7.579  69.417  1.00  0.00    -0.200 A  
HETATM   17  C   UNL     1      -9.447  10.025  69.252  1.00  0.00    -0.227 A  
HETATM   18  C   UNL     1     -10.286   9.745  70.335  1.00  0.00    -0.354 A  
HETATM   19  C   UNL     1      -9.916   7.859  68.328  1.00  0.00    -0.204 A  
HETATM   20  C   UNL     1     -10.942   8.509  70.458  1.00  0.00    -0.263 A  
BRANCH  20  21
HETATM   21  C   UNL     1     -11.808   8.163  71.684  1.00  0.00    -0.334 C  
HETATM   22  C   UNL     1     -12.784   9.297  72.076  1.00  0.00    -0.479 C  
HETATM   23  C   UNL     1     -12.653   6.903  71.406  1.00  0.00    -0.400 C  
HETATM   24  C   UNL     1     -10.908   7.900  72.911  1.00  0.00    -0.451 C  
ENDBRANCH  20  21
ENDBRANCH  14  15
ENDBRANCH   2  14
TORSDOF 5
ENDMDL
MODEL       41
REMARK 921   NORMALIZED FREE ENERGY PREDICTED BY IDOCK:   -5.36 KCAL/MOL
REMARK 922        TOTAL FREE ENERGY PREDICTED BY IDOCK:   -8.71 KCAL/MOL
REMARK 923 INTER-LIGAND FREE ENERGY PREDICTED BY IDOCK:   -7.02 KCAL/MOL
REMARK 924 INTRA-LIGAND FREE ENERGY PREDICTED BY IDOCK:   -1.69 KCAL/MOL
REMARK 927      BINDING AFFINITY PREDICTED BY RF-SCORE:    0.00 PKD
ROOT
HETATM    1  C   UNL     1     -14.393   8.614  72.477  1.00  0.00    -0.259 C  
HETATM    2  N   UNL     1     -13.089   9.228  72.205  1.00  0.00    -0.418 NA 
ENDROOT
BRANCH   2   3
HETATM    3  C   UNL     1     -13.086   9.906  70.891  1.00  0.00    -0.274 C  
BRANCH   3   4
HETATM    4  C   UNL     1     -12.874  11.412  70.964  1.00  0.00    -0.381 A  
HETATM    5  C   UNL     1     -12.150  12.131  69.972  1.00  0.00    -0.352 A  
HETATM    6  C   UNL     1     -13.404  12.097  72.075  1.00  0.00    -0.470 A  
HETATM    7  C   UNL     1     -11.583  11.534  68.825  1.00  0.00    -0.379 A  
HETATM    8  C   UNL     1     -13.222  13.468  72.221  1.00  0.00    -0.571 A  
HETATM    9  C   UNL     1     -10.836  12.268  67.902  1.00  0.00    -0.252 A  
HETATM   10  C   UNL     1     -12.507  14.176  71.260  1.00  0.00    -0.446 A  
HETATM   11  C   UNL     1     -10.651  13.630  68.093  1.00  0.00    -0.255 A  
HETATM   12  C   UNL     1     -11.963  13.527  70.142  1.00  0.00    -0.399 A  
HETATM   13  C   UNL     1     -11.219  14.257  69.200  1.00  0.00    -0.302 A  
ENDBRANCH   3   4
ENDBRANCH   2   3
BRANCH   2  14
HETATM   14  C   UNL     1     -11.992   8.246  72.255  1.00  0.00    -0.386 C  
BRANCH  14  15
HETATM   15  C   UNL     1     -10.985   8.392  71.133  1.00  0.00    -0.292 A  
HETATM   16  C   UNL     1     -10.245   7.956  68.855  1.00  0.00    -0.215 A  
HETATM   17  C   UNL     1      -9.867   9.209  71.305  1.00  0.00    -0.363 A  
HETATM   18  C   UNL     1      -8.959   9.412  70.261  1.00  0.00    -0.277 A  
HETATM   19  C   UNL     1     -11.156   7.749  69.902  1.00  0.00    -0.142 A  
HETATM   20  C   UNL     1      -9.136   8.809  69.005  1.00  0.00    -0.141 A  
BRANCH  20  21
HETATM   21  C   UNL     1      -8.183   9.085  67.826  1.00  0.00    -0.109 C  
HETATM   22  C   UNL     1      -8.901   9.094  66.456  1.00  0.00    -0.156 C  
HETATM   23  C   UNL     1      -7.501  10.458  67.998  1.00  0.00    -0.090 C  
HETATM   24  C   UNL     1      -7.095   7.993  67.757  1.00  0.00    -0.086 C  
ENDBRANCH  20  21
ENDBRANCH  14  15
ENDBRANCH   2  14
TORSDOF 5
ENDMDL
MODEL       42
REMARK 921   NORMALIZED FREE ENERGY PREDICTED BY IDOCK:   -5.35 KCAL/MOL
REMARK 922        TOTAL FREE ENERGY PREDICTED BY IDOCK:   -8.69 KCAL/MOL
REMARK 923 INTER-LIGAND FREE ENERGY PREDICTED BY IDOCK:   -7.51 KCAL/MOL
REMARK 924 INTRA-LIGAND FREE ENERGY PREDICTED BY IDOCK:   -1.18 KCAL/MOL
REMARK 927      BINDING AFFINITY PREDICTED BY RF-SCORE:    0.00 PKD
ROOT
HETATM    1  C   UNL     1      -7.001  10.591  66.452  1.00  0.00    -0.124 C  
HETATM    2  N   UNL     1      -8.031  11.191  67.308  1.00  0.00    -0.131 NA 
ENDROOT
BRANCH   2   3
HETATM    3  C   UNL     1      -8.243  12.613  66.965  1.00  0.00    -0.108 C  
BRANCH   3   4
HETATM    4  C   UNL     1      -9.707  13.024  66.879  1.00  0.00    -0.238 A  
HETATM    5  C   UNL     1     -10.535  12.675  65.775  1.00  0.00    -0.299 A  
HETATM    6  C   UNL     1     -10.236  13.796  67.931  1.00  0.00    -0.245 A  
HETATM    7  C   UNL     1     -10.096  11.906  64.675  1.00  0.00    -0.301 A  
HETATM    8  C   UNL     1     -11.557  14.230  67.903  1.00  0.00    -0.367 A  
HETATM    9  C   UNL     1     -10.927  11.629  63.588  1.00  0.00    -0.507 A  
HETATM   10  C   UNL     1     -12.370  13.902  66.823  1.00  0.00    -0.370 A  
HETATM   11  C   UNL     1     -12.232  12.101  63.581  1.00  0.00    -0.663 A  
HETATM   12  C   UNL     1     -11.876  13.137  65.756  1.00  0.00    -0.442 A  
HETATM   13  C   UNL     1     -12.706  12.842  64.661  1.00  0.00    -0.439 A  
ENDBRANCH   3   4
ENDBRANCH   2   3
BRANCH   2  14
HETATM   14  C   UNL     1      -7.699  11.074  68.739  1.00  0.00    -0.135 C  
BRANCH  14  15
HETATM   15  C   UNL     1      -8.681  10.234  69.529  1.00  0.00    -0.155 A  
HETATM   16  C   UNL     1      -9.199   8.685  71.335  1.00  0.00    -0.303 A  
HETATM   17  C   UNL     1     -10.045  10.304  69.242  1.00  0.00    -0.244 A  
HETATM   18  C   UNL     1     -10.976   9.589  70.002  1.00  0.00    -0.284 A  
HETATM   19  C   UNL     1      -8.263   9.399  70.573  1.00  0.00    -0.221 A  
HETATM   20  C   UNL     1     -10.580   8.780  71.080  1.00  0.00    -0.293 A  
BRANCH  20  21
HETATM   21  C   UNL     1     -11.603   8.048  71.969  1.00  0.00    -0.369 C  
HETATM   22  C   UNL     1     -12.751   8.965  72.453  1.00  0.00    -0.436 C  
HETATM   23  C   UNL     1     -12.244   6.876  71.197  1.00  0.00    -0.428 C  
HETATM   24  C   UNL     1     -10.908   7.494  73.231  1.00  0.00    -0.409 C  
ENDBRANCH  20  21
ENDBRANCH  14  15
ENDBRANCH   2  14
TORSDOF 5
ENDMDL
MODEL       43
REMARK 921   NORMALIZED FREE ENERGY PREDICTED BY IDOCK:   -5.33 KCAL/MOL
REMARK 922        TOTAL FREE ENERGY PREDICTED BY IDOCK:   -8.67 KCAL/MOL
REMARK 923 INTER-LIGAND FREE ENERGY PREDICTED BY IDOCK:   -7.75 KCAL/MOL
REMARK 924 INTRA-LIGAND FREE ENERGY PREDICTED BY IDOCK:   -0.92 KCAL/MOL
REMARK 927      BINDING AFFINITY PREDICTED BY RF-SCORE:    0.00 PKD
ROOT
HETATM    1  C   UNL     1     -10.629   7.993  72.651  1.00  0.00    -0.350 C  
HETATM    2  N   UNL     1     -11.299   8.193  71.361  1.00  0.00    -0.252 NA 
ENDROOT
BRANCH   2   3
HETATM    3  C   UNL     1     -12.284   9.293  71.439  1.00  0.00    -0.349 C  
BRANCH   3   4
HETATM    4  C   UNL     1     -11.906  10.528  70.633  1.00  0.00    -0.458 A  
HETATM    5  C   UNL     1     -12.393  11.827  70.953  1.00  0.00    -0.420 A  
HETATM    6  C   UNL     1     -11.062  10.354  69.519  1.00  0.00    -0.314 A  
HETATM    7  C   UNL     1     -13.243  12.102  72.046  1.00  0.00    -0.496 A  
HETATM    8  C   UNL     1     -10.701  11.434  68.721  1.00  0.00    -0.240 A  
HETATM    9  C   UNL     1     -13.737  13.383  72.294  1.00  0.00    -0.705 A  
HETATM   10  C   UNL     1     -11.180  12.705  69.021  1.00  0.00    -0.322 A  
HETATM   11  C   UNL     1     -13.379  14.434  71.461  1.00  0.00    -0.430 A  
HETATM   12  C   UNL     1     -12.025  12.916  70.121  1.00  0.00    -0.373 A  
HETATM   13  C   UNL     1     -12.521  14.203  70.388  1.00  0.00    -0.424 A  
ENDBRANCH   3   4
ENDBRANCH   2   3
BRANCH   2  14
HETATM   14  C   UNL     1     -11.967   6.968  70.887  1.00  0.00    -0.364 C  
BRANCH  14  15
HETATM   15  C   UNL     1     -11.196   6.223  69.817  1.00  0.00    -0.499 A  
HETATM   16  C   UNL     1     -10.429   5.971  67.520  1.00  0.00    -0.302 A  
HETATM   17  C   UNL     1     -10.426   5.111  70.162  1.00  0.00    -0.305 A  
HETATM   18  C   UNL     1      -9.654   4.448  69.203  1.00  0.00    -0.252 A  
HETATM   19  C   UNL     1     -11.207   6.636  68.479  1.00  0.00    -0.227 A  
HETATM   20  C   UNL     1      -9.618   4.873  67.864  1.00  0.00    -0.186 A  
BRANCH  20  21
HETATM   21  C   UNL     1      -8.713   4.196  66.817  1.00  0.00    -0.114 C  
HETATM   22  C   UNL     1      -8.771   4.882  65.433  1.00  0.00    -0.143 C  
HETATM   23  C   UNL     1      -7.243   4.221  67.283  1.00  0.00    -0.068 C  
HETATM   24  C   UNL     1      -9.147   2.729  66.611  1.00  0.00    -0.153 C  
ENDBRANCH  20  21
ENDBRANCH  14  15
ENDBRANCH   2  14
TORSDOF 5
ENDMDL
MODEL       44
REMARK 921   NORMALIZED FREE ENERGY PREDICTED BY IDOCK:   -5.32 KCAL/MOL
REMARK 922        TOTAL FREE ENERGY PREDICTED BY IDOCK:   -8.66 KCAL/MOL
REMARK 923 INTER-LIGAND FREE ENERGY PREDICTED BY IDOCK:   -7.88 KCAL/MOL
REMARK 924 INTRA-LIGAND FREE ENERGY PREDICTED BY IDOCK:   -0.78 KCAL/MOL
REMARK 927      BINDING AFFINITY PREDICTED BY RF-SCORE:    0.00 PKD
ROOT
HETATM    1  C   UNL     1     -12.298  12.452  63.521  1.00  0.00    -0.546 C  
HETATM    2  N   UNL     1     -12.184  12.438  64.983  1.00  0.00    -0.469 NA 
ENDROOT
BRANCH   2   3
HETATM    3  C   UNL     1     -12.722  13.685  65.569  1.00  0.00    -0.466 C  
BRANCH   3   4
HETATM    4  C   UNL     1     -11.659  14.629  66.114  1.00  0.00    -0.332 A  
HETATM    5  C   UNL     1     -11.422  14.789  67.508  1.00  0.00    -0.369 A  
HETATM    6  C   UNL     1     -10.910  15.380  65.188  1.00  0.00    -0.447 A  
HETATM    7  C   UNL     1     -12.120  14.083  68.512  1.00  0.00    -0.329 A  
HETATM    8  C   UNL     1      -9.944  16.284  65.617  1.00  0.00    -0.306 A  
HETATM    9  C   UNL     1     -11.891  14.307  69.870  1.00  0.00    -0.382 A  
HETATM   10  C   UNL     1      -9.712  16.453  66.978  1.00  0.00    -0.253 A  
HETATM   11  C   UNL     1     -10.938  15.237  70.263  1.00  0.00    -0.313 A  
HETATM   12  C   UNL     1     -10.441  15.724  67.930  1.00  0.00    -0.270 A  
HETATM   13  C   UNL     1     -10.212  15.933  69.300  1.00  0.00    -0.250 A  
ENDBRANCH   3   4
ENDBRANCH   2   3
BRANCH   2  14
HETATM   14  C   UNL     1     -10.793  12.245  65.429  1.00  0.00    -0.286 C  
BRANCH  14  15
HETATM   15  C   UNL     1     -10.574  10.978  66.229  1.00  0.00    -0.295 A  
HETATM   16  C   UNL     1     -10.901   9.630  68.230  1.00  0.00    -0.230 A  
HETATM   17  C   UNL     1      -9.902   9.899  65.651  1.00  0.00    -0.368 A  
HETATM   18  C   UNL     1      -9.747   8.696  66.346  1.00  0.00    -0.333 A  
HETATM   19  C   UNL     1     -11.055  10.839  67.536  1.00  0.00    -0.374 A  
HETATM   20  C   UNL     1     -10.260   8.523  67.642  1.00  0.00    -0.297 A  
BRANCH  20  21
HETATM   21  C   UNL     1     -10.160   7.177  68.386  1.00  0.00    -0.182 C  
HETATM   22  C   UNL     1      -8.714   6.634  68.463  1.00  0.00    -0.123 C  
HETATM   23  C   UNL     1     -10.673   7.325  69.833  1.00  0.00    -0.257 C  
HETATM   24  C   UNL     1     -11.005   6.107  67.663  1.00  0.00    -0.400 C  
ENDBRANCH  20  21
ENDBRANCH  14  15
ENDBRANCH   2  14
TORSDOF 5
ENDMDL
MODEL       45
REMARK 921   NORMALIZED FREE ENERGY PREDICTED BY IDOCK:   -5.31 KCAL/MOL
REMARK 922        TOTAL FREE ENERGY PREDICTED BY IDOCK:   -8.65 KCAL/MOL
REMARK 923 INTER-LIGAND FREE ENERGY PREDICTED BY IDOCK:   -6.75 KCAL/MOL
REMARK 924 INTRA-LIGAND FREE ENERGY PREDICTED BY IDOCK:   -1.89 KCAL/MOL
REMARK 927      BINDING AFFINITY PREDICTED BY RF-SCORE:    0.00 PKD
ROOT
HETATM    1  C   UNL     1     -11.078   8.159  72.626  1.00  0.00    -0.380 C  
HETATM    2  N   UNL     1     -11.002   8.518  71.206  1.00  0.00    -0.243 NA 
ENDROOT
BRANCH   2   3
HETATM    3  C   UNL     1     -12.305   9.014  70.714  1.00  0.00    -0.021 C  
BRANCH   3   4
HETATM    4  C   UNL     1     -12.462  10.528  70.778  1.00  0.00    -0.472 A  
HETATM    5  C   UNL     1     -12.026  11.386  69.730  1.00  0.00    -0.422 A  
HETATM    6  C   UNL     1     -13.043  11.080  71.936  1.00  0.00    -0.525 A  
HETATM    7  C   UNL     1     -11.432  10.928  68.534  1.00  0.00    -0.380 A  
HETATM    8  C   UNL     1     -13.191  12.456  72.074  1.00  0.00    -0.514 A  
HETATM    9  C   UNL     1     -10.972  11.808  67.553  1.00  0.00    -0.310 A  
HETATM   10  C   UNL     1     -12.758  13.302  71.059  1.00  0.00    -0.374 A  
HETATM   11  C   UNL     1     -11.110  13.177  67.735  1.00  0.00    -0.287 A  
HETATM   12  C   UNL     1     -12.172  12.788  69.893  1.00  0.00    -0.245 A  
HETATM   13  C   UNL     1     -11.714  13.662  68.892  1.00  0.00    -0.377 A  
ENDBRANCH   3   4
ENDBRANCH   2   3
BRANCH   2  14
HETATM   14  C   UNL     1     -10.558   7.388  70.371  1.00  0.00    -0.228 C  
BRANCH  14  15
HETATM   15  C   UNL     1      -9.973   7.803  69.037  1.00  0.00    -0.182 A  
HETATM   16  C   UNL     1     -10.073   7.932  66.608  1.00  0.00    -0.310 A  
HETATM   17  C   UNL     1      -8.799   8.556  68.997  1.00  0.00    -0.145 A  
HETATM   18  C   UNL     1      -8.278   9.007  67.780  1.00  0.00    -0.109 A  
HETATM   19  C   UNL     1     -10.596   7.476  67.826  1.00  0.00    -0.274 A  
HETATM   20  C   UNL     1      -8.911   8.726  66.558  1.00  0.00    -0.156 A  
BRANCH  20  21
HETATM   21  C   UNL     1      -8.386   9.281  65.221  1.00  0.00    -0.151 C  
HETATM   22  C   UNL     1      -7.183  10.238  65.393  1.00  0.00    -0.143 C  
HETATM   23  C   UNL     1      -7.930   8.128  64.303  1.00  0.00    -0.144 C  
HETATM   24  C   UNL     1      -9.496  10.080  64.505  1.00  0.00    -0.359 C  
ENDBRANCH  20  21
ENDBRANCH  14  15
ENDBRANCH   2  14
TORSDOF 5
ENDMDL
MODEL       46
REMARK 921   NORMALIZED FREE ENERGY PREDICTED BY IDOCK:   -5.28 KCAL/MOL
REMARK 922        TOTAL FREE ENERGY PREDICTED BY IDOCK:   -8.61 KCAL/MOL
REMARK 923 INTER-LIGAND FREE ENERGY PREDICTED BY IDOCK:   -7.82 KCAL/MOL
REMARK 924 INTRA-LIGAND FREE ENERGY PREDICTED BY IDOCK:   -0.78 KCAL/MOL
REMARK 927      BINDING AFFINITY PREDICTED BY RF-SCORE:    0.00 PKD
ROOT
HETATM    1  C   UNL     1     -13.728   8.636  71.860  1.00  0.00    -0.421 C  
HETATM    2  N   UNL     1     -12.550   9.379  71.399  1.00  0.00    -0.332 NA 
ENDROOT
BRANCH   2   3
HETATM    3  C   UNL     1     -11.334   8.944  72.119  1.00  0.00    -0.299 C  
BRANCH   3   4
HETATM    4  C   UNL     1     -11.001   7.468  71.949  1.00  0.00    -0.272 A  
HETATM    5  C   UNL     1     -10.681   6.898  70.685  1.00  0.00    -0.267 A  
HETATM    6  C   UNL     1     -11.038   6.650  73.095  1.00  0.00    -0.204 A  
HETATM    7  C   UNL     1     -10.619   7.636  69.482  1.00  0.00    -0.227 A  
HETATM    8  C   UNL     1     -10.773   5.287  73.007  1.00  0.00    -0.305 A  
HETATM    9  C   UNL     1     -10.351   7.027  68.256  1.00  0.00    -0.223 A  
HETATM   10  C   UNL     1     -10.469   4.720  71.774  1.00  0.00    -0.182 A  
HETATM   11  C   UNL     1     -10.118   5.660  68.200  1.00  0.00    -0.212 A  
HETATM   12  C   UNL     1     -10.426   5.504  70.611  1.00  0.00    -0.342 A  
HETATM   13  C   UNL     1     -10.146   4.906  69.371  1.00  0.00    -0.270 A  
ENDBRANCH   3   4
ENDBRANCH   2   3
BRANCH   2  14
HETATM   14  C   UNL     1     -12.718  10.835  71.550  1.00  0.00    -0.431 C  
BRANCH  14  15
HETATM   15  C   UNL     1     -12.281  11.633  70.339  1.00  0.00    -0.434 A  
HETATM   16  C   UNL     1     -11.642  11.781  67.994  1.00  0.00    -0.386 A  
HETATM   17  C   UNL     1     -12.203  13.024  70.415  1.00  0.00    -0.386 A  
HETATM   18  C   UNL     1     -11.866  13.785  69.292  1.00  0.00    -0.392 A  
HETATM   19  C   UNL     1     -11.977  11.014  69.120  1.00  0.00    -0.394 A  
HETATM   20  C   UNL     1     -11.599  13.187  68.049  1.00  0.00    -0.371 A  
BRANCH  20  21
HETATM   21  C   UNL     1     -11.301  14.021  66.789  1.00  0.00    -0.346 C  
HETATM   22  C   UNL     1     -11.021  15.510  67.100  1.00  0.00    -0.295 C  
HETATM   23  C   UNL     1     -10.063  13.463  66.057  1.00  0.00    -0.308 C  
HETATM   24  C   UNL     1     -12.509  13.982  65.829  1.00  0.00    -0.523 C  
ENDBRANCH  20  21
ENDBRANCH  14  15
ENDBRANCH   2  14
TORSDOF 5
ENDMDL
MODEL       47
REMARK 921   NORMALIZED FREE ENERGY PREDICTED BY IDOCK:   -5.28 KCAL/MOL
REMARK 922        TOTAL FREE ENERGY PREDICTED BY IDOCK:   -8.60 KCAL/MOL
REMARK 923 INTER-LIGAND FREE ENERGY PREDICTED BY IDOCK:   -7.81 KCAL/MOL
REMARK 924 INTRA-LIGAND FREE ENERGY PREDICTED BY IDOCK:   -0.79 KCAL/MOL
REMARK 927      BINDING AFFINITY PREDICTED BY RF-SCORE:    0.00 PKD
ROOT
HETATM    1  C   UNL     1     -12.335  14.703  64.626  1.00  0.00    -0.375 C  
HETATM    2  N   UNL     1     -11.328  13.792  65.181  1.00  0.00    -0.303 NA 
ENDROOT
BRANCH   2   3
HETATM    3  C   UNL     1     -11.763  12.384  65.062  1.00  0.00    -0.371 C  
BRANCH   3   4
HETATM    4  C   UNL     1     -10.694  11.442  64.524  1.00  0.00    -0.391 A  
HETATM    5  C   UNL     1     -10.139  10.391  65.307  1.00  0.00    -0.370 A  
HETATM    6  C   UNL     1     -10.235  11.650  63.209  1.00  0.00    -0.445 A  
HETATM    7  C   UNL     1     -10.533  10.105  66.633  1.00  0.00    -0.254 A  
HETATM    8  C   UNL     1      -9.240  10.846  62.665  1.00  0.00    -0.357 A  
HETATM    9  C   UNL     1      -9.926   9.096  67.382  1.00  0.00    -0.262 A  
HETATM   10  C   UNL     1      -8.685   9.823  63.427  1.00  0.00    -0.235 A  
HETATM   11  C   UNL     1      -8.917   8.329  66.817  1.00  0.00    -0.174 A  
HETATM   12  C   UNL     1      -9.116   9.588  64.741  1.00  0.00    -0.271 A  
HETATM   13  C   UNL     1      -8.521   8.568  65.503  1.00  0.00    -0.183 A  
ENDBRANCH   3   4
ENDBRANCH   2   3
BRANCH   2  14
HETATM   14  C   UNL     1     -11.022  14.096  66.590  1.00  0.00    -0.303 C  
BRANCH  14  15
HETATM   15  C   UNL     1     -10.338  15.431  66.796  1.00  0.00    -0.279 A  
HETATM   16  C   UNL     1      -8.622  17.064  66.232  1.00  0.00    -0.298 A  
HETATM   17  C   UNL     1     -10.866  16.349  67.706  1.00  0.00    -0.306 A  
HETATM   18  C   UNL     1     -10.291  17.614  67.864  1.00  0.00    -0.371 A  
HETATM   19  C   UNL     1      -9.195  15.793  66.073  1.00  0.00    -0.379 A  
HETATM   20  C   UNL     1      -9.170  18.012  67.118  1.00  0.00    -0.256 A  
BRANCH  20  21
HETATM   21  C   UNL     1      -8.575  19.428  67.231  1.00  0.00    -0.329 C  
HETATM   22  C   UNL     1      -9.653  20.528  67.366  1.00  0.00    -0.578 C  
HETATM   23  C   UNL     1      -7.657  19.528  68.466  1.00  0.00    -0.378 C  
HETATM   24  C   UNL     1      -7.751  19.759  65.968  1.00  0.00    -0.340 C  
ENDBRANCH  20  21
ENDBRANCH  14  15
ENDBRANCH   2  14
TORSDOF 5
ENDMDL
MODEL       48
REMARK 921   NORMALIZED FREE ENERGY PREDICTED BY IDOCK:   -5.27 KCAL/MOL
REMARK 922        TOTAL FREE ENERGY PREDICTED BY IDOCK:   -8.59 KCAL/MOL
REMARK 923 INTER-LIGAND FREE ENERGY PREDICTED BY IDOCK:   -7.07 KCAL/MOL
REMARK 924 INTRA-LIGAND FREE ENERGY PREDICTED BY IDOCK:   -1.52 KCAL/MOL
REMARK 927      BINDING AFFINITY PREDICTED BY RF-SCORE:    0.00 PKD
ROOT
HETATM    1  C   UNL     1     -10.435  13.010  63.971  1.00  0.00    -0.312 C  
HETATM    2  N   UNL     1     -10.724  13.779  65.186  1.00  0.00    -0.336 NA 
ENDROOT
BRANCH   2   3
HETATM    3  C   UNL     1     -12.026  13.386  65.766  1.00  0.00    -0.407 C  
BRANCH   3   4
HETATM    4  C   UNL     1     -11.948  12.901  67.207  1.00  0.00    -0.371 A  
HETATM    5  C   UNL     1     -11.950  13.795  68.315  1.00  0.00    -0.392 A  
HETATM    6  C   UNL     1     -11.848  11.514  67.430  1.00  0.00    -0.108 A  
HETATM    7  C   UNL     1     -12.046  15.199  68.193  1.00  0.00    -0.009 A  
HETATM    8  C   UNL     1     -11.743  11.004  68.720  1.00  0.00    -0.383 A  
HETATM    9  C   UNL     1     -11.993  16.042  69.303  1.00  0.00    -0.188 A  
HETATM   10  C   UNL     1     -11.734  11.872  69.807  1.00  0.00    -0.403 A  
HETATM   11  C   UNL     1     -11.860  15.501  70.575  1.00  0.00    -0.388 A  
HETATM   12  C   UNL     1     -11.829  13.259  69.623  1.00  0.00    -0.391 A  
HETATM   13  C   UNL     1     -11.788  14.119  70.734  1.00  0.00    -0.313 A  
ENDBRANCH   3   4
ENDBRANCH   2   3
BRANCH   2  14
HETATM   14  C   UNL     1     -10.714  15.232  64.939  1.00  0.00    -0.400 C  
BRANCH  14  15
HETATM   15  C   UNL     1      -9.790  16.005  65.857  1.00  0.00    -0.380 A  
HETATM   16  C   UNL     1      -7.859  16.130  67.334  1.00  0.00    -0.180 A  
HETATM   17  C   UNL     1      -9.955  17.382  66.009  1.00  0.00    -0.230 A  
HETATM   18  C   UNL     1      -9.074  18.127  66.799  1.00  0.00    -0.287 A  
HETATM   19  C   UNL     1      -8.743  15.380  66.545  1.00  0.00    -0.335 A  
HETATM   20  C   UNL     1      -7.992  17.526  67.462  1.00  0.00    -0.210 A  
BRANCH  20  21
HETATM   21  C   UNL     1      -6.972  18.348  68.273  1.00  0.00    -0.257 C  
HETATM   22  C   UNL     1      -5.804  18.882  67.412  1.00  0.00    -0.166 C  
HETATM   23  C   UNL     1      -7.661  19.566  68.922  1.00  0.00    -0.383 C  
HETATM   24  C   UNL     1      -6.350  17.476  69.384  1.00  0.00    -0.246 C  
ENDBRANCH  20  21
ENDBRANCH  14  15
ENDBRANCH   2  14
TORSDOF 5
ENDMDL
MODEL       49
REMARK 921   NORMALIZED FREE ENERGY PREDICTED BY IDOCK:   -5.26 KCAL/MOL
REMARK 922        TOTAL FREE ENERGY PREDICTED BY IDOCK:   -8.58 KCAL/MOL
REMARK 923 INTER-LIGAND FREE ENERGY PREDICTED BY IDOCK:   -7.83 KCAL/MOL
REMARK 924 INTRA-LIGAND FREE ENERGY PREDICTED BY IDOCK:   -0.75 KCAL/MOL
REMARK 927      BINDING AFFINITY PREDICTED BY RF-SCORE:    0.00 PKD
ROOT
HETATM    1  C   UNL     1     -11.853  14.044  66.927  1.00  0.00    -0.430 C  
HETATM    2  N   UNL     1     -11.267  13.537  68.172  1.00  0.00    -0.259 NA 
ENDROOT
BRANCH   2   3
HETATM    3  C   UNL     1     -11.975  12.325  68.637  1.00  0.00    -0.227 C  
BRANCH   3   4
HETATM    4  C   UNL     1     -11.068  11.268  69.252  1.00  0.00    -0.314 A  
HETATM    5  C   UNL     1     -11.501  10.404  70.297  1.00  0.00    -0.406 A  
HETATM    6  C   UNL     1      -9.747  11.174  68.771  1.00  0.00    -0.194 A  
HETATM    7  C   UNL     1     -12.803  10.422  70.844  1.00  0.00    -0.482 A  
HETATM    8  C   UNL     1      -8.856  10.252  69.308  1.00  0.00    -0.186 A  
HETATM    9  C   UNL     1     -13.170   9.591  71.903  1.00  0.00    -0.524 A  
HETATM   10  C   UNL     1      -9.269   9.410  70.336  1.00  0.00    -0.305 A  
HETATM   11  C   UNL     1     -12.247   8.700  72.434  1.00  0.00    -0.419 A  
HETATM   12  C   UNL     1     -10.575   9.477  70.842  1.00  0.00    -0.395 A  
HETATM   13  C   UNL     1     -10.962   8.638  71.900  1.00  0.00    -0.412 A  
ENDBRANCH   3   4
ENDBRANCH   2   3
BRANCH   2  14
HETATM   14  C   UNL     1     -11.274  14.551  69.241  1.00  0.00    -0.281 C  
BRANCH  14  15
HETATM   15  C   UNL     1     -10.323  15.705  68.999  1.00  0.00    -0.225 A  
HETATM   16  C   UNL     1      -8.074  16.616  68.798  1.00  0.00    -0.247 A  
HETATM   17  C   UNL     1     -10.827  16.957  68.639  1.00  0.00    -0.314 A  
HETATM   18  C   UNL     1      -9.966  18.019  68.346  1.00  0.00    -0.382 A  
HETATM   19  C   UNL     1      -8.935  15.550  69.096  1.00  0.00    -0.256 A  
HETATM   20  C   UNL     1      -8.570  17.871  68.396  1.00  0.00    -0.296 A  
BRANCH  20  21
HETATM   21  C   UNL     1      -7.614  19.013  68.002  1.00  0.00    -0.300 C  
HETATM   22  C   UNL     1      -6.497  18.560  67.034  1.00  0.00    -0.198 C  
HETATM   23  C   UNL     1      -8.393  20.149  67.308  1.00  0.00    -0.394 C  
HETATM   24  C   UNL     1      -6.919  19.579  69.258  1.00  0.00    -0.385 C  
ENDBRANCH  20  21
ENDBRANCH  14  15
ENDBRANCH   2  14
TORSDOF 5
ENDMDL
MODEL       50
REMARK 921   NORMALIZED FREE ENERGY PREDICTED BY IDOCK:   -5.24 KCAL/MOL
REMARK 922        TOTAL FREE ENERGY PREDICTED BY IDOCK:   -8.55 KCAL/MOL
REMARK 923 INTER-LIGAND FREE ENERGY PREDICTED BY IDOCK:   -7.60 KCAL/MOL
REMARK 924 INTRA-LIGAND FREE ENERGY PREDICTED BY IDOCK:   -0.95 KCAL/MOL
REMARK 927      BINDING AFFINITY PREDICTED BY RF-SCORE:    0.00 PKD
ROOT
HETATM    1  C   UNL     1     -12.248  12.817  63.391  1.00  0.00    -0.504 C  
HETATM    2  N   UNL     1     -11.418  13.009  64.586  1.00  0.00    -0.322 NA 
ENDROOT
BRANCH   2   3
HETATM    3  C   UNL     1     -11.164  14.445  64.830  1.00  0.00    -0.387 C  
BRANCH   3   4
HETATM    4  C   UNL     1     -11.279  14.861  66.290  1.00  0.00    -0.331 A  
HETATM    5  C   UNL     1     -10.679  16.049  66.795  1.00  0.00    -0.259 A  
HETATM    6  C   UNL     1     -11.990  14.013  67.161  1.00  0.00    -0.465 A  
HETATM    7  C   UNL     1      -9.947  16.959  66.002  1.00  0.00    -0.313 A  
HETATM    8  C   UNL     1     -12.109  14.317  68.513  1.00  0.00    -0.295 A  
HETATM    9  C   UNL     1      -9.332  18.086  66.548  1.00  0.00    -0.294 A  
HETATM   10  C   UNL     1     -11.518  15.471  69.017  1.00  0.00    -0.361 A  
HETATM   11  C   UNL     1      -9.448  18.345  67.907  1.00  0.00    -0.299 A  
HETATM   12  C   UNL     1     -10.799  16.337  68.179  1.00  0.00    -0.342 A  
HETATM   13  C   UNL     1     -10.185  17.482  68.715  1.00  0.00    -0.373 A  
ENDBRANCH   3   4
ENDBRANCH   2   3
BRANCH   2  14
HETATM   14  C   UNL     1     -10.135  12.290  64.492  1.00  0.00    -0.254 C  
BRANCH  14  15
HETATM   15  C   UNL     1     -10.059  11.053  65.363  1.00  0.00    -0.326 A  
HETATM   16  C   UNL     1     -10.677   9.803  67.358  1.00  0.00    -0.314 A  
HETATM   17  C   UNL     1      -9.353   9.934  64.919  1.00  0.00    -0.329 A  
HETATM   18  C   UNL     1      -9.324   8.758  65.676  1.00  0.00    -0.219 A  
HETATM   19  C   UNL     1     -10.705  10.984  66.602  1.00  0.00    -0.305 A  
HETATM   20  C   UNL     1     -10.002   8.655  66.902  1.00  0.00    -0.330 A  
BRANCH  20  21
HETATM   21  C   UNL     1     -10.038   7.341  67.705  1.00  0.00    -0.225 C  
HETATM   22  C   UNL     1      -8.681   6.600  67.716  1.00  0.00    -0.116 C  
HETATM   23  C   UNL     1     -10.421   7.621  69.173  1.00  0.00    -0.220 C  
HETATM   24  C   UNL     1     -11.074   6.374  67.094  1.00  0.00    -0.422 C  
ENDBRANCH  20  21
ENDBRANCH  14  15
ENDBRANCH   2  14
TORSDOF 5
ENDMDL
MODEL       51
REMARK 921   NORMALIZED FREE ENERGY PREDICTED BY IDOCK:   -5.23 KCAL/MOL
REMARK 922        TOTAL FREE ENERGY PREDICTED BY IDOCK:   -8.54 KCAL/MOL
REMARK 923 INTER-LIGAND FREE ENERGY PREDICTED BY IDOCK:   -7.81 KCAL/MOL
REMARK 924 INTRA-LIGAND FREE ENERGY PREDICTED BY IDOCK:   -0.73 KCAL/MOL
REMARK 927      BINDING AFFINITY PREDICTED BY RF-SCORE:    0.00 PKD
ROOT
HETATM    1  C   UNL     1     -11.263   7.251  70.304  1.00  0.00    -0.262 C  
HETATM    2  N   UNL     1     -11.538   8.362  71.222  1.00  0.00    -0.276 NA 
ENDROOT
BRANCH   2   3
HETATM    3  C   UNL     1     -11.617   7.888  72.620  1.00  0.00    -0.377 C  
BRANCH   3   4
HETATM    4  C   UNL     1     -10.334   7.250  73.137  1.00  0.00    -0.359 A  
HETATM    5  C   UNL     1     -10.242   5.864  73.448  1.00  0.00    -0.225 A  
HETATM    6  C   UNL     1      -9.216   8.085  73.330  1.00  0.00    -0.347 A  
HETATM    7  C   UNL     1     -11.306   4.950  73.290  1.00  0.00    -0.408 A  
HETATM    8  C   UNL     1      -8.022   7.574  73.827  1.00  0.00    -0.173 A  
HETATM    9  C   UNL     1     -11.188   3.608  73.655  1.00  0.00    -0.278 A  
HETATM   10  C   UNL     1      -7.927   6.223  74.143  1.00  0.00    -0.104 A  
HETATM   11  C   UNL     1      -9.990   3.138  74.175  1.00  0.00    -0.170 A  
HETATM   12  C   UNL     1      -9.021   5.363  73.967  1.00  0.00    -0.119 A  
HETATM   13  C   UNL     1      -8.911   4.007  74.320  1.00  0.00    -0.098 A  
ENDBRANCH   3   4
ENDBRANCH   2   3
BRANCH   2  14
HETATM   14  C   UNL     1     -12.780   9.075  70.873  1.00  0.00     0.014 C  
BRANCH  14  15
HETATM   15  C   UNL     1     -12.681  10.581  71.007  1.00  0.00    -0.504 A  
HETATM   16  C   UNL     1     -11.975  12.758  70.178  1.00  0.00    -0.371 A  
HETATM   17  C   UNL     1     -13.314  11.226  72.070  1.00  0.00    -0.386 A  
HETATM   18  C   UNL     1     -13.293  12.621  72.177  1.00  0.00    -0.570 A  
HETATM   19  C   UNL     1     -11.992  11.360  70.070  1.00  0.00    -0.442 A  
HETATM   20  C   UNL     1     -12.643  13.423  71.224  1.00  0.00    -0.411 A  
BRANCH  20  21
HETATM   21  C   UNL     1     -12.678  14.961  71.292  1.00  0.00    -0.412 C  
HETATM   22  C   UNL     1     -11.750  15.540  72.386  1.00  0.00    -0.570 C  
HETATM   23  C   UNL     1     -12.237  15.568  69.945  1.00  0.00    -0.351 C  
HETATM   24  C   UNL     1     -14.108  15.445  71.614  1.00  0.00    -0.618 C  
ENDBRANCH  20  21
ENDBRANCH  14  15
ENDBRANCH   2  14
TORSDOF 5
ENDMDL
MODEL       52
REMARK 921   NORMALIZED FREE ENERGY PREDICTED BY IDOCK:   -5.20 KCAL/MOL
REMARK 922        TOTAL FREE ENERGY PREDICTED BY IDOCK:   -8.51 KCAL/MOL
REMARK 923 INTER-LIGAND FREE ENERGY PREDICTED BY IDOCK:   -7.89 KCAL/MOL
REMARK 924 INTRA-LIGAND FREE ENERGY PREDICTED BY IDOCK:   -0.61 KCAL/MOL
REMARK 927      BINDING AFFINITY PREDICTED BY RF-SCORE:    0.00 PKD
ROOT
HETATM    1  C   UNL     1      -9.814   9.422  70.380  1.00  0.00    -0.259 C  
HETATM    2  N   UNL     1     -11.163   8.988  70.758  1.00  0.00    -0.263 NA 
ENDROOT
BRANCH   2   3
HETATM    3  C   UNL     1     -11.343   7.541  70.514  1.00  0.00    -0.260 C  
BRANCH   3   4
HETATM    4  C   UNL     1     -10.864   6.650  71.652  1.00  0.00    -0.269 A  
HETATM    5  C   UNL     1     -10.319   5.354  71.431  1.00  0.00    -0.294 A  
HETATM    6  C   UNL     1     -10.993   7.137  72.968  1.00  0.00    -0.357 A  
HETATM    7  C   UNL     1     -10.150   4.780  70.152  1.00  0.00    -0.310 A  
HETATM    8  C   UNL     1     -10.603   6.365  74.056  1.00  0.00    -0.192 A  
HETATM    9  C   UNL     1      -9.659   3.485  69.983  1.00  0.00    -0.226 A  
HETATM   10  C   UNL     1     -10.079   5.093  73.849  1.00  0.00    -0.228 A  
HETATM   11  C   UNL     1      -9.304   2.731  71.093  1.00  0.00    -0.211 A  
HETATM   12  C   UNL     1      -9.938   4.574  72.553  1.00  0.00    -0.225 A  
HETATM   13  C   UNL     1      -9.434   3.276  72.368  1.00  0.00    -0.182 A  
ENDBRANCH   3   4
ENDBRANCH   2   3
BRANCH   2  14
HETATM   14  C   UNL     1     -12.209   9.741  70.043  1.00  0.00     0.198 C  
BRANCH  14  15
HETATM   15  C   UNL     1     -12.456  11.128  70.600  1.00  0.00    -0.448 A  
HETATM   16  C   UNL     1     -13.374  12.620  72.291  1.00  0.00    -0.527 A  
HETATM   17  C   UNL     1     -11.892  12.240  69.972  1.00  0.00    -0.372 A  
HETATM   18  C   UNL     1     -12.051  13.522  70.505  1.00  0.00    -0.409 A  
HETATM   19  C   UNL     1     -13.218  11.332  71.756  1.00  0.00    -0.480 A  
HETATM   20  C   UNL     1     -12.776  13.743  71.688  1.00  0.00    -0.409 A  
BRANCH  20  21
HETATM   21  C   UNL     1     -12.894  15.141  72.324  1.00  0.00    -0.428 C  
HETATM   22  C   UNL     1     -12.606  15.142  73.843  1.00  0.00    -0.690 C  
HETATM   23  C   UNL     1     -11.896  16.116  71.666  1.00  0.00    -0.557 C  
HETATM   24  C   UNL     1     -14.325  15.689  72.138  1.00  0.00    -0.497 C  
ENDBRANCH  20  21
ENDBRANCH  14  15
ENDBRANCH   2  14
TORSDOF 5
ENDMDL
MODEL       53
REMARK 921   NORMALIZED FREE ENERGY PREDICTED BY IDOCK:   -5.16 KCAL/MOL
REMARK 922        TOTAL FREE ENERGY PREDICTED BY IDOCK:   -8.45 KCAL/MOL
REMARK 923 INTER-LIGAND FREE ENERGY PREDICTED BY IDOCK:   -7.66 KCAL/MOL
REMARK 924 INTRA-LIGAND FREE ENERGY PREDICTED BY IDOCK:   -0.79 KCAL/MOL
REMARK 927      BINDING AFFINITY PREDICTED BY RF-SCORE:    0.00 PKD
ROOT
HETATM    1  C   UNL     1     -11.097  15.225  65.217  1.00  0.00    -0.376 C  
HETATM    2  N   UNL     1     -10.978  14.469  66.469  1.00  0.00    -0.315 NA 
ENDROOT
BRANCH   2   3
HETATM    3  C   UNL     1     -11.920  13.329  66.492  1.00  0.00    -0.391 C  
BRANCH   3   4
HETATM    4  C   UNL     1     -11.247  11.964  66.549  1.00  0.00    -0.383 A  
HETATM    5  C   UNL     1     -11.162  11.205  67.750  1.00  0.00    -0.359 A  
HETATM    6  C   UNL     1     -10.675  11.463  65.364  1.00  0.00    -0.313 A  
HETATM    7  C   UNL     1     -11.703  11.623  68.985  1.00  0.00    -0.388 A  
HETATM    8  C   UNL     1     -10.020  10.236  65.351  1.00  0.00    -0.371 A  
HETATM    9  C   UNL     1     -11.552  10.870  70.150  1.00  0.00    -0.425 A  
HETATM   10  C   UNL     1      -9.923   9.492  66.523  1.00  0.00    -0.329 A  
HETATM   11  C   UNL     1     -10.868   9.663  70.108  1.00  0.00    -0.325 A  
HETATM   12  C   UNL     1     -10.478   9.962  67.722  1.00  0.00    -0.292 A  
HETATM   13  C   UNL     1     -10.343   9.208  68.900  1.00  0.00    -0.232 A  
ENDBRANCH   3   4
ENDBRANCH   2   3
BRANCH   2  14
HETATM   14  C   UNL     1     -11.204  15.318  67.652  1.00  0.00    -0.320 C  
BRANCH  14  15
HETATM   15  C   UNL     1     -10.148  16.385  67.853  1.00  0.00    -0.250 A  
HETATM   16  C   UNL     1      -7.827  17.072  68.119  1.00  0.00    -0.196 A  
HETATM   17  C   UNL     1     -10.514  17.732  67.861  1.00  0.00    -0.401 A  
HETATM   18  C   UNL     1      -9.549  18.737  67.979  1.00  0.00    -0.360 A  
HETATM   19  C   UNL     1      -8.794  16.062  68.004  1.00  0.00    -0.175 A  
HETATM   20  C   UNL     1      -8.181  18.435  68.088  1.00  0.00    -0.303 A  
BRANCH  20  21
HETATM   21  C   UNL     1      -7.105  19.535  68.142  1.00  0.00    -0.319 C  
HETATM   22  C   UNL     1      -5.798  19.140  67.416  1.00  0.00    -0.175 C  
HETATM   23  C   UNL     1      -7.625  20.828  67.481  1.00  0.00    -0.312 C  
HETATM   24  C   UNL     1      -6.730  19.840  69.608  1.00  0.00    -0.351 C  
ENDBRANCH  20  21
ENDBRANCH  14  15
ENDBRANCH   2  14
TORSDOF 5
ENDMDL
MODEL       54
REMARK 921   NORMALIZED FREE ENERGY PREDICTED BY IDOCK:   -5.14 KCAL/MOL
REMARK 922        TOTAL FREE ENERGY PREDICTED BY IDOCK:   -8.42 KCAL/MOL
REMARK 923 INTER-LIGAND FREE ENERGY PREDICTED BY IDOCK:   -6.07 KCAL/MOL
REMARK 924 INTRA-LIGAND FREE ENERGY PREDICTED BY IDOCK:   -2.35 KCAL/MOL
REMARK 927      BINDING AFFINITY PREDICTED BY RF-SCORE:    0.00 PKD
ROOT
HETATM    1  C   UNL     1      -8.860   8.762  64.756  1.00  0.00    -0.045 C  
HETATM    2  N   UNL     1      -9.680   9.775  65.428  1.00  0.00    -0.304 NA 
ENDROOT
BRANCH   2   3
HETATM    3  C   UNL     1      -9.247  11.139  65.059  1.00  0.00    -0.170 C  
BRANCH   3   4
HETATM    4  C   UNL     1     -10.370  12.038  64.560  1.00  0.00    -0.334 A  
HETATM    5  C   UNL     1     -10.425  13.429  64.859  1.00  0.00    -0.404 A  
HETATM    6  C   UNL     1     -11.393  11.448  63.794  1.00  0.00    -0.310 A  
HETATM    7  C   UNL     1      -9.449  14.109  65.619  1.00  0.00     0.008 A  
HETATM    8  C   UNL     1     -12.465  12.204  63.330  1.00  0.00    -0.625 A  
HETATM    9  C   UNL     1      -9.569  15.464  65.932  1.00  0.00    -0.386 A  
HETATM   10  C   UNL     1     -12.532  13.562  63.627  1.00  0.00    -0.278 A  
HETATM   11  C   UNL     1     -10.665  16.183  65.476  1.00  0.00    -0.355 A  
HETATM   12  C   UNL     1     -11.532  14.183  64.390  1.00  0.00    -0.344 A  
HETATM   13  C   UNL     1     -11.634  15.549  64.703  1.00  0.00    -0.281 A  
ENDBRANCH   3   4
ENDBRANCH   2   3
BRANCH   2  14
HETATM   14  C   UNL     1      -9.650   9.628  66.894  1.00  0.00    -0.167 C  
BRANCH  14  15
HETATM   15  C   UNL     1     -10.057  10.879  67.645  1.00  0.00    -0.206 A  
HETATM   16  C   UNL     1      -9.510  12.877  68.925  1.00  0.00     0.252 A  
HETATM   17  C   UNL     1     -11.397  11.267  67.673  1.00  0.00    -0.352 A  
HETATM   18  C   UNL     1     -11.787  12.453  68.304  1.00  0.00    -0.364 A  
HETATM   19  C   UNL     1      -9.116  11.686  68.296  1.00  0.00    -0.187 A  
HETATM   20  C   UNL     1     -10.853  13.298  68.925  1.00  0.00    -0.245 A  
BRANCH  20  21
HETATM   21  C   UNL     1     -11.263  14.643  69.556  1.00  0.00    -0.300 C  
HETATM   22  C   UNL     1     -10.066  15.595  69.781  1.00  0.00    -0.291 C  
HETATM   23  C   UNL     1     -12.271  15.376  68.649  1.00  0.00     0.012 C  
HETATM   24  C   UNL     1     -11.914  14.405  70.936  1.00  0.00    -0.393 C  
ENDBRANCH  20  21
ENDBRANCH  14  15
ENDBRANCH   2  14
TORSDOF 5
ENDMDL
MODEL       55
REMARK 921   NORMALIZED FREE ENERGY PREDICTED BY IDOCK:   -5.11 KCAL/MOL
REMARK 922        TOTAL FREE ENERGY PREDICTED BY IDOCK:   -8.38 KCAL/MOL
REMARK 923 INTER-LIGAND FREE ENERGY PREDICTED BY IDOCK:   -6.87 KCAL/MOL
REMARK 924 INTRA-LIGAND FREE ENERGY PREDICTED BY IDOCK:   -1.51 KCAL/MOL
REMARK 927      BINDING AFFINITY PREDICTED BY RF-SCORE:    0.00 PKD
ROOT
HETATM    1  C   UNL     1     -10.253   5.366  73.884  1.00  0.00    -0.237 C  
HETATM    2  N   UNL     1     -10.440   6.323  72.789  1.00  0.00    -0.204 NA 
ENDROOT
BRANCH   2   3
HETATM    3  C   UNL     1     -10.785   7.664  73.308  1.00  0.00    -0.350 C  
BRANCH   3   4
HETATM    4  C   UNL     1     -11.289   8.635  72.249  1.00  0.00    -0.411 A  
HETATM    5  C   UNL     1     -10.448   9.147  71.221  1.00  0.00    -0.398 A  
HETATM    6  C   UNL     1     -12.634   9.046  72.320  1.00  0.00    -0.445 A  
HETATM    7  C   UNL     1      -9.089   8.796  71.068  1.00  0.00    -0.272 A  
HETATM    8  C   UNL     1     -13.152   9.953  71.403  1.00  0.00    -0.500 A  
HETATM    9  C   UNL     1      -8.287   9.361  70.076  1.00  0.00    -0.190 A  
HETATM   10  C   UNL     1     -12.335  10.466  70.401  1.00  0.00    -0.370 A  
HETATM   11  C   UNL     1      -8.830  10.285  69.193  1.00  0.00    -0.182 A  
HETATM   12  C   UNL     1     -10.989  10.082  70.301  1.00  0.00    -0.377 A  
HETATM   13  C   UNL     1     -10.174  10.635  69.299  1.00  0.00    -0.235 A  
ENDBRANCH   3   4
ENDBRANCH   2   3
BRANCH   2  14
HETATM   14  C   UNL     1     -11.475   5.883  71.837  1.00  0.00    -0.225 C  
BRANCH  14  15
HETATM   15  C   UNL     1     -10.952   5.613  70.441  1.00  0.00    -0.278 A  
HETATM   16  C   UNL     1     -10.856   6.116  68.061  1.00  0.00    -0.398 A  
HETATM   17  C   UNL     1      -9.970   4.642  70.243  1.00  0.00    -0.309 A  
HETATM   18  C   UNL     1      -9.424   4.422  68.974  1.00  0.00    -0.237 A  
HETATM   19  C   UNL     1     -11.406   6.336  69.332  1.00  0.00    -0.448 A  
HETATM   20  C   UNL     1      -9.836   5.167  67.857  1.00  0.00    -0.199 A  
BRANCH  20  21
HETATM   21  C   UNL     1      -9.189   4.984  66.471  1.00  0.00    -0.135 C  
HETATM   22  C   UNL     1      -8.555   6.284  65.922  1.00  0.00    -0.150 C  
HETATM   23  C   UNL     1      -8.074   3.920  66.536  1.00  0.00    -0.097 C  
HETATM   24  C   UNL     1     -10.250   4.534  65.445  1.00  0.00    -0.224 C  
ENDBRANCH  20  21
ENDBRANCH  14  15
ENDBRANCH   2  14
TORSDOF 5
ENDMDL
MODEL       56
REMARK 921   NORMALIZED FREE ENERGY PREDICTED BY IDOCK:   -5.10 KCAL/MOL
REMARK 922        TOTAL FREE ENERGY PREDICTED BY IDOCK:   -8.37 KCAL/MOL
REMARK 923 INTER-LIGAND FREE ENERGY PREDICTED BY IDOCK:   -7.45 KCAL/MOL
REMARK 924 INTRA-LIGAND FREE ENERGY PREDICTED BY IDOCK:   -0.92 KCAL/MOL
REMARK 927      BINDING AFFINITY PREDICTED BY RF-SCORE:    0.00 PKD
ROOT
HETATM    1  C   UNL     1     -10.471  10.842  66.560  1.00  0.00    -0.240 C  
HETATM    2  N   UNL     1     -10.526  10.753  68.023  1.00  0.00    -0.183 NA 
ENDROOT
BRANCH   2   3
HETATM    3  C   UNL     1     -10.791  12.077  68.626  1.00  0.00    -0.237 C  
BRANCH   3   4
HETATM    4  C   UNL     1     -11.751  12.045  69.808  1.00  0.00    -0.390 A  
HETATM    5  C   UNL     1     -12.255  13.230  70.414  1.00  0.00    -0.404 A  
HETATM    6  C   UNL     1     -12.123  10.787  70.319  1.00  0.00    -0.433 A  
HETATM    7  C   UNL     1     -11.940  14.535  69.974  1.00  0.00    -0.388 A  
HETATM    8  C   UNL     1     -12.973  10.685  71.415  1.00  0.00    -0.545 A  
HETATM    9  C   UNL     1     -12.416  15.671  70.629  1.00  0.00    -0.463 A  
HETATM   10  C   UNL     1     -13.462  11.839  72.020  1.00  0.00    -0.319 A  
HETATM   11  C   UNL     1     -13.241  15.533  71.737  1.00  0.00    -0.567 A  
HETATM   12  C   UNL     1     -13.110  13.109  71.539  1.00  0.00    -0.404 A  
HETATM   13  C   UNL     1     -13.593  14.261  72.183  1.00  0.00    -0.546 A  
ENDBRANCH   3   4
ENDBRANCH   2   3
BRANCH   2  14
HETATM   14  C   UNL     1      -9.287  10.193  68.592  1.00  0.00    -0.161 C  
BRANCH  14  15
HETATM   15  C   UNL     1      -9.514   9.016  69.519  1.00  0.00    -0.164 A  
HETATM   16  C   UNL     1     -10.344   6.770  69.958  1.00  0.00    -0.225 A  
HETATM   17  C   UNL     1      -8.999   9.045  70.815  1.00  0.00    -0.286 A  
HETATM   18  C   UNL     1      -9.138   7.944  71.667  1.00  0.00    -0.175 A  
HETATM   19  C   UNL     1     -10.208   7.874  69.103  1.00  0.00    -0.219 A  
HETATM   20  C   UNL     1      -9.794   6.772  71.254  1.00  0.00    -0.186 A  
BRANCH  20  21
HETATM   21  C   UNL     1      -9.886   5.528  72.157  1.00  0.00    -0.198 C  
HETATM   22  C   UNL     1     -11.278   5.357  72.811  1.00  0.00    -0.358 C  
HETATM   23  C   UNL     1      -9.600   4.251  71.342  1.00  0.00    -0.239 C  
HETATM   24  C   UNL     1      -8.860   5.628  73.305  1.00  0.00    -0.121 C  
ENDBRANCH  20  21
ENDBRANCH  14  15
ENDBRANCH   2  14
TORSDOF 5
ENDMDL
MODEL       57
REMARK 921   NORMALIZED FREE ENERGY PREDICTED BY IDOCK:   -5.09 KCAL/MOL
REMARK 922        TOTAL FREE ENERGY PREDICTED BY IDOCK:   -8.35 KCAL/MOL
REMARK 923 INTER-LIGAND FREE ENERGY PREDICTED BY IDOCK:   -7.41 KCAL/MOL
REMARK 924 INTRA-LIGAND FREE ENERGY PREDICTED BY IDOCK:   -0.95 KCAL/MOL
REMARK 927      BINDING AFFINITY PREDICTED BY RF-SCORE:    0.00 PKD
ROOT
HETATM    1  C   UNL     1      -8.392   7.108  68.069  1.00  0.00    -0.119 C  
HETATM    2  N   UNL     1      -9.717   7.732  68.148  1.00  0.00    -0.151 NA 
ENDROOT
BRANCH   2   3
HETATM    3  C   UNL     1     -10.689   6.831  68.803  1.00  0.00    -0.239 C  
BRANCH   3   4
HETATM    4  C   UNL     1     -10.861   7.077  70.296  1.00  0.00    -0.283 A  
HETATM    5  C   UNL     1     -10.596   6.074  71.271  1.00  0.00    -0.302 A  
HETATM    6  C   UNL     1     -11.321   8.344  70.706  1.00  0.00    -0.290 A  
HETATM    7  C   UNL     1     -10.133   4.777  70.959  1.00  0.00    -0.269 A  
HETATM    8  C   UNL     1     -11.528   8.627  72.051  1.00  0.00    -0.437 A  
HETATM    9  C   UNL     1      -9.935   3.807  71.943  1.00  0.00    -0.230 A  
HETATM   10  C   UNL     1     -11.281   7.649  73.009  1.00  0.00    -0.388 A  
HETATM   11  C   UNL     1     -10.178   4.115  73.274  1.00  0.00    -0.217 A  
HETATM   12  C   UNL     1     -10.825   6.375  72.638  1.00  0.00    -0.270 A  
HETATM   13  C   UNL     1     -10.610   5.393  73.620  1.00  0.00    -0.318 A  
ENDBRANCH   3   4
ENDBRANCH   2   3
BRANCH   2  14
HETATM   14  C   UNL     1     -10.225   8.123  66.821  1.00  0.00    -0.302 C  
BRANCH  14  15
HETATM   15  C   UNL     1     -10.457   9.612  66.667  1.00  0.00    -0.233 A  
HETATM   16  C   UNL     1     -10.451  11.649  65.334  1.00  0.00    -0.324 A  
HETATM   17  C   UNL     1     -11.007  10.342  67.721  1.00  0.00    -0.360 A  
HETATM   18  C   UNL     1     -11.292  11.703  67.579  1.00  0.00    -0.364 A  
HETATM   19  C   UNL     1     -10.161  10.284  65.475  1.00  0.00    -0.308 A  
HETATM   20  C   UNL     1     -11.043  12.386  66.377  1.00  0.00    -0.343 A  
BRANCH  20  21
HETATM   21  C   UNL     1     -11.422  13.867  66.186  1.00  0.00    -0.351 C  
HETATM   22  C   UNL     1     -10.348  14.673  65.419  1.00  0.00    -0.406 C  
HETATM   23  C   UNL     1     -12.740  13.985  65.394  1.00  0.00    -0.499 C  
HETATM   24  C   UNL     1     -11.602  14.550  67.559  1.00  0.00    -0.403 C  
ENDBRANCH  20  21
ENDBRANCH  14  15
ENDBRANCH   2  14
TORSDOF 5
ENDMDL
MODEL       58
REMARK 921   NORMALIZED FREE ENERGY PREDICTED BY IDOCK:   -5.06 KCAL/MOL
REMARK 922        TOTAL FREE ENERGY PREDICTED BY IDOCK:   -8.31 KCAL/MOL
REMARK 923 INTER-LIGAND FREE ENERGY PREDICTED BY IDOCK:   -7.96 KCAL/MOL
REMARK 924 INTRA-LIGAND FREE ENERGY PREDICTED BY IDOCK:   -0.35 KCAL/MOL
REMARK 927      BINDING AFFINITY PREDICTED BY RF-SCORE:    0.00 PKD
ROOT
HETATM    1  C   UNL     1     -11.519  15.914  69.727  1.00  0.00    -0.342 C  
HETATM    2  N   UNL     1     -10.959  14.961  68.762  1.00  0.00    -0.243 NA 
ENDROOT
BRANCH   2   3
HETATM    3  C   UNL     1     -10.545  15.647  67.519  1.00  0.00    -0.297 C  
BRANCH   3   4
HETATM    4  C   UNL     1      -9.974  17.042  67.735  1.00  0.00    -0.280 A  
HETATM    5  C   UNL     1      -8.679  17.261  68.283  1.00  0.00    -0.251 A  
HETATM    6  C   UNL     1     -10.782  18.143  67.393  1.00  0.00    -0.355 A  
HETATM    7  C   UNL     1      -7.797  16.223  68.657  1.00  0.00    -0.202 A  
HETATM    8  C   UNL     1     -10.335  19.445  67.591  1.00  0.00    -0.550 A  
HETATM    9  C   UNL     1      -6.556  16.482  69.239  1.00  0.00    -0.207 A  
HETATM   10  C   UNL     1      -9.075  19.668  68.136  1.00  0.00    -0.392 A  
HETATM   11  C   UNL     1      -6.152  17.794  69.447  1.00  0.00    -0.241 A  
HETATM   12  C   UNL     1      -8.244  18.595  68.491  1.00  0.00    -0.370 A  
HETATM   13  C   UNL     1      -6.986  18.842  69.067  1.00  0.00    -0.342 A  
ENDBRANCH   3   4
ENDBRANCH   2   3
BRANCH   2  14
HETATM   14  C   UNL     1     -11.906  13.880  68.437  1.00  0.00    -0.374 C  
BRANCH  14  15
HETATM   15  C   UNL     1     -11.676  12.605  69.221  1.00  0.00    -0.379 A  
HETATM   16  C   UNL     1     -12.214  11.099  71.056  1.00  0.00    -0.438 A  
HETATM   17  C   UNL     1     -10.745  11.669  68.769  1.00  0.00    -0.254 A  
HETATM   18  C   UNL     1     -10.564  10.456  69.440  1.00  0.00    -0.267 A  
HETATM   19  C   UNL     1     -12.396  12.317  70.387  1.00  0.00    -0.309 A  
HETATM   20  C   UNL     1     -11.307  10.130  70.586  1.00  0.00    -0.433 A  
BRANCH  20  21
HETATM   21  C   UNL     1     -11.169   8.766  71.288  1.00  0.00    -0.352 C  
HETATM   22  C   UNL     1      -9.905   8.667  72.174  1.00  0.00    -0.387 C  
HETATM   23  C   UNL     1     -12.388   8.502  72.194  1.00  0.00    -0.444 C  
HETATM   24  C   UNL     1     -11.072   7.637  70.240  1.00  0.00    -0.256 C  
ENDBRANCH  20  21
ENDBRANCH  14  15
ENDBRANCH   2  14
TORSDOF 5
ENDMDL
MODEL       59
REMARK 921   NORMALIZED FREE ENERGY PREDICTED BY IDOCK:   -5.05 KCAL/MOL
REMARK 922        TOTAL FREE ENERGY PREDICTED BY IDOCK:   -8.31 KCAL/MOL
REMARK 923 INTER-LIGAND FREE ENERGY PREDICTED BY IDOCK:   -6.84 KCAL/MOL
REMARK 924 INTRA-LIGAND FREE ENERGY PREDICTED BY IDOCK:   -1.46 KCAL/MOL
REMARK 927      BINDING AFFINITY PREDICTED BY RF-SCORE:    0.00 PKD
ROOT
HETATM    1  C   UNL     1     -14.389   8.034  71.696  1.00  0.00    -0.473 C  
HETATM    2  N   UNL     1     -12.969   8.237  71.388  1.00  0.00    -0.273 NA 
ENDROOT
BRANCH   2   3
HETATM    3  C   UNL     1     -12.169   7.054  71.769  1.00  0.00    -0.351 C  
BRANCH   3   4
HETATM    4  C   UNL     1     -11.006   6.757  70.832  1.00  0.00    -0.303 A  
HETATM    5  C   UNL     1      -9.658   7.069  71.165  1.00  0.00    -0.165 A  
HETATM    6  C   UNL     1     -11.299   6.173  69.584  1.00  0.00    -0.442 A  
HETATM    7  C   UNL     1      -9.265   7.655  72.388  1.00  0.00    -0.201 A  
HETATM    8  C   UNL     1     -10.289   5.903  68.668  1.00  0.00    -0.271 A  
HETATM    9  C   UNL     1      -7.937   7.991  72.654  1.00  0.00    -0.181 A  
HETATM   10  C   UNL     1      -8.970   6.214  68.981  1.00  0.00    -0.125 A  
HETATM   11  C   UNL     1      -6.957   7.732  71.705  1.00  0.00    -0.064 A  
HETATM   12  C   UNL     1      -8.641   6.799  70.213  1.00  0.00    -0.140 A  
HETATM   13  C   UNL     1      -7.306   7.131  70.498  1.00  0.00    -0.075 A  
ENDBRANCH   3   4
ENDBRANCH   2   3
BRANCH   2  14
HETATM   14  C   UNL     1     -12.424   9.435  72.052  1.00  0.00    -0.365 C  
BRANCH  14  15
HETATM   15  C   UNL     1     -12.043  10.546  71.097  1.00  0.00    -0.473 A  
HETATM   16  C   UNL     1     -10.847  11.368  69.141  1.00  0.00    -0.260 A  
HETATM   17  C   UNL     1     -12.629  11.806  71.227  1.00  0.00    -0.401 A  
HETATM   18  C   UNL     1     -12.342  12.828  70.317  1.00  0.00    -0.277 A  
HETATM   19  C   UNL     1     -11.130  10.342  70.055  1.00  0.00    -0.373 A  
HETATM   20  C   UNL     1     -11.463  12.630  69.240  1.00  0.00    -0.354 A  
BRANCH  20  21
HETATM   21  C   UNL     1     -11.199  13.726  68.189  1.00  0.00    -0.298 C  
HETATM   22  C   UNL     1     -11.516  15.148  68.706  1.00  0.00    -0.335 C  
HETATM   23  C   UNL     1      -9.718  13.711  67.760  1.00  0.00    -0.225 C  
HETATM   24  C   UNL     1     -12.082  13.491  66.945  1.00  0.00    -0.417 C  
ENDBRANCH  20  21
ENDBRANCH  14  15
ENDBRANCH   2  14
TORSDOF 5
ENDMDL
MODEL       60
REMARK 921   NORMALIZED FREE ENERGY PREDICTED BY IDOCK:   -5.05 KCAL/MOL
REMARK 922        TOTAL FREE ENERGY PREDICTED BY IDOCK:   -8.30 KCAL/MOL
REMARK 923 INTER-LIGAND FREE ENERGY PREDICTED BY IDOCK:   -7.04 KCAL/MOL
REMARK 924 INTRA-LIGAND FREE ENERGY PREDICTED BY IDOCK:   -1.27 KCAL/MOL
REMARK 927      BINDING AFFINITY PREDICTED BY RF-SCORE:    0.00 PKD
ROOT
HETATM    1  C   UNL     1     -10.129  10.279  65.659  1.00  0.00    -0.271 C  
HETATM    2  N   UNL     1     -10.424   9.498  66.865  1.00  0.00    -0.230 NA 
ENDROOT
BRANCH   2   3
HETATM    3  C   UNL     1      -9.753  10.077  68.049  1.00  0.00    -0.139 C  
BRANCH   3   4
HETATM    4  C   UNL     1     -10.592  11.096  68.806  1.00  0.00    -0.233 A  
HETATM    5  C   UNL     1     -11.384  10.746  69.936  1.00  0.00    -0.385 A  
HETATM    6  C   UNL     1     -10.588  12.426  68.343  1.00  0.00    -0.251 A  
HETATM    7  C   UNL     1     -11.453   9.442  70.474  1.00  0.00    -0.317 A  
HETATM    8  C   UNL     1     -11.355  13.403  68.969  1.00  0.00    -0.335 A  
HETATM    9  C   UNL     1     -12.282   9.131  71.553  1.00  0.00    -0.422 A  
HETATM   10  C   UNL     1     -12.139  13.066  70.068  1.00  0.00    -0.367 A  
HETATM   11  C   UNL     1     -13.055  10.125  72.138  1.00  0.00    -0.463 A  
HETATM   12  C   UNL     1     -12.170  11.752  70.556  1.00  0.00    -0.438 A  
HETATM   13  C   UNL     1     -12.992  11.428  71.648  1.00  0.00    -0.523 A  
ENDBRANCH   3   4
ENDBRANCH   2   3
BRANCH   2  14
HETATM   14  C   UNL     1     -10.034   8.084  66.720  1.00  0.00    -0.274 C  
BRANCH  14  15
HETATM   15  C   UNL     1      -9.980   7.324  68.029  1.00  0.00    -0.186 A  
HETATM   16  C   UNL     1      -8.855   6.707  70.098  1.00  0.00    -0.141 A  
HETATM   17  C   UNL     1     -11.087   6.584  68.448  1.00  0.00    -0.340 A  
HETATM   18  C   UNL     1     -11.085   5.929  69.683  1.00  0.00    -0.414 A  
HETATM   19  C   UNL     1      -8.853   7.363  68.858  1.00  0.00    -0.131 A  
HETATM   20  C   UNL     1      -9.980   5.991  70.548  1.00  0.00    -0.233 A  
BRANCH  20  21
HETATM   21  C   UNL     1      -9.998   5.336  71.942  1.00  0.00    -0.240 C  
HETATM   22  C   UNL     1      -8.802   5.761  72.826  1.00  0.00    -0.121 C  
HETATM   23  C   UNL     1     -11.287   5.716  72.698  1.00  0.00    -0.356 C  
HETATM   24  C   UNL     1      -9.933   3.799  71.807  1.00  0.00    -0.227 C  
ENDBRANCH  20  21
ENDBRANCH  14  15
ENDBRANCH   2  14
TORSDOF 5
ENDMDL
MODEL       61
REMARK 921   NORMALIZED FREE ENERGY PREDICTED BY IDOCK:   -5.05 KCAL/MOL
REMARK 922        TOTAL FREE ENERGY PREDICTED BY IDOCK:   -8.30 KCAL/MOL
REMARK 923 INTER-LIGAND FREE ENERGY PREDICTED BY IDOCK:   -6.78 KCAL/MOL
REMARK 924 INTRA-LIGAND FREE ENERGY PREDICTED BY IDOCK:   -1.52 KCAL/MOL
REMARK 927      BINDING AFFINITY PREDICTED BY RF-SCORE:    0.00 PKD
ROOT
HETATM    1  C   UNL     1     -12.326  12.244  64.077  1.00  0.00    -0.475 C  
HETATM    2  N   UNL     1     -11.596  12.749  65.244  1.00  0.00    -0.328 NA 
ENDROOT
BRANCH   2   3
HETATM    3  C   UNL     1     -11.328  11.664  66.213  1.00  0.00    -0.227 C  
BRANCH   3   4
HETATM    4  C   UNL     1      -9.961  11.013  66.059  1.00  0.00    -0.285 A  
HETATM    5  C   UNL     1      -8.767  11.619  66.542  1.00  0.00    -0.182 A  
HETATM    6  C   UNL     1      -9.894   9.774  65.392  1.00  0.00    -0.365 A  
HETATM    7  C   UNL     1      -8.732  12.857  67.221  1.00  0.00    -0.204 A  
HETATM    8  C   UNL     1      -8.674   9.137  65.190  1.00  0.00    -0.228 A  
HETATM    9  C   UNL     1      -7.533  13.440  67.633  1.00  0.00    -0.182 A  
HETATM   10  C   UNL     1      -7.502   9.728  65.650  1.00  0.00    -0.110 A  
HETATM   11  C   UNL     1      -6.331  12.790  67.391  1.00  0.00    -0.139 A  
HETATM   12  C   UNL     1      -7.530  10.962  66.316  1.00  0.00    -0.129 A  
HETATM   13  C   UNL     1      -6.331  11.555  66.746  1.00  0.00    -0.134 A  
ENDBRANCH   3   4
ENDBRANCH   2   3
BRANCH   2  14
HETATM   14  C   UNL     1     -12.317  13.844  65.918  1.00  0.00    -0.483 C  
BRANCH  14  15
HETATM   15  C   UNL     1     -11.427  14.991  66.348  1.00  0.00    -0.225 A  
HETATM   16  C   UNL     1      -9.875  16.798  65.843  1.00  0.00    -0.276 A  
HETATM   17  C   UNL     1     -11.406  15.390  67.685  1.00  0.00    -0.292 A  
HETATM   18  C   UNL     1     -10.643  16.488  68.094  1.00  0.00    -0.329 A  
HETATM   19  C   UNL     1     -10.636  15.694  65.431  1.00  0.00    -0.436 A  
HETATM   20  C   UNL     1      -9.877  17.233  67.182  1.00  0.00    -0.269 A  
BRANCH  20  21
HETATM   21  C   UNL     1      -9.094  18.489  67.609  1.00  0.00    -0.293 C  
HETATM   22  C   UNL     1      -8.558  19.306  66.410  1.00  0.00    -0.355 C  
HETATM   23  C   UNL     1      -9.994  19.426  68.439  1.00  0.00    -0.527 C  
HETATM   24  C   UNL     1      -7.871  18.087  68.462  1.00  0.00    -0.310 C  
ENDBRANCH  20  21
ENDBRANCH  14  15
ENDBRANCH   2  14
TORSDOF 5
ENDMDL
MODEL       62
REMARK 921   NORMALIZED FREE ENERGY PREDICTED BY IDOCK:   -5.04 KCAL/MOL
REMARK 922        TOTAL FREE ENERGY PREDICTED BY IDOCK:   -8.30 KCAL/MOL
REMARK 923 INTER-LIGAND FREE ENERGY PREDICTED BY IDOCK:   -7.77 KCAL/MOL
REMARK 924 INTRA-LIGAND FREE ENERGY PREDICTED BY IDOCK:   -0.53 KCAL/MOL
REMARK 927      BINDING AFFINITY PREDICTED BY RF-SCORE:    0.00 PKD
ROOT
HETATM    1  C   UNL     1     -11.030  12.270  65.547  1.00  0.00    -0.298 C  
HETATM    2  N   UNL     1     -11.550  12.216  66.918  1.00  0.00    -0.476 NA 
ENDROOT
BRANCH   2   3
HETATM    3  C   UNL     1     -12.399  13.390  67.210  1.00  0.00    -0.107 C  
BRANCH   3   4
HETATM    4  C   UNL     1     -11.686  14.505  67.963  1.00  0.00    -0.373 A  
HETATM    5  C   UNL     1     -11.848  14.706  69.363  1.00  0.00    -0.368 A  
HETATM    6  C   UNL     1     -10.857  15.373  67.225  1.00  0.00    -0.316 A  
HETATM    7  C   UNL     1     -12.656  13.892  70.187  1.00  0.00    -0.285 A  
HETATM    8  C   UNL     1     -10.199  16.430  67.844  1.00  0.00    -0.268 A  
HETATM    9  C   UNL     1     -12.827  14.156  71.546  1.00  0.00    -0.430 A  
HETATM   10  C   UNL     1     -10.360  16.640  69.210  1.00  0.00    -0.318 A  
HETATM   11  C   UNL     1     -12.177  15.236  72.126  1.00  0.00    -0.457 A  
HETATM   12  C   UNL     1     -11.180  15.798  69.976  1.00  0.00    -0.346 A  
HETATM   13  C   UNL     1     -11.352  16.045  71.349  1.00  0.00    -0.371 A  
ENDBRANCH   3   4
ENDBRANCH   2   3
BRANCH   2  14
HETATM   14  C   UNL     1     -10.470  12.127  67.917  1.00  0.00    -0.208 C  
BRANCH  14  15
HETATM   15  C   UNL     1     -10.631  10.982  68.896  1.00  0.00    -0.239 A  
HETATM   16  C   UNL     1     -11.756   9.919  70.775  1.00  0.00    -0.424 A  
HETATM   17  C   UNL     1      -9.841   9.839  68.763  1.00  0.00    -0.176 A  
HETATM   18  C   UNL     1     -10.018   8.743  69.613  1.00  0.00    -0.191 A  
HETATM   19  C   UNL     1     -11.579  11.021  69.925  1.00  0.00    -0.416 A  
HETATM   20  C   UNL     1     -10.992   8.745  70.625  1.00  0.00    -0.278 A  
BRANCH  20  21
HETATM   21  C   UNL     1     -11.245   7.515  71.517  1.00  0.00    -0.271 C  
HETATM   22  C   UNL     1     -12.728   7.079  71.540  1.00  0.00    -0.425 C  
HETATM   23  C   UNL     1     -10.419   6.312  71.018  1.00  0.00    -0.274 C  
HETATM   24  C   UNL     1     -10.844   7.826  72.974  1.00  0.00    -0.451 C  
ENDBRANCH  20  21
ENDBRANCH  14  15
ENDBRANCH   2  14
TORSDOF 5
ENDMDL
MODEL       63
REMARK 921   NORMALIZED FREE ENERGY PREDICTED BY IDOCK:   -5.03 KCAL/MOL
REMARK 922        TOTAL FREE ENERGY PREDICTED BY IDOCK:   -8.27 KCAL/MOL
REMARK 923 INTER-LIGAND FREE ENERGY PREDICTED BY IDOCK:   -7.43 KCAL/MOL
REMARK 924 INTRA-LIGAND FREE ENERGY PREDICTED BY IDOCK:   -0.84 KCAL/MOL
REMARK 927      BINDING AFFINITY PREDICTED BY RF-SCORE:    0.00 PKD
ROOT
HETATM    1  C   UNL     1     -12.280  14.940  64.568  1.00  0.00    -0.382 C  
HETATM    2  N   UNL     1     -11.601  14.106  65.566  1.00  0.00    -0.329 NA 
ENDROOT
BRANCH   2   3
HETATM    3  C   UNL     1     -12.234  12.773  65.662  1.00  0.00    -0.444 C  
BRANCH   3   4
HETATM    4  C   UNL     1     -11.257  11.636  65.935  1.00  0.00    -0.296 A  
HETATM    5  C   UNL     1     -10.435  11.076  64.917  1.00  0.00    -0.371 A  
HETATM    6  C   UNL     1     -11.198  11.120  67.244  1.00  0.00    -0.347 A  
HETATM    7  C   UNL     1     -10.424  11.525  63.578  1.00  0.00    -0.486 A  
HETATM    8  C   UNL     1     -10.351  10.062  67.556  1.00  0.00    -0.282 A  
HETATM    9  C   UNL     1      -9.638  10.913  62.601  1.00  0.00    -0.290 A  
HETATM   10  C   UNL     1      -9.551   9.502  66.565  1.00  0.00    -0.259 A  
HETATM   11  C   UNL     1      -8.824   9.842  62.941  1.00  0.00    -0.255 A  
HETATM   12  C   UNL     1      -9.586   9.989  65.250  1.00  0.00    -0.355 A  
HETATM   13  C   UNL     1      -8.791   9.390  64.258  1.00  0.00    -0.220 A  
ENDBRANCH   3   4
ENDBRANCH   2   3
BRANCH   2  14
HETATM   14  C   UNL     1     -11.582  14.739  66.896  1.00  0.00    -0.327 C  
BRANCH  14  15
HETATM   15  C   UNL     1     -10.453  15.731  67.089  1.00  0.00    -0.309 A  
HETATM   16  C   UNL     1      -9.511  17.722  68.126  1.00  0.00    -0.282 A  
HETATM   17  C   UNL     1      -9.225  15.516  66.461  1.00  0.00    -0.324 A  
HETATM   18  C   UNL     1      -8.148  16.381  66.677  1.00  0.00    -0.321 A  
HETATM   19  C   UNL     1     -10.593  16.857  67.909  1.00  0.00    -0.361 A  
HETATM   20  C   UNL     1      -8.256  17.492  67.530  1.00  0.00    -0.213 A  
BRANCH  20  21
HETATM   21  C   UNL     1      -7.054  18.408  67.832  1.00  0.00    -0.229 C  
HETATM   22  C   UNL     1      -6.482  19.092  66.569  1.00  0.00    -0.203 C  
HETATM   23  C   UNL     1      -7.464  19.523  68.815  1.00  0.00    -0.387 C  
HETATM   24  C   UNL     1      -5.907  17.588  68.458  1.00  0.00    -0.162 C  
ENDBRANCH  20  21
ENDBRANCH  14  15
ENDBRANCH   2  14
TORSDOF 5
ENDMDL
MODEL       64
REMARK 921   NORMALIZED FREE ENERGY PREDICTED BY IDOCK:   -5.02 KCAL/MOL
REMARK 922        TOTAL FREE ENERGY PREDICTED BY IDOCK:   -8.27 KCAL/MOL
REMARK 923 INTER-LIGAND FREE ENERGY PREDICTED BY IDOCK:   -6.58 KCAL/MOL
REMARK 924 INTRA-LIGAND FREE ENERGY PREDICTED BY IDOCK:   -1.69 KCAL/MOL
REMARK 927      BINDING AFFINITY PREDICTED BY RF-SCORE:    0.00 PKD
ROOT
HETATM    1  C   UNL     1     -12.799   9.879  71.844  1.00  0.00    -0.429 C  
HETATM    2  N   UNL     1     -11.739  10.438  70.998  1.00  0.00    -0.353 NA 
ENDROOT
BRANCH   2   3
HETATM    3  C   UNL     1     -12.266  10.822  69.672  1.00  0.00    -0.254 C  
BRANCH   3   4
HETATM    4  C   UNL     1     -12.095  12.298  69.334  1.00  0.00    -0.234 A  
HETATM    5  C   UNL     1     -11.738  12.747  68.032  1.00  0.00    -0.405 A  
HETATM    6  C   UNL     1     -12.280  13.235  70.369  1.00  0.00    -0.404 A  
HETATM    7  C   UNL     1     -11.531  11.886  66.932  1.00  0.00    -0.390 A  
HETATM    8  C   UNL     1     -12.111  14.595  70.138  1.00  0.00    -0.385 A  
HETATM    9  C   UNL     1     -11.132  12.365  65.684  1.00  0.00    -0.343 A  
HETATM   10  C   UNL     1     -11.752  15.042  68.871  1.00  0.00    -0.354 A  
HETATM   11  C   UNL     1     -10.946  13.727  65.495  1.00  0.00    -0.299 A  
HETATM   12  C   UNL     1     -11.557  14.137  67.817  1.00  0.00    -0.379 A  
HETATM   13  C   UNL     1     -11.166  14.608  66.551  1.00  0.00    -0.346 A  
ENDBRANCH   3   4
ENDBRANCH   2   3
BRANCH   2  14
HETATM   14  C   UNL     1     -10.613   9.503  70.829  1.00  0.00    -0.317 C  
BRANCH  14  15
HETATM   15  C   UNL     1      -9.976   9.551  69.456  1.00  0.00    -0.205 A  
HETATM   16  C   UNL     1      -8.302  10.400  67.905  1.00  0.00    -0.114 A  
HETATM   17  C   UNL     1     -10.420   8.688  68.453  1.00  0.00    -0.220 A  
HETATM   18  C   UNL     1      -9.803   8.668  67.199  1.00  0.00    -0.269 A  
HETATM   19  C   UNL     1      -8.921  10.424  69.163  1.00  0.00    -0.188 A  
HETATM   20  C   UNL     1      -8.716   9.506  66.899  1.00  0.00    -0.136 A  
BRANCH  20  21
HETATM   21  C   UNL     1      -7.982   9.438  65.546  1.00  0.00    -0.111 C  
HETATM   22  C   UNL     1      -7.312   8.069  65.289  1.00  0.00    -0.070 C  
HETATM   23  C   UNL     1      -8.968   9.694  64.388  1.00  0.00    -0.276 C  
HETATM   24  C   UNL     1      -6.865  10.502  65.495  1.00  0.00    -0.100 C  
ENDBRANCH  20  21
ENDBRANCH  14  15
ENDBRANCH   2  14
TORSDOF 5
ENDMDL
MODEL       65
REMARK 921   NORMALIZED FREE ENERGY PREDICTED BY IDOCK:   -5.02 KCAL/MOL
REMARK 922        TOTAL FREE ENERGY PREDICTED BY IDOCK:   -8.27 KCAL/MOL
REMARK 923 INTER-LIGAND FREE ENERGY PREDICTED BY IDOCK:   -7.23 KCAL/MOL
REMARK 924 INTRA-LIGAND FREE ENERGY PREDICTED BY IDOCK:   -1.04 KCAL/MOL
REMARK 927      BINDING AFFINITY PREDICTED BY RF-SCORE:    0.00 PKD
ROOT
HETATM    1  C   UNL     1     -13.834   7.588  71.827  1.00  0.00    -0.338 C  
HETATM    2  N   UNL     1     -12.451   7.764  71.372  1.00  0.00    -0.323 NA 
ENDROOT
BRANCH   2   3
HETATM    3  C   UNL     1     -11.632   6.576  71.693  1.00  0.00    -0.308 C  
BRANCH   3   4
HETATM    4  C   UNL     1     -10.983   5.918  70.483  1.00  0.00    -0.362 A  
HETATM    5  C   UNL     1     -10.160   4.762  70.591  1.00  0.00    -0.288 A  
HETATM    6  C   UNL     1     -11.200   6.505  69.220  1.00  0.00    -0.390 A  
HETATM    7  C   UNL     1      -9.884   4.105  71.810  1.00  0.00    -0.252 A  
HETATM    8  C   UNL     1     -10.614   5.973  68.077  1.00  0.00    -0.330 A  
HETATM    9  C   UNL     1      -9.030   3.003  71.878  1.00  0.00    -0.138 A  
HETATM   10  C   UNL     1      -9.800   4.850  68.176  1.00  0.00    -0.198 A  
HETATM   11  C   UNL     1      -8.440   2.515  70.721  1.00  0.00    -0.091 A  
HETATM   12  C   UNL     1      -9.559   4.241  69.416  1.00  0.00    -0.267 A  
HETATM   13  C   UNL     1      -8.710   3.124  69.497  1.00  0.00    -0.130 A  
ENDBRANCH   3   4
ENDBRANCH   2   3
BRANCH   2  14
HETATM   14  C   UNL     1     -11.825   8.966  71.953  1.00  0.00    -0.370 C  
BRANCH  14  15
HETATM   15  C   UNL     1     -11.562  10.068  70.948  1.00  0.00    -0.463 A  
HETATM   16  C   UNL     1     -10.357  10.974  69.036  1.00  0.00    -0.229 A  
HETATM   17  C   UNL     1     -12.374  11.203  70.933  1.00  0.00    -0.500 A  
HETATM   18  C   UNL     1     -12.192  12.203  69.973  1.00  0.00    -0.270 A  
HETATM   19  C   UNL     1     -10.536   9.972  70.001  1.00  0.00    -0.337 A  
HETATM   20  C   UNL     1     -11.196  12.105  68.987  1.00  0.00    -0.314 A  
BRANCH  20  21
HETATM   21  C   UNL     1     -11.036  13.163  67.880  1.00  0.00    -0.288 C  
HETATM   22  C   UNL     1      -9.562  13.406  67.483  1.00  0.00    -0.221 C  
HETATM   23  C   UNL     1     -11.790  12.727  66.608  1.00  0.00    -0.462 C  
HETATM   24  C   UNL     1     -11.603  14.518  68.356  1.00  0.00    -0.356 C  
ENDBRANCH  20  21
ENDBRANCH  14  15
ENDBRANCH   2  14
TORSDOF 5
ENDMDL
MODEL       66
REMARK 921   NORMALIZED FREE ENERGY PREDICTED BY IDOCK:   -5.02 KCAL/MOL
REMARK 922        TOTAL FREE ENERGY PREDICTED BY IDOCK:   -8.26 KCAL/MOL
REMARK 923 INTER-LIGAND FREE ENERGY PREDICTED BY IDOCK:   -8.26 KCAL/MOL
REMARK 924 INTRA-LIGAND FREE ENERGY PREDICTED BY IDOCK:   -0.01 KCAL/MOL
REMARK 927      BINDING AFFINITY PREDICTED BY RF-SCORE:    0.00 PKD
ROOT
HETATM    1  C   UNL     1      -9.708  13.349  68.028  1.00  0.00    -0.222 C  
HETATM    2  N   UNL     1     -11.094  13.093  68.434  1.00  0.00    -0.254 NA 
ENDROOT
BRANCH   2   3
HETATM    3  C   UNL     1     -11.655  11.935  67.707  1.00  0.00    -0.323 C  
BRANCH   3   4
HETATM    4  C   UNL     1     -11.555  12.039  66.191  1.00  0.00    -0.371 A  
HETATM    5  C   UNL     1     -10.663  11.235  65.427  1.00  0.00    -0.291 A  
HETATM    6  C   UNL     1     -12.366  12.990  65.542  1.00  0.00    -0.527 A  
HETATM    7  C   UNL     1      -9.811  10.257  65.986  1.00  0.00    -0.292 A  
HETATM    8  C   UNL     1     -12.304  13.159  64.164  1.00  0.00    -0.418 A  
HETATM    9  C   UNL     1      -8.915   9.525  65.205  1.00  0.00    -0.244 A  
HETATM   10  C   UNL     1     -11.428  12.384  63.411  1.00  0.00    -0.526 A  
HETATM   11  C   UNL     1      -8.860   9.739  63.835  1.00  0.00    -0.259 A  
HETATM   12  C   UNL     1     -10.603  11.429  64.023  1.00  0.00    -0.444 A  
HETATM   13  C   UNL     1      -9.704  10.677  63.247  1.00  0.00    -0.385 A  
ENDBRANCH   3   4
ENDBRANCH   2   3
BRANCH   2  14
HETATM   14  C   UNL     1     -11.958  14.269  68.228  1.00  0.00    -0.311 C  
BRANCH  14  15
HETATM   15  C   UNL     1     -11.197  15.562  68.022  1.00  0.00    -0.332 A  
HETATM   16  C   UNL     1     -10.071  17.541  68.886  1.00  0.00    -0.346 A  
HETATM   17  C   UNL     1     -10.812  15.944  66.736  1.00  0.00    -0.228 A  
HETATM   18  C   UNL     1     -10.052  17.100  66.528  1.00  0.00    -0.313 A  
HETATM   19  C   UNL     1     -10.836  16.384  69.096  1.00  0.00    -0.329 A  
HETATM   20  C   UNL     1      -9.643  17.914  67.597  1.00  0.00    -0.270 A  
BRANCH  20  21
HETATM   21  C   UNL     1      -8.743  19.146  67.387  1.00  0.00    -0.317 C  
HETATM   22  C   UNL     1      -7.817  19.433  68.591  1.00  0.00    -0.399 C  
HETATM   23  C   UNL     1      -7.843  18.948  66.150  1.00  0.00    -0.272 C  
HETATM   24  C   UNL     1      -9.610  20.406  67.176  1.00  0.00    -0.587 C  
ENDBRANCH  20  21
ENDBRANCH  14  15
ENDBRANCH   2  14
TORSDOF 5
ENDMDL
MODEL       67
REMARK 921   NORMALIZED FREE ENERGY PREDICTED BY IDOCK:   -5.00 KCAL/MOL
REMARK 922        TOTAL FREE ENERGY PREDICTED BY IDOCK:   -8.24 KCAL/MOL
REMARK 923 INTER-LIGAND FREE ENERGY PREDICTED BY IDOCK:   -6.84 KCAL/MOL
REMARK 924 INTRA-LIGAND FREE ENERGY PREDICTED BY IDOCK:   -1.40 KCAL/MOL
REMARK 927      BINDING AFFINITY PREDICTED BY RF-SCORE:    0.00 PKD
ROOT
HETATM    1  C   UNL     1      -7.393   7.642  67.809  1.00  0.00    -0.099 C  
HETATM    2  N   UNL     1      -8.436   8.649  67.587  1.00  0.00    -0.124 NA 
ENDROOT
BRANCH   2   3
HETATM    3  C   UNL     1      -9.779   8.088  67.849  1.00  0.00    -0.160 C  
BRANCH   3   4
HETATM    4  C   UNL     1     -10.502   8.720  69.030  1.00  0.00    -0.220 A  
HETATM    5  C   UNL     1     -10.608   8.075  70.294  1.00  0.00    -0.231 A  
HETATM    6  C   UNL     1     -11.099   9.981  68.838  1.00  0.00    -0.219 A  
HETATM    7  C   UNL     1     -10.045   6.813  70.584  1.00  0.00    -0.204 A  
HETATM    8  C   UNL     1     -11.800  10.603  69.865  1.00  0.00    -0.392 A  
HETATM    9  C   UNL     1     -10.218   6.194  71.822  1.00  0.00    -0.236 A  
HETATM   10  C   UNL     1     -11.917   9.975  71.100  1.00  0.00    -0.484 A  
HETATM   11  C   UNL     1     -10.946   6.831  72.817  1.00  0.00    -0.303 A  
HETATM   12  C   UNL     1     -11.338   8.718  71.328  1.00  0.00    -0.357 A  
HETATM   13  C   UNL     1     -11.494   8.088  72.574  1.00  0.00    -0.471 A  
ENDBRANCH   3   4
ENDBRANCH   2   3
BRANCH   2  14
HETATM   14  C   UNL     1      -8.391   9.203  66.222  1.00  0.00    -0.119 C  
BRANCH  14  15
HETATM   15  C   UNL     1      -9.134  10.514  66.067  1.00  0.00    -0.191 A  
HETATM   16  C   UNL     1     -10.944  11.847  65.132  1.00  0.00    -0.365 A  
HETATM   17  C   UNL     1      -8.745  11.625  66.816  1.00  0.00    -0.189 A  
HETATM   18  C   UNL     1      -9.457  12.826  66.739  1.00  0.00    -0.243 A  
HETATM   19  C   UNL     1     -10.230  10.642  65.205  1.00  0.00    -0.351 A  
HETATM   20  C   UNL     1     -10.585  12.962  65.913  1.00  0.00    -0.287 A  
BRANCH  20  21
HETATM   21  C   UNL     1     -11.419  14.257  65.878  1.00  0.00    -0.335 C  
HETATM   22  C   UNL     1     -10.745  15.389  65.068  1.00  0.00    -0.460 C  
HETATM   23  C   UNL     1     -12.797  13.990  65.238  1.00  0.00    -0.418 C  
HETATM   24  C   UNL     1     -11.629  14.792  67.310  1.00  0.00    -0.385 C  
ENDBRANCH  20  21
ENDBRANCH  14  15
ENDBRANCH   2  14
TORSDOF 5
ENDMDL
MODEL       68
REMARK 921   NORMALIZED FREE ENERGY PREDICTED BY IDOCK:   -5.00 KCAL/MOL
REMARK 922        TOTAL FREE ENERGY PREDICTED BY IDOCK:   -8.24 KCAL/MOL
REMARK 923 INTER-LIGAND FREE ENERGY PREDICTED BY IDOCK:   -7.03 KCAL/MOL
REMARK 924 INTRA-LIGAND FREE ENERGY PREDICTED BY IDOCK:   -1.20 KCAL/MOL
REMARK 927      BINDING AFFINITY PREDICTED BY RF-SCORE:    0.00 PKD
ROOT
HETATM    1  C   UNL     1     -14.143   9.172  71.868  1.00  0.00    -0.285 C  
HETATM    2  N   UNL     1     -12.770   8.934  71.409  1.00  0.00    -0.318 NA 
ENDROOT
BRANCH   2   3
HETATM    3  C   UNL     1     -12.155   7.805  72.139  1.00  0.00    -0.304 C  
BRANCH   3   4
HETATM    4  C   UNL     1     -10.676   7.598  71.840  1.00  0.00    -0.259 A  
HETATM    5  C   UNL     1     -10.218   6.978  70.643  1.00  0.00    -0.205 A  
HETATM    6  C   UNL     1      -9.744   8.024  72.806  1.00  0.00    -0.348 A  
HETATM    7  C   UNL     1     -11.074   6.518  69.618  1.00  0.00    -0.435 A  
HETATM    8  C   UNL     1      -8.380   7.840  72.611  1.00  0.00    -0.177 A  
HETATM    9  C   UNL     1     -10.585   5.869  68.484  1.00  0.00    -0.317 A  
HETATM   10  C   UNL     1      -7.924   7.225  71.449  1.00  0.00    -0.097 A  
HETATM   11  C   UNL     1      -9.219   5.677  68.334  1.00  0.00    -0.125 A  
HETATM   12  C   UNL     1      -8.824   6.786  70.466  1.00  0.00    -0.151 A  
HETATM   13  C   UNL     1      -8.344   6.141  69.314  1.00  0.00    -0.116 A  
ENDBRANCH   3   4
ENDBRANCH   2   3
BRANCH   2  14
HETATM   14  C   UNL     1     -11.923  10.131  71.550  1.00  0.00    -0.317 C  
BRANCH  14  15
HETATM   15  C   UNL     1     -11.656  10.852  70.245  1.00  0.00    -0.426 A  
HETATM   16  C   UNL     1     -10.858  10.884  67.945  1.00  0.00    -0.295 A  
HETATM   17  C   UNL     1     -12.065  12.177  70.087  1.00  0.00    -0.368 A  
HETATM   18  C   UNL     1     -11.889  12.842  68.870  1.00  0.00    -0.351 A  
HETATM   19  C   UNL     1     -11.030  10.216  69.167  1.00  0.00    -0.270 A  
HETATM   20  C   UNL     1     -11.303  12.207  67.762  1.00  0.00    -0.371 A  
BRANCH  20  21
HETATM   21  C   UNL     1     -11.173  12.906  66.395  1.00  0.00    -0.337 C  
HETATM   22  C   UNL     1      -9.934  13.826  66.301  1.00  0.00    -0.312 C  
HETATM   23  C   UNL     1     -11.057  11.860  65.268  1.00  0.00    -0.354 C  
HETATM   24  C   UNL     1     -12.411  13.790  66.132  1.00  0.00    -0.496 C  
ENDBRANCH  20  21
ENDBRANCH  14  15
ENDBRANCH   2  14
TORSDOF 5
ENDMDL
MODEL       69
REMARK 921   NORMALIZED FREE ENERGY PREDICTED BY IDOCK:   -4.95 KCAL/MOL
REMARK 922        TOTAL FREE ENERGY PREDICTED BY IDOCK:   -8.17 KCAL/MOL
REMARK 923 INTER-LIGAND FREE ENERGY PREDICTED BY IDOCK:   -6.81 KCAL/MOL
REMARK 924 INTRA-LIGAND FREE ENERGY PREDICTED BY IDOCK:   -1.36 KCAL/MOL
REMARK 927      BINDING AFFINITY PREDICTED BY RF-SCORE:    0.00 PKD
ROOT
HETATM    1  C   UNL     1     -10.275  19.962  69.286  1.00  0.00    -0.114 C  
HETATM    2  N   UNL     1      -9.465  19.174  68.351  1.00  0.00    -0.348 NA 
ENDROOT
BRANCH   2   3
HETATM    3  C   UNL     1      -8.243  19.908  67.959  1.00  0.00    -0.263 C  
BRANCH   3   4
HETATM    4  C   UNL     1      -7.185  19.046  67.282  1.00  0.00    -0.228 A  
HETATM    5  C   UNL     1      -6.640  19.367  66.007  1.00  0.00    -0.242 A  
HETATM    6  C   UNL     1      -6.761  17.880  67.950  1.00  0.00    -0.193 A  
HETATM    7  C   UNL     1      -7.001  20.511  65.262  1.00  0.00    -0.190 A  
HETATM    8  C   UNL     1      -5.821  17.032  67.376  1.00  0.00    -0.175 A  
HETATM    9  C   UNL     1      -6.478  20.760  63.993  1.00  0.00    -0.250 A  
HETATM   10  C   UNL     1      -5.290  17.333  66.126  1.00  0.00    -0.087 A  
HETATM   11  C   UNL     1      -5.561  19.878  63.438  1.00  0.00    -0.330 A  
HETATM   12  C   UNL     1      -5.691  18.484  65.431  1.00  0.00    -0.252 A  
HETATM   13  C   UNL     1      -5.163  18.753  64.157  1.00  0.00    -0.220 A  
ENDBRANCH   3   4
ENDBRANCH   2   3
BRANCH   2  14
HETATM   14  C   UNL     1     -10.221  18.797  67.144  1.00  0.00    -0.386 C  
BRANCH  14  15
HETATM   15  C   UNL     1     -10.405  17.303  66.977  1.00  0.00    -0.318 A  
HETATM   16  C   UNL     1     -11.163  15.138  67.793  1.00  0.00    -0.327 A  
HETATM   17  C   UNL     1     -10.068  16.692  65.768  1.00  0.00    -0.301 A  
HETATM   18  C   UNL     1     -10.291  15.327  65.567  1.00  0.00    -0.408 A  
HETATM   19  C   UNL     1     -10.938  16.507  67.998  1.00  0.00    -0.320 A  
HETATM   20  C   UNL     1     -10.864  14.520  66.564  1.00  0.00    -0.314 A  
BRANCH  20  21
HETATM   21  C   UNL     1     -11.183  13.032  66.326  1.00  0.00    -0.332 C  
HETATM   22  C   UNL     1     -10.021  12.264  65.653  1.00  0.00    -0.271 C  
HETATM   23  C   UNL     1     -11.486  12.327  67.664  1.00  0.00    -0.401 C  
HETATM   24  C   UNL     1     -12.410  12.894  65.400  1.00  0.00    -0.538 C  
ENDBRANCH  20  21
ENDBRANCH  14  15
ENDBRANCH   2  14
TORSDOF 5
ENDMDL
MODEL       70
REMARK 921   NORMALIZED FREE ENERGY PREDICTED BY IDOCK:   -4.93 KCAL/MOL
REMARK 922        TOTAL FREE ENERGY PREDICTED BY IDOCK:   -8.15 KCAL/MOL
REMARK 923 INTER-LIGAND FREE ENERGY PREDICTED BY IDOCK:   -7.29 KCAL/MOL
REMARK 924 INTRA-LIGAND FREE ENERGY PREDICTED BY IDOCK:   -0.86 KCAL/MOL
REMARK 927      BINDING AFFINITY PREDICTED BY RF-SCORE:    0.00 PKD
ROOT
HETATM    1  C   UNL     1      -8.817  13.449  68.237  1.00  0.00    -0.172 C  
HETATM    2  N   UNL     1      -9.490  12.707  67.166  1.00  0.00    -0.207 NA 
ENDROOT
BRANCH   2   3
HETATM    3  C   UNL     1     -10.935  12.566  67.444  1.00  0.00    -0.259 C  
BRANCH   3   4
HETATM    4  C   UNL     1     -11.468  13.538  68.488  1.00  0.00    -0.345 A  
HETATM    5  C   UNL     1     -12.025  13.102  69.723  1.00  0.00    -0.382 A  
HETATM    6  C   UNL     1     -11.419  14.914  68.192  1.00  0.00    -0.348 A  
HETATM    7  C   UNL     1     -12.118  11.747  70.110  1.00  0.00    -0.398 A  
HETATM    8  C   UNL     1     -11.915  15.855  69.087  1.00  0.00    -0.268 A  
HETATM    9  C   UNL     1     -12.718  11.361  71.309  1.00  0.00    -0.498 A  
HETATM   10  C   UNL     1     -12.471  15.437  70.292  1.00  0.00    -0.413 A  
HETATM   11  C   UNL     1     -13.228  12.325  72.167  1.00  0.00    -0.466 A  
HETATM   12  C   UNL     1     -12.539  14.075  70.620  1.00  0.00    -0.414 A  
HETATM   13  C   UNL     1     -13.130  13.673  71.829  1.00  0.00    -0.468 A  
ENDBRANCH   3   4
ENDBRANCH   2   3
BRANCH   2  14
HETATM   14  C   UNL     1      -8.897  11.374  66.958  1.00  0.00    -0.168 C  
BRANCH  14  15
HETATM   15  C   UNL     1      -9.285  10.357  68.012  1.00  0.00    -0.142 A  
HETATM   16  C   UNL     1      -9.195   9.497  70.288  1.00  0.00    -0.303 A  
HETATM   17  C   UNL     1     -10.207   9.355  67.704  1.00  0.00    -0.281 A  
HETATM   18  C   UNL     1     -10.631   8.447  68.679  1.00  0.00    -0.149 A  
HETATM   19  C   UNL     1      -8.766  10.407  69.311  1.00  0.00    -0.160 A  
HETATM   20  C   UNL     1     -10.154   8.507  69.999  1.00  0.00    -0.195 A  
BRANCH  20  21
HETATM   21  C   UNL     1     -10.671   7.559  71.097  1.00  0.00    -0.242 C  
HETATM   22  C   UNL     1     -11.535   8.277  72.160  1.00  0.00    -0.427 C  
HETATM   23  C   UNL     1     -11.536   6.442  70.478  1.00  0.00    -0.444 C  
HETATM   24  C   UNL     1      -9.483   6.915  71.844  1.00  0.00    -0.146 C  
ENDBRANCH  20  21
ENDBRANCH  14  15
ENDBRANCH   2  14
TORSDOF 5
ENDMDL
MODEL       71
REMARK 921   NORMALIZED FREE ENERGY PREDICTED BY IDOCK:   -4.93 KCAL/MOL
REMARK 922        TOTAL FREE ENERGY PREDICTED BY IDOCK:   -8.15 KCAL/MOL
REMARK 923 INTER-LIGAND FREE ENERGY PREDICTED BY IDOCK:   -7.66 KCAL/MOL
REMARK 924 INTRA-LIGAND FREE ENERGY PREDICTED BY IDOCK:   -0.49 KCAL/MOL
REMARK 927      BINDING AFFINITY PREDICTED BY RF-SCORE:    0.00 PKD
ROOT
HETATM    1  C   UNL     1     -10.544  15.179  69.081  1.00  0.00    -0.256 C  
HETATM    2  N   UNL     1     -10.241  14.209  68.023  1.00  0.00    -0.228 NA 
ENDROOT
BRANCH   2   3
HETATM    3  C   UNL     1      -9.924  14.892  66.751  1.00  0.00    -0.246 C  
BRANCH   3   4
HETATM    4  C   UNL     1      -8.846  15.962  66.868  1.00  0.00    -0.264 A  
HETATM    5  C   UNL     1      -9.132  17.351  66.740  1.00  0.00    -0.276 A  
HETATM    6  C   UNL     1      -7.521  15.539  67.088  1.00  0.00    -0.244 A  
HETATM    7  C   UNL     1     -10.426  17.871  66.518  1.00  0.00    -0.315 A  
HETATM    8  C   UNL     1      -6.483  16.461  67.175  1.00  0.00    -0.227 A  
HETATM    9  C   UNL     1     -10.653  19.237  66.348  1.00  0.00    -0.542 A  
HETATM   10  C   UNL     1      -6.752  17.819  67.041  1.00  0.00    -0.200 A  
HETATM   11  C   UNL     1      -9.591  20.127  66.414  1.00  0.00    -0.511 A  
HETATM   12  C   UNL     1      -8.060  18.276  66.818  1.00  0.00    -0.268 A  
HETATM   13  C   UNL     1      -8.304  19.651  66.657  1.00  0.00    -0.349 A  
ENDBRANCH   3   4
ENDBRANCH   2   3
BRANCH   2  14
HETATM   14  C   UNL     1     -11.346  13.258  67.809  1.00  0.00    -0.295 C  
BRANCH  14  15
HETATM   15  C   UNL     1     -11.350  12.092  68.776  1.00  0.00    -0.339 A  
HETATM   16  C   UNL     1     -12.098  11.023  70.832  1.00  0.00    -0.444 A  
HETATM   17  C   UNL     1     -10.663  10.921  68.455  1.00  0.00    -0.240 A  
HETATM   18  C   UNL     1     -10.707   9.808  69.301  1.00  0.00    -0.246 A  
HETATM   19  C   UNL     1     -12.053  12.141  69.986  1.00  0.00    -0.352 A  
HETATM   20  C   UNL     1     -11.441   9.822  70.498  1.00  0.00    -0.370 A  
BRANCH  20  21
HETATM   21  C   UNL     1     -11.557   8.578  71.399  1.00  0.00    -0.344 C  
HETATM   22  C   UNL     1     -10.322   8.370  72.306  1.00  0.00    -0.403 C  
HETATM   23  C   UNL     1     -12.789   8.695  72.319  1.00  0.00    -0.438 C  
HETATM   24  C   UNL     1     -11.698   7.308  70.533  1.00  0.00    -0.264 C  
ENDBRANCH  20  21
ENDBRANCH  14  15
ENDBRANCH   2  14
TORSDOF 5
ENDMDL
MODEL       72
REMARK 921   NORMALIZED FREE ENERGY PREDICTED BY IDOCK:   -4.93 KCAL/MOL
REMARK 922        TOTAL FREE ENERGY PREDICTED BY IDOCK:   -8.15 KCAL/MOL
REMARK 923 INTER-LIGAND FREE ENERGY PREDICTED BY IDOCK:   -8.24 KCAL/MOL
REMARK 924 INTRA-LIGAND FREE ENERGY PREDICTED BY IDOCK:    0.10 KCAL/MOL
REMARK 927      BINDING AFFINITY PREDICTED BY RF-SCORE:    0.00 PKD
ROOT
HETATM    1  C   UNL     1      -9.744  13.118  68.435  1.00  0.00    -0.196 C  
HETATM    2  N   UNL     1     -11.069  12.814  68.986  1.00  0.00    -0.250 NA 
ENDROOT
BRANCH   2   3
HETATM    3  C   UNL     1     -11.595  11.547  68.436  1.00  0.00    -0.308 C  
BRANCH   3   4
HETATM    4  C   UNL     1     -10.886  11.070  67.175  1.00  0.00    -0.336 A  
HETATM    5  C   UNL     1     -11.170  11.611  65.890  1.00  0.00    -0.296 A  
HETATM    6  C   UNL     1      -9.935  10.040  67.305  1.00  0.00    -0.245 A  
HETATM    7  C   UNL     1     -12.106  12.643  65.659  1.00  0.00    -0.502 A  
HETATM    8  C   UNL     1      -9.271   9.537  66.191  1.00  0.00    -0.226 A  
HETATM    9  C   UNL     1     -12.390  13.108  64.374  1.00  0.00    -0.426 A  
HETATM   10  C   UNL     1      -9.550  10.053  64.930  1.00  0.00    -0.375 A  
HETATM   11  C   UNL     1     -11.729  12.565  63.281  1.00  0.00    -0.478 A  
HETATM   12  C   UNL     1     -10.494  11.077  64.762  1.00  0.00    -0.384 A  
HETATM   13  C   UNL     1     -10.781  11.563  63.475  1.00  0.00    -0.483 A  
ENDBRANCH   3   4
ENDBRANCH   2   3
BRANCH   2  14
HETATM   14  C   UNL     1     -12.036  13.898  68.736  1.00  0.00    -0.358 C  
BRANCH  14  15
HETATM   15  C   UNL     1     -11.395  15.216  68.352  1.00  0.00    -0.326 A  
HETATM   16  C   UNL     1     -10.444  17.380  68.935  1.00  0.00    -0.312 A  
HETATM   17  C   UNL     1     -11.057  15.462  67.021  1.00  0.00    -0.273 A  
HETATM   18  C   UNL     1     -10.405  16.643  66.653  1.00  0.00    -0.296 A  
HETATM   19  C   UNL     1     -11.101  16.198  69.306  1.00  0.00    -0.327 A  
HETATM   20  C   UNL     1     -10.062  17.621  67.601  1.00  0.00    -0.339 A  
BRANCH  20  21
HETATM   21  C   UNL     1      -9.278  18.890  67.217  1.00  0.00    -0.308 C  
HETATM   22  C   UNL     1      -8.853  19.732  68.442  1.00  0.00    -0.306 C  
HETATM   23  C   UNL     1      -7.995  18.515  66.448  1.00  0.00    -0.291 C  
HETATM   24  C   UNL     1     -10.147  19.801  66.325  1.00  0.00    -0.601 C  
ENDBRANCH  20  21
ENDBRANCH  14  15
ENDBRANCH   2  14
TORSDOF 5
ENDMDL
MODEL       73
REMARK 921   NORMALIZED FREE ENERGY PREDICTED BY IDOCK:   -4.92 KCAL/MOL
REMARK 922        TOTAL FREE ENERGY PREDICTED BY IDOCK:   -8.14 KCAL/MOL
REMARK 923 INTER-LIGAND FREE ENERGY PREDICTED BY IDOCK:   -7.80 KCAL/MOL
REMARK 924 INTRA-LIGAND FREE ENERGY PREDICTED BY IDOCK:   -0.35 KCAL/MOL
REMARK 927      BINDING AFFINITY PREDICTED BY RF-SCORE:    0.00 PKD
ROOT
HETATM    1  C   UNL     1     -11.651  14.423  65.373  1.00  0.00    -0.347 C  
HETATM    2  N   UNL     1     -10.939  13.331  66.045  1.00  0.00    -0.278 NA 
ENDROOT
BRANCH   2   3
HETATM    3  C   UNL     1     -11.876  12.265  66.461  1.00  0.00    -0.306 C  
BRANCH   3   4
HETATM    4  C   UNL     1     -11.203  11.050  67.087  1.00  0.00    -0.290 A  
HETATM    5  C   UNL     1     -11.355  10.718  68.463  1.00  0.00    -0.360 A  
HETATM    6  C   UNL     1     -10.386  10.253  66.262  1.00  0.00    -0.256 A  
HETATM    7  C   UNL     1     -12.150  11.455  69.367  1.00  0.00    -0.358 A  
HETATM    8  C   UNL     1      -9.718   9.147  66.775  1.00  0.00    -0.271 A  
HETATM    9  C   UNL     1     -12.230  11.122  70.720  1.00  0.00    -0.484 A  
HETATM   10  C   UNL     1      -9.853   8.820  68.121  1.00  0.00    -0.194 A  
HETATM   11  C   UNL     1     -11.529  10.027  71.205  1.00  0.00    -0.432 A  
HETATM   12  C   UNL     1     -10.656   9.593  68.973  1.00  0.00    -0.237 A  
HETATM   13  C   UNL     1     -10.754   9.263  70.335  1.00  0.00    -0.300 A  
ENDBRANCH   3   4
ENDBRANCH   2   3
BRANCH   2  14
HETATM   14  C   UNL     1     -10.179  13.802  67.216  1.00  0.00    -0.253 C  
BRANCH  14  15
HETATM   15  C   UNL     1      -9.818  15.272  67.163  1.00  0.00    -0.225 A  
HETATM   16  C   UNL     1     -10.156  17.581  67.857  1.00  0.00    -0.330 A  
HETATM   17  C   UNL     1      -8.712  15.690  66.423  1.00  0.00    -0.354 A  
HETATM   18  C   UNL     1      -8.321  17.033  66.413  1.00  0.00    -0.319 A  
HETATM   19  C   UNL     1     -10.552  16.236  67.866  1.00  0.00    -0.318 A  
HETATM   20  C   UNL     1      -9.018  18.008  67.146  1.00  0.00    -0.255 A  
BRANCH  20  21
HETATM   21  C   UNL     1      -8.551  19.475  67.202  1.00  0.00    -0.337 C  
HETATM   22  C   UNL     1      -9.722  20.478  67.319  1.00  0.00    -0.600 C  
HETATM   23  C   UNL     1      -7.629  19.698  68.418  1.00  0.00    -0.362 C  
HETATM   24  C   UNL     1      -7.778  19.835  65.916  1.00  0.00    -0.328 C  
ENDBRANCH  20  21
ENDBRANCH  14  15
ENDBRANCH   2  14
TORSDOF 5
ENDMDL
MODEL       74
REMARK 921   NORMALIZED FREE ENERGY PREDICTED BY IDOCK:   -4.91 KCAL/MOL
REMARK 922        TOTAL FREE ENERGY PREDICTED BY IDOCK:   -8.13 KCAL/MOL
REMARK 923 INTER-LIGAND FREE ENERGY PREDICTED BY IDOCK:   -6.79 KCAL/MOL
REMARK 924 INTRA-LIGAND FREE ENERGY PREDICTED BY IDOCK:   -1.34 KCAL/MOL
REMARK 927      BINDING AFFINITY PREDICTED BY RF-SCORE:    0.00 PKD
ROOT
HETATM    1  C   UNL     1     -11.574  12.887  65.961  1.00  0.00    -0.375 C  
HETATM    2  N   UNL     1     -11.050  11.900  66.911  1.00  0.00    -0.289 NA 
ENDROOT
BRANCH   2   3
HETATM    3  C   UNL     1     -10.363  12.563  68.040  1.00  0.00    -0.222 C  
BRANCH   3   4
HETATM    4  C   UNL     1     -11.285  12.970  69.181  1.00  0.00    -0.297 A  
HETATM    5  C   UNL     1     -11.793  12.032  70.124  1.00  0.00    -0.383 A  
HETATM    6  C   UNL     1     -11.655  14.326  69.277  1.00  0.00    -0.350 A  
HETATM    7  C   UNL     1     -11.480  10.655  70.111  1.00  0.00    -0.411 A  
HETATM    8  C   UNL     1     -12.518  14.761  70.276  1.00  0.00    -0.393 A  
HETATM    9  C   UNL     1     -12.041   9.762  71.024  1.00  0.00    -0.434 A  
HETATM   10  C   UNL     1     -13.026  13.850  71.196  1.00  0.00    -0.388 A  
HETATM   11  C   UNL     1     -12.920  10.226  71.993  1.00  0.00    -0.503 A  
HETATM   12  C   UNL     1     -12.682  12.491  71.130  1.00  0.00    -0.340 A  
HETATM   13  C   UNL     1     -13.230  11.583  72.051  1.00  0.00    -0.443 A  
ENDBRANCH   3   4
ENDBRANCH   2   3
BRANCH   2  14
HETATM   14  C   UNL     1     -10.131  10.944  66.268  1.00  0.00    -0.233 C  
BRANCH  14  15
HETATM   15  C   UNL     1      -9.777   9.754  67.136  1.00  0.00    -0.223 A  
HETATM   16  C   UNL     1     -10.229   7.517  67.983  1.00  0.00    -0.239 A  
HETATM   17  C   UNL     1      -8.575   9.745  67.845  1.00  0.00    -0.125 A  
HETATM   18  C   UNL     1      -8.196   8.630  68.600  1.00  0.00    -0.121 A  
HETATM   19  C   UNL     1     -10.613   8.635  67.228  1.00  0.00    -0.308 A  
HETATM   20  C   UNL     1      -9.001   7.481  68.670  1.00  0.00    -0.132 A  
BRANCH  20  21
HETATM   21  C   UNL     1      -8.557   6.221  69.437  1.00  0.00    -0.125 C  
HETATM   22  C   UNL     1      -9.675   5.158  69.553  1.00  0.00    -0.262 C  
HETATM   23  C   UNL     1      -7.360   5.555  68.728  1.00  0.00    -0.075 C  
HETATM   24  C   UNL     1      -8.140   6.594  70.875  1.00  0.00    -0.119 C  
ENDBRANCH  20  21
ENDBRANCH  14  15
ENDBRANCH   2  14
TORSDOF 5
ENDMDL
MODEL       75
REMARK 921   NORMALIZED FREE ENERGY PREDICTED BY IDOCK:   -4.91 KCAL/MOL
REMARK 922        TOTAL FREE ENERGY PREDICTED BY IDOCK:   -8.12 KCAL/MOL
REMARK 923 INTER-LIGAND FREE ENERGY PREDICTED BY IDOCK:   -7.48 KCAL/MOL
REMARK 924 INTRA-LIGAND FREE ENERGY PREDICTED BY IDOCK:   -0.64 KCAL/MOL
REMARK 927      BINDING AFFINITY PREDICTED BY RF-SCORE:    0.00 PKD
ROOT
HETATM    1  C   UNL     1     -11.587  15.507  68.427  1.00  0.00    -0.357 C  
HETATM    2  N   UNL     1     -10.854  14.573  67.566  1.00  0.00    -0.283 NA 
ENDROOT
BRANCH   2   3
HETATM    3  C   UNL     1     -10.046  15.300  66.564  1.00  0.00    -0.270 C  
BRANCH   3   4
HETATM    4  C   UNL     1      -9.080  16.316  67.157  1.00  0.00    -0.217 A  
HETATM    5  C   UNL     1      -9.297  17.720  67.065  1.00  0.00    -0.259 A  
HETATM    6  C   UNL     1      -7.923  15.830  67.797  1.00  0.00    -0.155 A  
HETATM    7  C   UNL     1     -10.423  18.303  66.444  1.00  0.00    -0.387 A  
HETATM    8  C   UNL     1      -6.984  16.703  68.335  1.00  0.00    -0.160 A  
HETATM    9  C   UNL     1     -10.571  19.686  66.331  1.00  0.00    -0.592 A  
HETATM   10  C   UNL     1      -7.184  18.076  68.241  1.00  0.00    -0.248 A  
HETATM   11  C   UNL     1      -9.600  20.529  66.856  1.00  0.00    -0.496 A  
HETATM   12  C   UNL     1      -8.322  18.597  67.608  1.00  0.00    -0.283 A  
HETATM   13  C   UNL     1      -8.489  19.988  67.498  1.00  0.00    -0.393 A  
ENDBRANCH   3   4
ENDBRANCH   2   3
BRANCH   2  14
HETATM   14  C   UNL     1     -11.753  13.627  66.882  1.00  0.00    -0.389 C  
BRANCH  14  15
HETATM   15  C   UNL     1     -11.248  12.199  66.871  1.00  0.00    -0.375 A  
HETATM   16  C   UNL     1     -10.100  10.346  65.787  1.00  0.00    -0.329 A  
HETATM   17  C   UNL     1     -11.379  11.408  68.013  1.00  0.00    -0.372 A  
HETATM   18  C   UNL     1     -10.862  10.109  68.049  1.00  0.00    -0.320 A  
HETATM   19  C   UNL     1     -10.620  11.648  65.748  1.00  0.00    -0.320 A  
HETATM   20  C   UNL     1     -10.191   9.553  66.947  1.00  0.00    -0.317 A  
BRANCH  20  21
HETATM   21  C   UNL     1      -9.552   8.152  67.003  1.00  0.00    -0.253 C  
HETATM   22  C   UNL     1     -10.595   7.011  66.999  1.00  0.00    -0.412 C  
HETATM   23  C   UNL     1      -8.628   7.936  65.788  1.00  0.00    -0.167 C  
HETATM   24  C   UNL     1      -8.722   7.999  68.295  1.00  0.00    -0.130 C  
ENDBRANCH  20  21
ENDBRANCH  14  15
ENDBRANCH   2  14
TORSDOF 5
ENDMDL
MODEL       76
REMARK 921   NORMALIZED FREE ENERGY PREDICTED BY IDOCK:   -4.90 KCAL/MOL
REMARK 922        TOTAL FREE ENERGY PREDICTED BY IDOCK:   -8.11 KCAL/MOL
REMARK 923 INTER-LIGAND FREE ENERGY PREDICTED BY IDOCK:   -7.30 KCAL/MOL
REMARK 924 INTRA-LIGAND FREE ENERGY PREDICTED BY IDOCK:   -0.81 KCAL/MOL
REMARK 927      BINDING AFFINITY PREDICTED BY RF-SCORE:    0.00 PKD
ROOT
HETATM    1  C   UNL     1      -7.858   6.661  67.945  1.00  0.00    -0.112 C  
HETATM    2  N   UNL     1      -9.257   7.040  67.717  1.00  0.00    -0.125 NA 
ENDROOT
BRANCH   2   3
HETATM    3  C   UNL     1     -10.165   5.908  67.996  1.00  0.00    -0.184 C  
BRANCH   3   4
HETATM    4  C   UNL     1     -10.190   5.471  69.454  1.00  0.00    -0.329 A  
HETATM    5  C   UNL     1     -10.663   6.316  70.497  1.00  0.00    -0.327 A  
HETATM    6  C   UNL     1      -9.703   4.186  69.764  1.00  0.00    -0.278 A  
HETATM    7  C   UNL     1     -11.169   7.618  70.286  1.00  0.00    -0.230 A  
HETATM    8  C   UNL     1      -9.669   3.734  71.079  1.00  0.00    -0.248 A  
HETATM    9  C   UNL     1     -11.575   8.432  71.344  1.00  0.00    -0.332 A  
HETATM   10  C   UNL     1     -10.119   4.558  72.105  1.00  0.00    -0.260 A  
HETATM   11  C   UNL     1     -11.502   7.959  72.647  1.00  0.00    -0.454 A  
HETATM   12  C   UNL     1     -10.609   5.844  71.834  1.00  0.00    -0.280 A  
HETATM   13  C   UNL     1     -11.032   6.671  72.889  1.00  0.00    -0.286 A  
ENDBRANCH   3   4
ENDBRANCH   2   3
BRANCH   2  14
HETATM   14  C   UNL     1      -9.483   7.527  66.345  1.00  0.00    -0.147 C  
BRANCH  14  15
HETATM   15  C   UNL     1      -9.900   8.981  66.269  1.00  0.00    -0.361 A  
HETATM   16  C   UNL     1     -10.135  11.077  65.053  1.00  0.00    -0.354 A  
HETATM   17  C   UNL     1     -10.551   9.574  67.352  1.00  0.00    -0.337 A  
HETATM   18  C   UNL     1     -11.004  10.895  67.281  1.00  0.00    -0.355 A  
HETATM   19  C   UNL     1      -9.677   9.753  65.123  1.00  0.00    -0.338 A  
HETATM   20  C   UNL     1     -10.828  11.672  66.124  1.00  0.00    -0.343 A  
BRANCH  20  21
HETATM   21  C   UNL     1     -11.390  13.102  66.009  1.00  0.00    -0.337 C  
HETATM   22  C   UNL     1     -11.901  13.662  67.356  1.00  0.00    -0.429 C  
HETATM   23  C   UNL     1     -10.302  14.065  65.492  1.00  0.00    -0.354 C  
HETATM   24  C   UNL     1     -12.584  13.125  65.030  1.00  0.00    -0.499 C  
ENDBRANCH  20  21
ENDBRANCH  14  15
ENDBRANCH   2  14
TORSDOF 5
ENDMDL
MODEL       77
REMARK 921   NORMALIZED FREE ENERGY PREDICTED BY IDOCK:   -4.84 KCAL/MOL
REMARK 922        TOTAL FREE ENERGY PREDICTED BY IDOCK:   -8.04 KCAL/MOL
REMARK 923 INTER-LIGAND FREE ENERGY PREDICTED BY IDOCK:   -6.95 KCAL/MOL
REMARK 924 INTRA-LIGAND FREE ENERGY PREDICTED BY IDOCK:   -1.08 KCAL/MOL
REMARK 927      BINDING AFFINITY PREDICTED BY RF-SCORE:    0.00 PKD
ROOT
HETATM    1  C   UNL     1     -10.309  13.807  64.904  1.00  0.00    -0.398 C  
HETATM    2  N   UNL     1     -10.642  14.575  66.109  1.00  0.00    -0.298 NA 
ENDROOT
BRANCH   2   3
HETATM    3  C   UNL     1     -11.988  14.222  66.608  1.00  0.00    -0.430 C  
BRANCH   3   4
HETATM    4  C   UNL     1     -12.031  13.851  68.084  1.00  0.00    -0.385 A  
HETATM    5  C   UNL     1     -11.744  12.536  68.550  1.00  0.00    -0.369 A  
HETATM    6  C   UNL     1     -12.390  14.854  69.005  1.00  0.00    -0.070 A  
HETATM    7  C   UNL     1     -11.376  11.466  67.706  1.00  0.00    -0.354 A  
HETATM    8  C   UNL     1     -12.478  14.577  70.365  1.00  0.00    -0.407 A  
HETATM    9  C   UNL     1     -11.153  10.180  68.200  1.00  0.00    -0.290 A  
HETATM   10  C   UNL     1     -12.209  13.293  70.827  1.00  0.00    -0.390 A  
HETATM   11  C   UNL     1     -11.275   9.932  69.560  1.00  0.00    -0.220 A  
HETATM   12  C   UNL     1     -11.851  12.268  69.939  1.00  0.00    -0.383 A  
HETATM   13  C   UNL     1     -11.612  10.971  70.424  1.00  0.00    -0.389 A  
ENDBRANCH   3   4
ENDBRANCH   2   3
BRANCH   2  14
HETATM   14  C   UNL     1     -10.568  16.029  65.879  1.00  0.00    -0.328 C  
BRANCH  14  15
HETATM   15  C   UNL     1      -9.394  16.700  66.562  1.00  0.00    -0.290 A  
HETATM   16  C   UNL     1      -7.291  17.923  66.486  1.00  0.00    -0.279 A  
HETATM   17  C   UNL     1      -9.372  16.811  67.953  1.00  0.00    -0.229 A  
HETATM   18  C   UNL     1      -8.332  17.485  68.602  1.00  0.00    -0.258 A  
HETATM   19  C   UNL     1      -8.331  17.245  65.833  1.00  0.00    -0.014 A  
HETATM   20  C   UNL     1      -7.278  18.076  67.886  1.00  0.00    -0.222 A  
BRANCH  20  21
HETATM   21  C   UNL     1      -6.169  18.884  68.585  1.00  0.00    -0.242 C  
HETATM   22  C   UNL     1      -6.710  19.841  69.673  1.00  0.00    -0.351 C  
HETATM   23  C   UNL     1      -5.162  17.935  69.266  1.00  0.00    -0.183 C  
HETATM   24  C   UNL     1      -5.417  19.754  67.555  1.00  0.00    -0.175 C  
ENDBRANCH  20  21
ENDBRANCH  14  15
ENDBRANCH   2  14
TORSDOF 5
ENDMDL
MODEL       78
REMARK 921   NORMALIZED FREE ENERGY PREDICTED BY IDOCK:   -4.84 KCAL/MOL
REMARK 922        TOTAL FREE ENERGY PREDICTED BY IDOCK:   -8.03 KCAL/MOL
REMARK 923 INTER-LIGAND FREE ENERGY PREDICTED BY IDOCK:   -6.54 KCAL/MOL
REMARK 924 INTRA-LIGAND FREE ENERGY PREDICTED BY IDOCK:   -1.50 KCAL/MOL
REMARK 927      BINDING AFFINITY PREDICTED BY RF-SCORE:    0.00 PKD
ROOT
HETATM    1  C   UNL     1      -7.261   7.214  66.579  1.00  0.00    -0.079 C  
HETATM    2  N   UNL     1      -8.375   7.610  67.448  1.00  0.00    -0.115 NA 
ENDROOT
BRANCH   2   3
HETATM    3  C   UNL     1      -8.565   6.635  68.544  1.00  0.00    -0.124 C  
BRANCH   3   4
HETATM    4  C   UNL     1      -8.804   7.268  69.909  1.00  0.00    -0.142 A  
HETATM    5  C   UNL     1     -10.080   7.261  70.540  1.00  0.00    -0.195 A  
HETATM    6  C   UNL     1      -7.715   7.896  70.542  1.00  0.00    -0.086 A  
HETATM    7  C   UNL     1     -11.230   6.658  69.984  1.00  0.00    -0.425 A  
HETATM    8  C   UNL     1      -7.870   8.519  71.776  1.00  0.00    -0.161 A  
HETATM    9  C   UNL     1     -12.473   6.720  70.614  1.00  0.00    -0.142 A  
HETATM   10  C   UNL     1      -9.115   8.526  72.395  1.00  0.00    -0.308 A  
HETATM   11  C   UNL     1     -12.598   7.373  71.832  1.00  0.00    -0.322 A  
HETATM   12  C   UNL     1     -10.223   7.913  71.792  1.00  0.00    -0.247 A  
HETATM   13  C   UNL     1     -11.479   7.957  72.421  1.00  0.00    -0.433 A  
ENDBRANCH   3   4
ENDBRANCH   2   3
BRANCH   2  14
HETATM   14  C   UNL     1      -9.635   7.762  66.701  1.00  0.00    -0.220 C  
BRANCH  14  15
HETATM   15  C   UNL     1     -10.188   9.172  66.709  1.00  0.00    -0.331 A  
HETATM   16  C   UNL     1     -11.278  11.034  67.839  1.00  0.00    -0.375 A  
HETATM   17  C   UNL     1     -10.028   9.988  65.588  1.00  0.00    -0.355 A  
HETATM   18  C   UNL     1     -10.471  11.315  65.597  1.00  0.00    -0.317 A  
HETATM   19  C   UNL     1     -10.837   9.702  67.831  1.00  0.00    -0.272 A  
HETATM   20  C   UNL     1     -11.086  11.878  66.728  1.00  0.00    -0.359 A  
BRANCH  20  21
HETATM   21  C   UNL     1     -11.509  13.358  66.774  1.00  0.00    -0.376 C  
HETATM   22  C   UNL     1     -12.007  13.802  68.169  1.00  0.00    -0.394 C  
HETATM   23  C   UNL     1     -10.321  14.267  66.398  1.00  0.00    -0.287 C  
HETATM   24  C   UNL     1     -12.665  13.611  65.782  1.00  0.00    -0.470 C  
ENDBRANCH  20  21
ENDBRANCH  14  15
ENDBRANCH   2  14
TORSDOF 5
ENDMDL
MODEL       79
REMARK 921   NORMALIZED FREE ENERGY PREDICTED BY IDOCK:   -4.83 KCAL/MOL
REMARK 922        TOTAL FREE ENERGY PREDICTED BY IDOCK:   -8.02 KCAL/MOL
REMARK 923 INTER-LIGAND FREE ENERGY PREDICTED BY IDOCK:   -7.92 KCAL/MOL
REMARK 924 INTRA-LIGAND FREE ENERGY PREDICTED BY IDOCK:   -0.10 KCAL/MOL
REMARK 927      BINDING AFFINITY PREDICTED BY RF-SCORE:    0.00 PKD
ROOT
HETATM    1  C   UNL     1      -9.068  10.031  69.170  1.00  0.00    -0.184 C  
HETATM    2  N   UNL     1      -9.783  10.331  67.925  1.00  0.00    -0.145 NA 
ENDROOT
BRANCH   2   3
HETATM    3  C   UNL     1      -9.236  11.544  67.279  1.00  0.00    -0.167 C  
BRANCH   3   4
HETATM    4  C   UNL     1      -9.710  11.757  65.847  1.00  0.00    -0.259 A  
HETATM    5  C   UNL     1      -9.346  10.884  64.784  1.00  0.00    -0.259 A  
HETATM    6  C   UNL     1     -10.520  12.879  65.583  1.00  0.00    -0.292 A  
HETATM    7  C   UNL     1      -8.540   9.736  64.950  1.00  0.00    -0.183 A  
HETATM    8  C   UNL     1     -10.963  13.151  64.293  1.00  0.00    -0.428 A  
HETATM    9  C   UNL     1      -8.165   8.935  63.870  1.00  0.00    -0.171 A  
HETATM   10  C   UNL     1     -10.603  12.307  63.247  1.00  0.00    -0.312 A  
HETATM   11  C   UNL     1      -8.603   9.250  62.592  1.00  0.00    -0.224 A  
HETATM   12  C   UNL     1      -9.796  11.183  63.472  1.00  0.00    -0.392 A  
HETATM   13  C   UNL     1      -9.421  10.361  62.396  1.00  0.00    -0.256 A  
ENDBRANCH   3   4
ENDBRANCH   2   3
BRANCH   2  14
HETATM   14  C   UNL     1     -11.230  10.499  68.143  1.00  0.00    -0.293 C  
BRANCH  14  15
HETATM   15  C   UNL     1     -11.580  11.603  69.118  1.00  0.00    -0.378 A  
HETATM   16  C   UNL     1     -11.689  13.957  69.733  1.00  0.00    -0.372 A  
HETATM   17  C   UNL     1     -12.235  11.295  70.311  1.00  0.00    -0.428 A  
HETATM   18  C   UNL     1     -12.627  12.304  71.196  1.00  0.00    -0.353 A  
HETATM   19  C   UNL     1     -11.292  12.946  68.846  1.00  0.00    -0.335 A  
HETATM   20  C   UNL     1     -12.385  13.660  70.921  1.00  0.00    -0.450 A  
BRANCH  20  21
HETATM   21  C   UNL     1     -12.880  14.783  71.852  1.00  0.00    -0.395 C  
HETATM   22  C   UNL     1     -14.354  15.174  71.599  1.00  0.00    -0.685 C  
HETATM   23  C   UNL     1     -12.766  14.345  73.327  1.00  0.00    -0.386 C  
HETATM   24  C   UNL     1     -12.034  16.057  71.642  1.00  0.00    -0.569 C  
ENDBRANCH  20  21
ENDBRANCH  14  15
ENDBRANCH   2  14
TORSDOF 5
ENDMDL
MODEL       80
REMARK 921   NORMALIZED FREE ENERGY PREDICTED BY IDOCK:   -4.80 KCAL/MOL
REMARK 922        TOTAL FREE ENERGY PREDICTED BY IDOCK:   -7.99 KCAL/MOL
REMARK 923 INTER-LIGAND FREE ENERGY PREDICTED BY IDOCK:   -6.32 KCAL/MOL
REMARK 924 INTRA-LIGAND FREE ENERGY PREDICTED BY IDOCK:   -1.67 KCAL/MOL
REMARK 927      BINDING AFFINITY PREDICTED BY RF-SCORE:    0.00 PKD
ROOT
HETATM    1  C   UNL     1      -8.272   6.067  64.556  1.00  0.00    -0.095 C  
HETATM    2  N   UNL     1      -8.638   6.702  65.827  1.00  0.00    -0.151 NA 
ENDROOT
BRANCH   2   3
HETATM    3  C   UNL     1      -7.997   8.027  65.961  1.00  0.00    -0.101 C  
BRANCH   3   4
HETATM    4  C   UNL     1      -8.870   9.193  65.517  1.00  0.00    -0.229 A  
HETATM    5  C   UNL     1      -9.693   9.919  66.423  1.00  0.00    -0.270 A  
HETATM    6  C   UNL     1      -8.866   9.535  64.151  1.00  0.00    -0.243 A  
HETATM    7  C   UNL     1      -9.765   9.651  67.808  1.00  0.00    -0.173 A  
HETATM    8  C   UNL     1      -9.662  10.569  63.672  1.00  0.00    -0.375 A  
HETATM    9  C   UNL     1     -10.625  10.355  68.652  1.00  0.00    -0.234 A  
HETATM   10  C   UNL     1     -10.477  11.277  64.549  1.00  0.00    -0.396 A  
HETATM   11  C   UNL     1     -11.426  11.364  68.136  1.00  0.00    -0.375 A  
HETATM   12  C   UNL     1     -10.509  10.963  65.916  1.00  0.00    -0.285 A  
HETATM   13  C   UNL     1     -11.361  11.672  66.779  1.00  0.00    -0.354 A  
ENDBRANCH   3   4
ENDBRANCH   2   3
BRANCH   2  14
HETATM   14  C   UNL     1      -8.287   5.864  66.987  1.00  0.00    -0.105 C  
BRANCH  14  15
HETATM   15  C   UNL     1      -9.123   6.140  68.219  1.00  0.00    -0.112 A  
HETATM   16  C   UNL     1     -11.269   6.263  69.363  1.00  0.00    -0.489 A  
HETATM   17  C   UNL     1      -8.497   6.442  69.430  1.00  0.00    -0.126 A  
HETATM   18  C   UNL     1      -9.245   6.635  70.595  1.00  0.00    -0.159 A  
HETATM   19  C   UNL     1     -10.521   6.072  68.192  1.00  0.00    -0.292 A  
HETATM   20  C   UNL     1     -10.646   6.529  70.597  1.00  0.00    -0.280 A  
BRANCH  20  21
HETATM   21  C   UNL     1     -11.473   6.665  71.890  1.00  0.00    -0.332 C  
HETATM   22  C   UNL     1     -11.461   5.383  72.754  1.00  0.00    -0.333 C  
HETATM   23  C   UNL     1     -10.922   7.813  72.760  1.00  0.00    -0.447 C  
HETATM   24  C   UNL     1     -12.948   6.962  71.546  1.00  0.00    -0.362 C  
ENDBRANCH  20  21
ENDBRANCH  14  15
ENDBRANCH   2  14
TORSDOF 5
ENDMDL
MODEL       81
REMARK 921   NORMALIZED FREE ENERGY PREDICTED BY IDOCK:   -4.80 KCAL/MOL
REMARK 922        TOTAL FREE ENERGY PREDICTED BY IDOCK:   -7.98 KCAL/MOL
REMARK 923 INTER-LIGAND FREE ENERGY PREDICTED BY IDOCK:   -6.21 KCAL/MOL
REMARK 924 INTRA-LIGAND FREE ENERGY PREDICTED BY IDOCK:   -1.77 KCAL/MOL
REMARK 927      BINDING AFFINITY PREDICTED BY RF-SCORE:    0.00 PKD
ROOT
HETATM    1  C   UNL     1     -11.514  11.869  67.044  1.00  0.00    -0.316 C  
HETATM    2  N   UNL     1     -10.797  10.717  67.602  1.00  0.00    -0.258 NA 
ENDROOT
BRANCH   2   3
HETATM    3  C   UNL     1     -10.334  10.997  68.978  1.00  0.00    -0.209 C  
BRANCH   3   4
HETATM    4  C   UNL     1     -11.332  10.616  70.064  1.00  0.00    -0.400 A  
HETATM    5  C   UNL     1     -11.507   9.273  70.502  1.00  0.00    -0.296 A  
HETATM    6  C   UNL     1     -12.117  11.641  70.625  1.00  0.00    -0.432 A  
HETATM    7  C   UNL     1     -10.769   8.178  70.001  1.00  0.00    -0.243 A  
HETATM    8  C   UNL     1     -13.069  11.360  71.599  1.00  0.00    -0.498 A  
HETATM    9  C   UNL     1     -11.009   6.870  70.423  1.00  0.00    -0.315 A  
HETATM   10  C   UNL     1     -13.253  10.049  72.026  1.00  0.00    -0.545 A  
HETATM   11  C   UNL     1     -11.986   6.621  71.377  1.00  0.00    -0.405 A  
HETATM   12  C   UNL     1     -12.491   9.001  71.488  1.00  0.00    -0.395 A  
HETATM   13  C   UNL     1     -12.715   7.681  71.913  1.00  0.00    -0.320 A  
ENDBRANCH   3   4
ENDBRANCH   2   3
BRANCH   2  14
HETATM   14  C   UNL     1      -9.649  10.321  66.768  1.00  0.00    -0.172 C  
BRANCH  14  15
HETATM   15  C   UNL     1      -9.217   8.882  66.962  1.00  0.00    -0.171 A  
HETATM   16  C   UNL     1      -7.666   7.214  67.823  1.00  0.00    -0.112 A  
HETATM   17  C   UNL     1     -10.045   7.844  66.533  1.00  0.00    -0.246 A  
HETATM   18  C   UNL     1      -9.697   6.509  66.761  1.00  0.00    -0.208 A  
HETATM   19  C   UNL     1      -8.011   8.554  67.592  1.00  0.00    -0.107 A  
HETATM   20  C   UNL     1      -8.512   6.160  67.430  1.00  0.00    -0.107 A  
BRANCH  20  21
HETATM   21  C   UNL     1      -8.158   4.696  67.752  1.00  0.00    -0.096 C  
HETATM   22  C   UNL     1      -7.640   3.914  66.522  1.00  0.00    -0.088 C  
HETATM   23  C   UNL     1      -7.059   4.635  68.832  1.00  0.00    -0.052 C  
HETATM   24  C   UNL     1      -9.407   3.949  68.267  1.00  0.00    -0.221 C  
ENDBRANCH  20  21
ENDBRANCH  14  15
ENDBRANCH   2  14
TORSDOF 5
ENDMDL
MODEL       82
REMARK 921   NORMALIZED FREE ENERGY PREDICTED BY IDOCK:   -4.78 KCAL/MOL
REMARK 922        TOTAL FREE ENERGY PREDICTED BY IDOCK:   -7.96 KCAL/MOL
REMARK 923 INTER-LIGAND FREE ENERGY PREDICTED BY IDOCK:   -7.17 KCAL/MOL
REMARK 924 INTRA-LIGAND FREE ENERGY PREDICTED BY IDOCK:   -0.79 KCAL/MOL
REMARK 927      BINDING AFFINITY PREDICTED BY RF-SCORE:    0.00 PKD
ROOT
HETATM    1  C   UNL     1     -10.407  13.928  65.261  1.00  0.00    -0.378 C  
HETATM    2  N   UNL     1     -10.850  13.954  66.660  1.00  0.00    -0.288 NA 
ENDROOT
BRANCH   2   3
HETATM    3  C   UNL     1     -11.939  12.981  66.889  1.00  0.00    -0.352 C  
BRANCH   3   4
HETATM    4  C   UNL     1     -11.636  11.946  67.965  1.00  0.00    -0.401 A  
HETATM    5  C   UNL     1     -10.961  10.725  67.681  1.00  0.00    -0.365 A  
HETATM    6  C   UNL     1     -12.069  12.216  69.278  1.00  0.00    -0.234 A  
HETATM    7  C   UNL     1     -10.491  10.366  66.399  1.00  0.00    -0.246 A  
HETATM    8  C   UNL     1     -11.852  11.301  70.302  1.00  0.00    -0.446 A  
HETATM    9  C   UNL     1      -9.880   9.135  66.155  1.00  0.00    -0.363 A  
HETATM   10  C   UNL     1     -11.202  10.101  70.032  1.00  0.00    -0.361 A  
HETATM   11  C   UNL     1      -9.703   8.234  67.196  1.00  0.00    -0.255 A  
HETATM   12  C   UNL     1     -10.760   9.798  68.735  1.00  0.00    -0.243 A  
HETATM   13  C   UNL     1     -10.132   8.567  68.478  1.00  0.00    -0.214 A  
ENDBRANCH   3   4
ENDBRANCH   2   3
BRANCH   2  14
HETATM   14  C   UNL     1     -11.292  15.296  67.077  1.00  0.00    -0.230 C  
BRANCH  14  15
HETATM   15  C   UNL     1     -10.164  16.295  67.230  1.00  0.00    -0.279 A  
HETATM   16  C   UNL     1      -9.026  18.350  66.588  1.00  0.00    -0.295 A  
HETATM   17  C   UNL     1      -9.232  16.139  68.257  1.00  0.00    -0.197 A  
HETATM   18  C   UNL     1      -8.222  17.084  68.459  1.00  0.00    -0.259 A  
HETATM   19  C   UNL     1     -10.039  17.401  66.381  1.00  0.00    -0.330 A  
HETATM   20  C   UNL     1      -8.105  18.223  67.645  1.00  0.00    -0.249 A  
BRANCH  20  21
HETATM   21  C   UNL     1      -7.042  19.307  67.906  1.00  0.00    -0.273 C  
HETATM   22  C   UNL     1      -6.880  19.648  69.406  1.00  0.00    -0.377 C  
HETATM   23  C   UNL     1      -5.666  18.844  67.387  1.00  0.00    -0.160 C  
HETATM   24  C   UNL     1      -7.433  20.616  67.187  1.00  0.00    -0.381 C  
ENDBRANCH  20  21
ENDBRANCH  14  15
ENDBRANCH   2  14
TORSDOF 5
ENDMDL
MODEL       83
REMARK 921   NORMALIZED FREE ENERGY PREDICTED BY IDOCK:   -4.75 KCAL/MOL
REMARK 922        TOTAL FREE ENERGY PREDICTED BY IDOCK:   -7.92 KCAL/MOL
REMARK 923 INTER-LIGAND FREE ENERGY PREDICTED BY IDOCK:   -7.79 KCAL/MOL
REMARK 924 INTRA-LIGAND FREE ENERGY PREDICTED BY IDOCK:   -0.14 KCAL/MOL
REMARK 927      BINDING AFFINITY PREDICTED BY RF-SCORE:    0.00 PKD
ROOT
HETATM    1  C   UNL     1      -7.677  13.481  68.517  1.00  0.00    -0.125 C  
HETATM    2  N   UNL     1      -8.370  14.648  67.960  1.00  0.00    -0.138 NA 
ENDROOT
BRANCH   2   3
HETATM    3  C   UNL     1      -8.353  15.779  68.913  1.00  0.00    -0.213 C  
BRANCH   3   4
HETATM    4  C   UNL     1      -7.703  17.044  68.370  1.00  0.00    -0.230 A  
HETATM    5  C   UNL     1      -8.441  18.234  68.114  1.00  0.00    -0.290 A  
HETATM    6  C   UNL     1      -6.321  17.008  68.096  1.00  0.00    -0.143 A  
HETATM    7  C   UNL     1      -9.827  18.367  68.355  1.00  0.00    -0.396 A  
HETATM    8  C   UNL     1      -5.669  18.118  67.571  1.00  0.00    -0.146 A  
HETATM    9  C   UNL     1     -10.522  19.535  68.041  1.00  0.00    -0.528 A  
HETATM   10  C   UNL     1      -6.385  19.281  67.309  1.00  0.00    -0.195 A  
HETATM   11  C   UNL     1      -9.844  20.615  67.493  1.00  0.00    -0.485 A  
HETATM   12  C   UNL     1      -7.763  19.353  67.566  1.00  0.00    -0.289 A  
HETATM   13  C   UNL     1      -8.472  20.528  67.266  1.00  0.00    -0.365 A  
ENDBRANCH   3   4
ENDBRANCH   2   3
BRANCH   2  14
HETATM   14  C   UNL     1      -9.761  14.340  67.585  1.00  0.00    -0.220 C  
BRANCH  14  15
HETATM   15  C   UNL     1     -10.730  14.361  68.748  1.00  0.00    -0.258 A  
HETATM   16  C   UNL     1     -12.150  13.225  70.367  1.00  0.00    -0.401 A  
HETATM   17  C   UNL     1     -11.041  15.570  69.372  1.00  0.00    -0.291 A  
HETATM   18  C   UNL     1     -11.881  15.605  70.490  1.00  0.00    -0.402 A  
HETATM   19  C   UNL     1     -11.310  13.187  69.245  1.00  0.00    -0.312 A  
HETATM   20  C   UNL     1     -12.439  14.434  71.029  1.00  0.00    -0.425 A  
BRANCH  20  21
HETATM   21  C   UNL     1     -13.304  14.454  72.303  1.00  0.00    -0.512 C  
HETATM   22  C   UNL     1     -12.485  14.726  73.587  1.00  0.00    -0.503 C  
HETATM   23  C   UNL     1     -14.382  15.552  72.203  1.00  0.00    -0.598 C  
HETATM   24  C   UNL     1     -13.999  13.088  72.494  1.00  0.00    -0.320 C  
ENDBRANCH  20  21
ENDBRANCH  14  15
ENDBRANCH   2  14
TORSDOF 5
ENDMDL
MODEL       84
REMARK 921   NORMALIZED FREE ENERGY PREDICTED BY IDOCK:   -4.71 KCAL/MOL
REMARK 922        TOTAL FREE ENERGY PREDICTED BY IDOCK:   -7.86 KCAL/MOL
REMARK 923 INTER-LIGAND FREE ENERGY PREDICTED BY IDOCK:   -7.02 KCAL/MOL
REMARK 924 INTRA-LIGAND FREE ENERGY PREDICTED BY IDOCK:   -0.85 KCAL/MOL
REMARK 927      BINDING AFFINITY PREDICTED BY RF-SCORE:    0.00 PKD
ROOT
HETATM    1  C   UNL     1      -8.881   6.476  66.243  1.00  0.00    -0.146 C  
HETATM    2  N   UNL     1     -10.059   7.194  66.741  1.00  0.00    -0.219 NA 
ENDROOT
BRANCH   2   3
HETATM    3  C   UNL     1      -9.682   8.178  67.777  1.00  0.00    -0.157 C  
BRANCH   3   4
HETATM    4  C   UNL     1     -10.257   9.571  67.556  1.00  0.00    -0.283 A  
HETATM    5  C   UNL     1     -10.883  10.312  68.597  1.00  0.00    -0.272 A  
HETATM    6  C   UNL     1     -10.175  10.118  66.261  1.00  0.00    -0.288 A  
HETATM    7  C   UNL     1     -11.014   9.849  69.925  1.00  0.00    -0.321 A  
HETATM    8  C   UNL     1     -10.706  11.372  65.982  1.00  0.00    -0.318 A  
HETATM    9  C   UNL     1     -11.681  10.588  70.902  1.00  0.00    -0.431 A  
HETATM   10  C   UNL     1     -11.329  12.100  66.991  1.00  0.00    -0.398 A  
HETATM   11  C   UNL     1     -12.223  11.825  70.582  1.00  0.00    -0.443 A  
HETATM   12  C   UNL     1     -11.431  11.585  68.292  1.00  0.00    -0.368 A  
HETATM   13  C   UNL     1     -12.091  12.324  69.289  1.00  0.00    -0.219 A  
ENDBRANCH   3   4
ENDBRANCH   2   3
BRANCH   2  14
HETATM   14  C   UNL     1     -11.080   6.278  67.280  1.00  0.00    -0.296 C  
BRANCH  14  15
HETATM   15  C   UNL     1     -10.885   5.932  68.741  1.00  0.00    -0.353 A  
HETATM   16  C   UNL     1      -9.662   4.823  70.530  1.00  0.00    -0.281 A  
HETATM   17  C   UNL     1     -11.717   6.501  69.706  1.00  0.00    -0.293 A  
HETATM   18  C   UNL     1     -11.514   6.249  71.067  1.00  0.00    -0.370 A  
HETATM   19  C   UNL     1      -9.865   5.072  69.165  1.00  0.00    -0.262 A  
HETATM   20  C   UNL     1     -10.470   5.423  71.515  1.00  0.00    -0.289 A  
BRANCH  20  21
HETATM   21  C   UNL     1     -10.192   5.199  73.014  1.00  0.00    -0.217 C  
HETATM   22  C   UNL     1     -10.420   6.468  73.868  1.00  0.00    -0.329 C  
HETATM   23  C   UNL     1     -11.115   4.097  73.572  1.00  0.00    -0.359 C  
HETATM   24  C   UNL     1      -8.723   4.775  73.223  1.00  0.00    -0.104 C  
ENDBRANCH  20  21
ENDBRANCH  14  15
ENDBRANCH   2  14
TORSDOF 5
ENDMDL
MODEL       85
REMARK 921   NORMALIZED FREE ENERGY PREDICTED BY IDOCK:   -4.70 KCAL/MOL
REMARK 922        TOTAL FREE ENERGY PREDICTED BY IDOCK:   -7.85 KCAL/MOL
REMARK 923 INTER-LIGAND FREE ENERGY PREDICTED BY IDOCK:   -6.80 KCAL/MOL
REMARK 924 INTRA-LIGAND FREE ENERGY PREDICTED BY IDOCK:   -1.05 KCAL/MOL
REMARK 927      BINDING AFFINITY PREDICTED BY RF-SCORE:    0.00 PKD
ROOT
HETATM    1  C   UNL     1      -7.221   7.211  67.274  1.00  0.00    -0.086 C  
HETATM    2  N   UNL     1      -8.583   7.397  67.786  1.00  0.00    -0.120 NA 
ENDROOT
BRANCH   2   3
HETATM    3  C   UNL     1      -9.014   6.229  68.583  1.00  0.00    -0.127 C  
BRANCH   3   4
HETATM    4  C   UNL     1      -9.864   6.581  69.797  1.00  0.00    -0.182 A  
HETATM    5  C   UNL     1      -9.299   7.073  71.008  1.00  0.00    -0.159 A  
HETATM    6  C   UNL     1     -11.255   6.383  69.706  1.00  0.00    -0.484 A  
HETATM    7  C   UNL     1      -7.919   7.303  71.196  1.00  0.00    -0.101 A  
HETATM    8  C   UNL     1     -12.087   6.655  70.786  1.00  0.00    -0.364 A  
HETATM    9  C   UNL     1      -7.402   7.738  72.417  1.00  0.00    -0.094 A  
HETATM   10  C   UNL     1     -11.543   7.127  71.976  1.00  0.00    -0.317 A  
HETATM   11  C   UNL     1      -8.258   7.974  73.484  1.00  0.00    -0.271 A  
HETATM   12  C   UNL     1     -10.161   7.333  72.105  1.00  0.00    -0.216 A  
HETATM   13  C   UNL     1      -9.629   7.782  73.325  1.00  0.00    -0.346 A  
ENDBRANCH   3   4
ENDBRANCH   2   3
BRANCH   2  14
HETATM   14  C   UNL     1      -9.553   7.640  66.704  1.00  0.00    -0.206 C  
BRANCH  14  15
HETATM   15  C   UNL     1      -9.945   9.095  66.545  1.00  0.00    -0.359 A  
HETATM   16  C   UNL     1     -10.102  11.133  65.223  1.00  0.00    -0.329 A  
HETATM   17  C   UNL     1     -10.626   9.747  67.573  1.00  0.00    -0.335 A  
HETATM   18  C   UNL     1     -11.055  11.070  67.423  1.00  0.00    -0.370 A  
HETATM   19  C   UNL     1      -9.667   9.808  65.373  1.00  0.00    -0.383 A  
HETATM   20  C   UNL     1     -10.825  11.789  66.238  1.00  0.00    -0.325 A  
BRANCH  20  21
HETATM   21  C   UNL     1     -11.359  13.219  66.035  1.00  0.00    -0.329 C  
HETATM   22  C   UNL     1     -10.294  14.189  65.473  1.00  0.00    -0.368 C  
HETATM   23  C   UNL     1     -12.544  13.213  65.047  1.00  0.00    -0.499 C  
HETATM   24  C   UNL     1     -11.834  13.804  67.382  1.00  0.00    -0.431 C  
ENDBRANCH  20  21
ENDBRANCH  14  15
ENDBRANCH   2  14
TORSDOF 5
ENDMDL
MODEL       86
REMARK 921   NORMALIZED FREE ENERGY PREDICTED BY IDOCK:   -4.68 KCAL/MOL
REMARK 922        TOTAL FREE ENERGY PREDICTED BY IDOCK:   -7.83 KCAL/MOL
REMARK 923 INTER-LIGAND FREE ENERGY PREDICTED BY IDOCK:   -6.48 KCAL/MOL
REMARK 924 INTRA-LIGAND FREE ENERGY PREDICTED BY IDOCK:   -1.35 KCAL/MOL
REMARK 927      BINDING AFFINITY PREDICTED BY RF-SCORE:    0.00 PKD
ROOT
HETATM    1  C   UNL     1     -12.191  12.115  63.662  1.00  0.00    -0.562 C  
HETATM    2  N   UNL     1     -11.482  12.582  64.858  1.00  0.00    -0.315 NA 
ENDROOT
BRANCH   2   3
HETATM    3  C   UNL     1     -11.035  11.444  65.688  1.00  0.00    -0.190 C  
BRANCH   3   4
HETATM    4  C   UNL     1      -9.533  11.404  65.938  1.00  0.00    -0.251 A  
HETATM    5  C   UNL     1      -8.656  10.572  65.187  1.00  0.00    -0.187 A  
HETATM    6  C   UNL     1      -9.016  12.211  66.970  1.00  0.00    -0.201 A  
HETATM    7  C   UNL     1      -9.078   9.729  64.136  1.00  0.00    -0.289 A  
HETATM    8  C   UNL     1      -7.659  12.202  67.272  1.00  0.00    -0.156 A  
HETATM    9  C   UNL     1      -8.191   8.891  63.459  1.00  0.00    -0.177 A  
HETATM   10  C   UNL     1      -6.796  11.384  66.549  1.00  0.00    -0.064 A  
HETATM   11  C   UNL     1      -6.847   8.886  63.805  1.00  0.00    -0.088 A  
HETATM   12  C   UNL     1      -7.276  10.564  65.517  1.00  0.00    -0.103 A  
HETATM   13  C   UNL     1      -6.391   9.724  64.820  1.00  0.00    -0.097 A  
ENDBRANCH   3   4
ENDBRANCH   2   3
BRANCH   2  14
HETATM   14  C   UNL     1     -12.307  13.492  65.672  1.00  0.00    -0.476 C  
BRANCH  14  15
HETATM   15  C   UNL     1     -11.548  14.681  66.224  1.00  0.00    -0.344 A  
HETATM   16  C   UNL     1     -10.781  16.050  68.085  1.00  0.00    -0.311 A  
HETATM   17  C   UNL     1     -10.802  15.489  65.364  1.00  0.00    -0.402 A  
HETATM   18  C   UNL     1     -10.041  16.552  65.860  1.00  0.00    -0.359 A  
HETATM   19  C   UNL     1     -11.547  14.985  67.590  1.00  0.00    -0.327 A  
HETATM   20  C   UNL     1      -9.993  16.846  67.232  1.00  0.00    -0.277 A  
BRANCH  20  21
HETATM   21  C   UNL     1      -9.099  17.967  67.796  1.00  0.00    -0.262 C  
HETATM   22  C   UNL     1      -7.905  17.433  68.620  1.00  0.00    -0.274 C  
HETATM   23  C   UNL     1      -8.521  18.820  66.648  1.00  0.00    -0.299 C  
HETATM   24  C   UNL     1      -9.919  18.880  68.732  1.00  0.00    -0.466 C  
ENDBRANCH  20  21
ENDBRANCH  14  15
ENDBRANCH   2  14
TORSDOF 5
ENDMDL
MODEL       87
REMARK 921   NORMALIZED FREE ENERGY PREDICTED BY IDOCK:   -4.66 KCAL/MOL
REMARK 922        TOTAL FREE ENERGY PREDICTED BY IDOCK:   -7.81 KCAL/MOL
REMARK 923 INTER-LIGAND FREE ENERGY PREDICTED BY IDOCK:   -7.76 KCAL/MOL
REMARK 924 INTRA-LIGAND FREE ENERGY PREDICTED BY IDOCK:   -0.05 KCAL/MOL
REMARK 927      BINDING AFFINITY PREDICTED BY RF-SCORE:    0.00 PKD
ROOT
HETATM    1  C   UNL     1      -9.601  10.626  69.136  1.00  0.00    -0.177 C  
HETATM    2  N   UNL     1     -10.975  10.209  69.434  1.00  0.00    -0.234 NA 
ENDROOT
BRANCH   2   3
HETATM    3  C   UNL     1     -11.950  11.205  68.943  1.00  0.00    -0.298 C  
BRANCH   3   4
HETATM    4  C   UNL     1     -11.604  12.646  69.294  1.00  0.00    -0.376 A  
HETATM    5  C   UNL     1     -12.135  13.301  70.440  1.00  0.00    -0.401 A  
HETATM    6  C   UNL     1     -10.742  13.345  68.427  1.00  0.00    -0.271 A  
HETATM    7  C   UNL     1     -13.005  12.685  71.366  1.00  0.00    -0.353 A  
HETATM    8  C   UNL     1     -10.407  14.672  68.671  1.00  0.00    -0.246 A  
HETATM    9  C   UNL     1     -13.543  13.381  72.450  1.00  0.00    -0.708 A  
HETATM   10  C   UNL     1     -10.930  15.324  69.784  1.00  0.00    -0.295 A  
HETATM   11  C   UNL     1     -13.209  14.713  72.649  1.00  0.00    -0.556 A  
HETATM   12  C   UNL     1     -11.793  14.660  70.668  1.00  0.00    -0.367 A  
HETATM   13  C   UNL     1     -12.333  15.345  71.769  1.00  0.00    -0.453 A  
ENDBRANCH   3   4
ENDBRANCH   2   3
BRANCH   2  14
HETATM   14  C   UNL     1     -11.185   9.983  70.875  1.00  0.00    -0.341 C  
BRANCH  14  15
HETATM   15  C   UNL     1     -10.936   8.556  71.316  1.00  0.00    -0.316 A  
HETATM   16  C   UNL     1     -10.819   6.167  70.859  1.00  0.00    -0.342 A  
HETATM   17  C   UNL     1     -10.480   8.298  72.610  1.00  0.00    -0.373 A  
HETATM   18  C   UNL     1     -10.181   6.995  73.018  1.00  0.00    -0.264 A  
HETATM   19  C   UNL     1     -11.124   7.474  70.449  1.00  0.00    -0.277 A  
HETATM   20  C   UNL     1     -10.321   5.900  72.149  1.00  0.00    -0.241 A  
BRANCH  20  21
HETATM   21  C   UNL     1      -9.922   4.471  72.565  1.00  0.00    -0.225 C  
HETATM   22  C   UNL     1     -10.925   3.825  73.549  1.00  0.00    -0.339 C  
HETATM   23  C   UNL     1      -9.837   3.556  71.327  1.00  0.00    -0.205 C  
HETATM   24  C   UNL     1      -8.548   4.488  73.269  1.00  0.00    -0.101 C  
ENDBRANCH  20  21
ENDBRANCH  14  15
ENDBRANCH   2  14
TORSDOF 5
ENDMDL
MODEL       88
REMARK 921   NORMALIZED FREE ENERGY PREDICTED BY IDOCK:   -4.60 KCAL/MOL
REMARK 922        TOTAL FREE ENERGY PREDICTED BY IDOCK:   -7.72 KCAL/MOL
REMARK 923 INTER-LIGAND FREE ENERGY PREDICTED BY IDOCK:   -6.97 KCAL/MOL
REMARK 924 INTRA-LIGAND FREE ENERGY PREDICTED BY IDOCK:   -0.75 KCAL/MOL
REMARK 927      BINDING AFFINITY PREDICTED BY RF-SCORE:    0.00 PKD
ROOT
HETATM    1  C   UNL     1     -13.248  10.379  71.081  1.00  0.00    -0.310 C  
HETATM    2  N   UNL     1     -12.472  11.377  70.337  1.00  0.00    -0.285 NA 
ENDROOT
BRANCH   2   3
HETATM    3  C   UNL     1     -11.063  10.955  70.194  1.00  0.00    -0.161 C  
BRANCH   3   4
HETATM    4  C   UNL     1     -10.810  10.002  69.033  1.00  0.00    -0.253 A  
HETATM    5  C   UNL     1     -10.767   8.589  69.200  1.00  0.00    -0.128 A  
HETATM    6  C   UNL     1     -10.590  10.561  67.759  1.00  0.00    -0.285 A  
HETATM    7  C   UNL     1     -10.975   7.937  70.435  1.00  0.00    -0.251 A  
HETATM    8  C   UNL     1     -10.324   9.752  66.661  1.00  0.00    -0.276 A  
HETATM    9  C   UNL     1     -10.874   6.551  70.564  1.00  0.00    -0.323 A  
HETATM   10  C   UNL     1     -10.271   8.370  66.817  1.00  0.00    -0.376 A  
HETATM   11  C   UNL     1     -10.580   5.774  69.451  1.00  0.00    -0.383 A  
HETATM   12  C   UNL     1     -10.482   7.778  68.071  1.00  0.00    -0.244 A  
HETATM   13  C   UNL     1     -10.395   6.383  68.213  1.00  0.00    -0.228 A  
ENDBRANCH   3   4
ENDBRANCH   2   3
BRANCH   2  14
HETATM   14  C   UNL     1     -12.526  12.707  70.970  1.00  0.00    -0.260 C  
BRANCH  14  15
HETATM   15  C   UNL     1     -11.961  13.819  70.112  1.00  0.00    -0.404 A  
HETATM   16  C   UNL     1     -10.657  15.857  69.842  1.00  0.00    -0.327 A  
HETATM   17  C   UNL     1     -12.139  13.789  68.728  1.00  0.00    -0.344 A  
HETATM   18  C   UNL     1     -11.570  14.769  67.909  1.00  0.00    -0.373 A  
HETATM   19  C   UNL     1     -11.229  14.877  70.665  1.00  0.00    -0.229 A  
HETATM   20  C   UNL     1     -10.797  15.814  68.441  1.00  0.00    -0.297 A  
BRANCH  20  21
HETATM   21  C   UNL     1     -10.103  16.855  67.542  1.00  0.00    -0.282 C  
HETATM   22  C   UNL     1     -10.155  16.489  66.041  1.00  0.00    -0.368 C  
HETATM   23  C   UNL     1     -10.774  18.235  67.703  1.00  0.00    -0.373 C  
HETATM   24  C   UNL     1      -8.613  16.977  67.924  1.00  0.00    -0.207 C  
ENDBRANCH  20  21
ENDBRANCH  14  15
ENDBRANCH   2  14
TORSDOF 5
ENDMDL
MODEL       89
REMARK 921   NORMALIZED FREE ENERGY PREDICTED BY IDOCK:   -4.58 KCAL/MOL
REMARK 922        TOTAL FREE ENERGY PREDICTED BY IDOCK:   -7.69 KCAL/MOL
REMARK 923 INTER-LIGAND FREE ENERGY PREDICTED BY IDOCK:   -6.32 KCAL/MOL
REMARK 924 INTRA-LIGAND FREE ENERGY PREDICTED BY IDOCK:   -1.38 KCAL/MOL
REMARK 927      BINDING AFFINITY PREDICTED BY RF-SCORE:    0.00 PKD
ROOT
HETATM    1  C   UNL     1     -10.400  20.323  69.060  1.00  0.00     0.067 C  
HETATM    2  N   UNL     1      -9.625  19.554  68.081  1.00  0.00    -0.349 NA 
ENDROOT
BRANCH   2   3
HETATM    3  C   UNL     1      -8.404  20.284  67.679  1.00  0.00    -0.268 C  
BRANCH   3   4
HETATM    4  C   UNL     1      -7.393  19.440  66.915  1.00  0.00    -0.232 A  
HETATM    5  C   UNL     1      -6.822  18.254  67.458  1.00  0.00    -0.203 A  
HETATM    6  C   UNL     1      -7.005  19.878  65.634  1.00  0.00    -0.331 A  
HETATM    7  C   UNL     1      -7.147  17.737  68.731  1.00  0.00    -0.263 A  
HETATM    8  C   UNL     1      -6.065  19.171  64.892  1.00  0.00    -0.312 A  
HETATM    9  C   UNL     1      -6.525  16.598  69.246  1.00  0.00    -0.205 A  
HETATM   10  C   UNL     1      -5.494  18.017  65.420  1.00  0.00    -0.151 A  
HETATM   11  C   UNL     1      -5.570  15.932  68.490  1.00  0.00    -0.101 A  
HETATM   12  C   UNL     1      -5.855  17.553  66.694  1.00  0.00    -0.226 A  
HETATM   13  C   UNL     1      -5.244  16.401  67.219  1.00  0.00    -0.118 A  
ENDBRANCH   3   4
ENDBRANCH   2   3
BRANCH   2  14
HETATM   14  C   UNL     1     -10.417  19.222  66.884  1.00  0.00    -0.449 C  
BRANCH  14  15
HETATM   15  C   UNL     1     -10.534  17.735  66.618  1.00  0.00    -0.300 A  
HETATM   16  C   UNL     1     -10.826  15.443  67.386  1.00  0.00    -0.309 A  
HETATM   17  C   UNL     1     -10.561  17.265  65.304  1.00  0.00    -0.002 A  
HETATM   18  C   UNL     1     -10.735  15.904  65.033  1.00  0.00    -0.426 A  
HETATM   19  C   UNL     1     -10.648  16.807  67.660  1.00  0.00    -0.325 A  
HETATM   20  C   UNL     1     -10.894  14.962  66.064  1.00  0.00    -0.328 A  
BRANCH  20  21
HETATM   21  C   UNL     1     -11.162  13.473  65.774  1.00  0.00    -0.308 C  
HETATM   22  C   UNL     1     -10.341  12.931  64.581  1.00  0.00    -0.366 C  
HETATM   23  C   UNL     1     -10.807  12.615  67.005  1.00  0.00    -0.282 C  
HETATM   24  C   UNL     1     -12.651  13.260  65.429  1.00  0.00    -0.526 C  
ENDBRANCH  20  21
ENDBRANCH  14  15
ENDBRANCH   2  14
TORSDOF 5
ENDMDL
MODEL       90
REMARK 921   NORMALIZED FREE ENERGY PREDICTED BY IDOCK:   -4.56 KCAL/MOL
REMARK 922        TOTAL FREE ENERGY PREDICTED BY IDOCK:   -7.67 KCAL/MOL
REMARK 923 INTER-LIGAND FREE ENERGY PREDICTED BY IDOCK:   -6.77 KCAL/MOL
REMARK 924 INTRA-LIGAND FREE ENERGY PREDICTED BY IDOCK:   -0.91 KCAL/MOL
REMARK 927      BINDING AFFINITY PREDICTED BY RF-SCORE:    0.00 PKD
ROOT
HETATM    1  C   UNL     1     -11.777  12.177  65.167  1.00  0.00    -0.310 C  
HETATM    2  N   UNL     1     -11.262  12.774  66.404  1.00  0.00    -0.286 NA 
ENDROOT
BRANCH   2   3
HETATM    3  C   UNL     1     -11.116  11.755  67.465  1.00  0.00    -0.272 C  
BRANCH   3   4
HETATM    4  C   UNL     1      -9.702  11.213  67.621  1.00  0.00    -0.184 A  
HETATM    5  C   UNL     1      -9.379   9.845  67.399  1.00  0.00    -0.158 A  
HETATM    6  C   UNL     1      -8.694  12.111  68.023  1.00  0.00    -0.180 A  
HETATM    7  C   UNL     1     -10.318   8.870  66.995  1.00  0.00    -0.340 A  
HETATM    8  C   UNL     1      -7.387  11.678  68.214  1.00  0.00    -0.093 A  
HETATM    9  C   UNL     1      -9.969   7.529  66.838  1.00  0.00    -0.318 A  
HETATM   10  C   UNL     1      -7.065  10.340  68.009  1.00  0.00    -0.083 A  
HETATM   11  C   UNL     1      -8.660   7.125  67.063  1.00  0.00    -0.122 A  
HETATM   12  C   UNL     1      -8.043   9.417  67.611  1.00  0.00    -0.106 A  
HETATM   13  C   UNL     1      -7.702   8.065  67.437  1.00  0.00    -0.102 A  
ENDBRANCH   3   4
ENDBRANCH   2   3
BRANCH   2  14
HETATM   14  C   UNL     1     -12.118  13.871  66.890  1.00  0.00    -0.430 C  
BRANCH  14  15
HETATM   15  C   UNL     1     -11.398  15.196  67.033  1.00  0.00    -0.277 A  
HETATM   16  C   UNL     1     -10.175  17.077  66.088  1.00  0.00    -0.346 A  
HETATM   17  C   UNL     1     -11.371  15.841  68.270  1.00  0.00    -0.354 A  
HETATM   18  C   UNL     1     -10.770  17.096  68.411  1.00  0.00    -0.347 A  
HETATM   19  C   UNL     1     -10.775  15.817  65.944  1.00  0.00    -0.320 A  
HETATM   20  C   UNL     1     -10.177  17.755  67.322  1.00  0.00    -0.350 A  
BRANCH  20  21
HETATM   21  C   UNL     1      -9.579  19.169  67.451  1.00  0.00    -0.373 C  
HETATM   22  C   UNL     1     -10.108  19.940  68.682  1.00  0.00    -0.518 C  
HETATM   23  C   UNL     1      -8.044  19.092  67.579  1.00  0.00    -0.301 C  
HETATM   24  C   UNL     1      -9.934  20.010  66.206  1.00  0.00    -0.597 C  
ENDBRANCH  20  21
ENDBRANCH  14  15
ENDBRANCH   2  14
TORSDOF 5
ENDMDL
MODEL       91
REMARK 921   NORMALIZED FREE ENERGY PREDICTED BY IDOCK:   -4.54 KCAL/MOL
REMARK 922        TOTAL FREE ENERGY PREDICTED BY IDOCK:   -7.65 KCAL/MOL
REMARK 923 INTER-LIGAND FREE ENERGY PREDICTED BY IDOCK:   -6.09 KCAL/MOL
REMARK 924 INTRA-LIGAND FREE ENERGY PREDICTED BY IDOCK:   -1.56 KCAL/MOL
REMARK 927      BINDING AFFINITY PREDICTED BY RF-SCORE:    0.00 PKD
ROOT
HETATM    1  C   UNL     1     -12.027  14.045  69.510  1.00  0.00    -0.339 C  
HETATM    2  N   UNL     1     -11.206  12.993  68.903  1.00  0.00    -0.266 NA 
ENDROOT
BRANCH   2   3
HETATM    3  C   UNL     1     -10.539  13.482  67.677  1.00  0.00    -0.241 C  
BRANCH   3   4
HETATM    4  C   UNL     1      -9.550  12.498  67.068  1.00  0.00    -0.216 A  
HETATM    5  C   UNL     1      -9.743  11.918  65.782  1.00  0.00    -0.258 A  
HETATM    6  C   UNL     1      -8.420  12.143  67.830  1.00  0.00    -0.163 A  
HETATM    7  C   UNL     1     -10.842  12.210  64.945  1.00  0.00    -0.352 A  
HETATM    8  C   UNL     1      -7.492  11.227  67.348  1.00  0.00    -0.116 A  
HETATM    9  C   UNL     1     -11.019  11.580  63.712  1.00  0.00    -0.485 A  
HETATM   10  C   UNL     1      -7.678  10.649  66.096  1.00  0.00    -0.145 A  
HETATM   11  C   UNL     1     -10.087  10.650  63.273  1.00  0.00    -0.233 A  
HETATM   12  C   UNL     1      -8.793  10.976  65.310  1.00  0.00    -0.139 A  
HETATM   13  C   UNL     1      -8.977  10.357  64.062  1.00  0.00    -0.249 A  
ENDBRANCH   3   4
ENDBRANCH   2   3
BRANCH   2  14
HETATM   14  C   UNL     1     -11.992  11.787  68.588  1.00  0.00    -0.239 C  
BRANCH  14  15
HETATM   15  C   UNL     1     -11.474  10.526  69.248  1.00  0.00    -0.323 A  
HETATM   16  C   UNL     1     -11.187   9.097  71.198  1.00  0.00    -0.395 A  
HETATM   17  C   UNL     1     -10.865   9.537  68.474  1.00  0.00    -0.175 A  
HETATM   18  C   UNL     1     -10.439   8.336  69.050  1.00  0.00    -0.212 A  
HETATM   19  C   UNL     1     -11.612  10.304  70.623  1.00  0.00    -0.435 A  
HETATM   20  C   UNL     1     -10.608   8.077  70.420  1.00  0.00    -0.224 A  
BRANCH  20  21
HETATM   21  C   UNL     1     -10.211   6.728  71.050  1.00  0.00    -0.217 C  
HETATM   22  C   UNL     1      -9.108   6.864  72.125  1.00  0.00    -0.139 C  
HETATM   23  C   UNL     1     -11.432   6.070  71.723  1.00  0.00    -0.314 C  
HETATM   24  C   UNL     1      -9.666   5.776  69.964  1.00  0.00    -0.218 C  
ENDBRANCH  20  21
ENDBRANCH  14  15
ENDBRANCH   2  14
TORSDOF 5
ENDMDL
MODEL       92
REMARK 921   NORMALIZED FREE ENERGY PREDICTED BY IDOCK:   -4.54 KCAL/MOL
REMARK 922        TOTAL FREE ENERGY PREDICTED BY IDOCK:   -7.65 KCAL/MOL
REMARK 923 INTER-LIGAND FREE ENERGY PREDICTED BY IDOCK:   -5.80 KCAL/MOL
REMARK 924 INTRA-LIGAND FREE ENERGY PREDICTED BY IDOCK:   -1.84 KCAL/MOL
REMARK 927      BINDING AFFINITY PREDICTED BY RF-SCORE:    0.00 PKD
ROOT
HETATM    1  C   UNL     1     -14.359   8.273  71.560  1.00  0.00    -0.428 C  
HETATM    2  N   UNL     1     -12.955   7.851  71.510  1.00  0.00    -0.325 NA 
ENDROOT
BRANCH   2   3
HETATM    3  C   UNL     1     -12.784   6.506  72.099  1.00  0.00    -0.050 C  
BRANCH   3   4
HETATM    4  C   UNL     1     -11.442   5.855  71.794  1.00  0.00    -0.262 A  
HETATM    5  C   UNL     1     -10.898   5.807  70.479  1.00  0.00    -0.348 A  
HETATM    6  C   UNL     1     -10.739   5.264  72.861  1.00  0.00    -0.301 A  
HETATM    7  C   UNL     1     -11.527   6.370  69.347  1.00  0.00    -0.374 A  
HETATM    8  C   UNL     1      -9.522   4.627  72.649  1.00  0.00    -0.163 A  
HETATM    9  C   UNL     1     -10.983   6.256  68.067  1.00  0.00    -0.418 A  
HETATM   10  C   UNL     1      -8.988   4.567  71.365  1.00  0.00    -0.165 A  
HETATM   11  C   UNL     1      -9.779   5.589  67.886  1.00  0.00    -0.155 A  
HETATM   12  C   UNL     1      -9.661   5.142  70.277  1.00  0.00    -0.272 A  
HETATM   13  C   UNL     1      -9.119   5.044  68.985  1.00  0.00    -0.140 A  
ENDBRANCH   3   4
ENDBRANCH   2   3
BRANCH   2  14
HETATM   14  C   UNL     1     -12.065   8.805  72.194  1.00  0.00    -0.371 C  
BRANCH  14  15
HETATM   15  C   UNL     1     -10.772   9.078  71.454  1.00  0.00    -0.401 A  
HETATM   16  C   UNL     1      -8.357   8.869  71.222  1.00  0.00    -0.223 A  
HETATM   17  C   UNL     1     -10.802   9.730  70.221  1.00  0.00    -0.356 A  
HETATM   18  C   UNL     1      -9.628   9.933  69.489  1.00  0.00    -0.242 A  
HETATM   19  C   UNL     1      -9.533   8.666  71.960  1.00  0.00    -0.370 A  
HETATM   20  C   UNL     1      -8.381   9.490  69.959  1.00  0.00    -0.192 A  
BRANCH  20  21
HETATM   21  C   UNL     1      -7.094   9.642  69.126  1.00  0.00    -0.062 C  
HETATM   22  C   UNL     1      -5.808   9.591  69.983  1.00  0.00    -0.036 C  
HETATM   23  C   UNL     1      -6.995   8.514  68.080  1.00  0.00    -0.074 C  
HETATM   24  C   UNL     1      -7.093  11.002  68.395  1.00  0.00    -0.074 C  
ENDBRANCH  20  21
ENDBRANCH  14  15
ENDBRANCH   2  14
TORSDOF 5
ENDMDL
MODEL       93
REMARK 921   NORMALIZED FREE ENERGY PREDICTED BY IDOCK:   -4.54 KCAL/MOL
REMARK 922        TOTAL FREE ENERGY PREDICTED BY IDOCK:   -7.64 KCAL/MOL
REMARK 923 INTER-LIGAND FREE ENERGY PREDICTED BY IDOCK:   -7.11 KCAL/MOL
REMARK 924 INTRA-LIGAND FREE ENERGY PREDICTED BY IDOCK:   -0.53 KCAL/MOL
REMARK 927      BINDING AFFINITY PREDICTED BY RF-SCORE:    0.00 PKD
ROOT
HETATM    1  C   UNL     1     -10.746  19.549  66.002  1.00  0.00    -0.430 C  
HETATM    2  N   UNL     1     -10.503  18.347  66.808  1.00  0.00    -0.391 NA 
ENDROOT
BRANCH   2   3
HETATM    3  C   UNL     1     -10.100  18.704  68.185  1.00  0.00    -0.378 C  
BRANCH   3   4
HETATM    4  C   UNL     1      -8.595  18.822  68.386  1.00  0.00    -0.373 A  
HETATM    5  C   UNL     1      -7.802  17.741  68.862  1.00  0.00    -0.186 A  
HETATM    6  C   UNL     1      -7.989  20.062  68.105  1.00  0.00    -0.243 A  
HETATM    7  C   UNL     1      -8.317  16.463  69.170  1.00  0.00    -0.182 A  
HETATM    8  C   UNL     1      -6.624  20.248  68.294  1.00  0.00    -0.335 A  
HETATM    9  C   UNL     1      -7.511  15.446  69.684  1.00  0.00    -0.170 A  
HETATM   10  C   UNL     1      -5.843  19.200  68.769  1.00  0.00    -0.233 A  
HETATM   11  C   UNL     1      -6.157  15.674  69.886  1.00  0.00    -0.162 A  
HETATM   12  C   UNL     1      -6.413  17.952  69.062  1.00  0.00    -0.236 A  
HETATM   13  C   UNL     1      -5.610  16.915  69.568  1.00  0.00    -0.177 A  
ENDBRANCH   3   4
ENDBRANCH   2   3
BRANCH   2  14
HETATM   14  C   UNL     1      -9.480  17.474  66.206  1.00  0.00    -0.219 C  
BRANCH  14  15
HETATM   15  C   UNL     1      -9.998  16.109  65.802  1.00  0.00    -0.370 A  
HETATM   16  C   UNL     1     -11.448  14.685  64.462  1.00  0.00    -0.340 A  
HETATM   17  C   UNL     1      -9.419  14.959  66.340  1.00  0.00    -0.327 A  
HETATM   18  C   UNL     1      -9.836  13.688  65.932  1.00  0.00    -0.263 A  
HETATM   19  C   UNL     1     -11.034  15.960  64.872  1.00  0.00    -0.427 A  
HETATM   20  C   UNL     1     -10.844  13.518  64.968  1.00  0.00    -0.348 A  
BRANCH  20  21
HETATM   21  C   UNL     1     -11.258  12.125  64.457  1.00  0.00    -0.385 C  
HETATM   22  C   UNL     1     -11.033  11.006  65.500  1.00  0.00    -0.086 C  
HETATM   23  C   UNL     1     -12.754  12.113  64.083  1.00  0.00    -0.416 C  
HETATM   24  C   UNL     1     -10.429  11.750  63.210  1.00  0.00    -0.439 C  
ENDBRANCH  20  21
ENDBRANCH  14  15
ENDBRANCH   2  14
TORSDOF 5
ENDMDL
MODEL       94
REMARK 921   NORMALIZED FREE ENERGY PREDICTED BY IDOCK:   -4.53 KCAL/MOL
REMARK 922        TOTAL FREE ENERGY PREDICTED BY IDOCK:   -7.63 KCAL/MOL
REMARK 923 INTER-LIGAND FREE ENERGY PREDICTED BY IDOCK:   -7.24 KCAL/MOL
REMARK 924 INTRA-LIGAND FREE ENERGY PREDICTED BY IDOCK:   -0.39 KCAL/MOL
REMARK 927      BINDING AFFINITY PREDICTED BY RF-SCORE:    0.00 PKD
ROOT
HETATM    1  C   UNL     1     -10.145  11.774  65.687  1.00  0.00    -0.243 C  
HETATM    2  N   UNL     1     -10.859  11.656  66.962  1.00  0.00    -0.252 NA 
ENDROOT
BRANCH   2   3
HETATM    3  C   UNL     1     -12.026  12.563  67.004  1.00  0.00    -0.225 C  
BRANCH   3   4
HETATM    4  C   UNL     1     -11.814  13.816  67.843  1.00  0.00    -0.413 A  
HETATM    5  C   UNL     1     -11.335  15.035  67.288  1.00  0.00    -0.337 A  
HETATM    6  C   UNL     1     -12.089  13.737  69.222  1.00  0.00    -0.374 A  
HETATM    7  C   UNL     1     -11.032  15.212  65.920  1.00  0.00    -0.339 A  
HETATM    8  C   UNL     1     -11.890  14.834  70.053  1.00  0.00    -0.362 A  
HETATM    9  C   UNL     1     -10.515  16.410  65.426  1.00  0.00    -0.333 A  
HETATM   10  C   UNL     1     -11.412  16.027  69.520  1.00  0.00    -0.326 A  
HETATM   11  C   UNL     1     -10.303  17.477  66.289  1.00  0.00    -0.335 A  
HETATM   12  C   UNL     1     -11.125  16.141  68.152  1.00  0.00    -0.332 A  
HETATM   13  C   UNL     1     -10.615  17.346  67.640  1.00  0.00    -0.350 A  
ENDBRANCH   3   4
ENDBRANCH   2   3
BRANCH   2  14
HETATM   14  C   UNL     1      -9.983  11.927  68.116  1.00  0.00    -0.197 C  
BRANCH  14  15
HETATM   15  C   UNL     1      -9.940  10.805  69.132  1.00  0.00    -0.206 A  
HETATM   16  C   UNL     1      -8.729   9.124  70.411  1.00  0.00    -0.245 A  
HETATM   17  C   UNL     1     -11.096  10.461  69.835  1.00  0.00    -0.367 A  
HETATM   18  C   UNL     1     -11.065   9.474  70.826  1.00  0.00    -0.390 A  
HETATM   19  C   UNL     1      -8.758  10.112  69.415  1.00  0.00    -0.186 A  
HETATM   20  C   UNL     1      -9.879   8.797  71.154  1.00  0.00    -0.313 A  
BRANCH  20  21
HETATM   21  C   UNL     1      -9.819   7.762  72.294  1.00  0.00    -0.248 C  
HETATM   22  C   UNL     1      -9.428   6.347  71.807  1.00  0.00    -0.159 C  
HETATM   23  C   UNL     1      -8.780   8.188  73.351  1.00  0.00    -0.318 C  
HETATM   24  C   UNL     1     -11.200   7.639  72.972  1.00  0.00    -0.388 C  
ENDBRANCH  20  21
ENDBRANCH  14  15
ENDBRANCH   2  14
TORSDOF 5
ENDMDL
MODEL       95
REMARK 921   NORMALIZED FREE ENERGY PREDICTED BY IDOCK:   -4.52 KCAL/MOL
REMARK 922        TOTAL FREE ENERGY PREDICTED BY IDOCK:   -7.62 KCAL/MOL
REMARK 923 INTER-LIGAND FREE ENERGY PREDICTED BY IDOCK:   -6.18 KCAL/MOL
REMARK 924 INTRA-LIGAND FREE ENERGY PREDICTED BY IDOCK:   -1.45 KCAL/MOL
REMARK 927      BINDING AFFINITY PREDICTED BY RF-SCORE:    0.00 PKD
ROOT
HETATM    1  C   UNL     1     -12.079  14.899  64.338  1.00  0.00    -0.401 C  
HETATM    2  N   UNL     1     -11.447  14.134  65.417  1.00  0.00    -0.317 NA 
ENDROOT
BRANCH   2   3
HETATM    3  C   UNL     1     -12.119  12.831  65.609  1.00  0.00    -0.459 C  
BRANCH   3   4
HETATM    4  C   UNL     1     -11.198  11.715  66.081  1.00  0.00    -0.314 A  
HETATM    5  C   UNL     1     -11.170  11.266  67.431  1.00  0.00    -0.370 A  
HETATM    6  C   UNL     1     -10.332  11.133  65.135  1.00  0.00    -0.354 A  
HETATM    7  C   UNL     1     -11.998  11.787  68.450  1.00  0.00    -0.250 A  
HETATM    8  C   UNL     1      -9.443  10.129  65.503  1.00  0.00    -0.286 A  
HETATM    9  C   UNL     1     -11.903  11.353  69.773  1.00  0.00    -0.435 A  
HETATM   10  C   UNL     1      -9.403   9.692  66.823  1.00  0.00    -0.193 A  
HETATM   11  C   UNL     1     -10.985  10.369  70.112  1.00  0.00    -0.365 A  
HETATM   12  C   UNL     1     -10.248  10.250  67.793  1.00  0.00    -0.225 A  
HETATM   13  C   UNL     1     -10.171   9.814  69.127  1.00  0.00    -0.211 A  
ENDBRANCH   3   4
ENDBRANCH   2   3
BRANCH   2  14
HETATM   14  C   UNL     1     -11.437  14.875  66.691  1.00  0.00    -0.296 C  
BRANCH  14  15
HETATM   15  C   UNL     1     -10.050  15.236  67.181  1.00  0.00    -0.240 A  
HETATM   16  C   UNL     1      -8.542  16.619  68.500  1.00  0.00    -0.234 A  
HETATM   17  C   UNL     1      -8.961  14.433  66.838  1.00  0.00    -0.263 A  
HETATM   18  C   UNL     1      -7.682  14.708  67.333  1.00  0.00    -0.226 A  
HETATM   19  C   UNL     1      -9.824  16.346  68.003  1.00  0.00    -0.238 A  
HETATM   20  C   UNL     1      -7.444  15.793  68.193  1.00  0.00    -0.129 A  
BRANCH  20  21
HETATM   21  C   UNL     1      -6.055  16.060  68.803  1.00  0.00    -0.110 C  
HETATM   22  C   UNL     1      -6.119  16.843  70.135  1.00  0.00    -0.040 C  
HETATM   23  C   UNL     1      -5.328  14.729  69.085  1.00  0.00    -0.092 C  
HETATM   24  C   UNL     1      -5.200  16.898  67.829  1.00  0.00    -0.129 C  
ENDBRANCH  20  21
ENDBRANCH  14  15
ENDBRANCH   2  14
TORSDOF 5
ENDMDL
MODEL       96
REMARK 921   NORMALIZED FREE ENERGY PREDICTED BY IDOCK:   -4.51 KCAL/MOL
REMARK 922        TOTAL FREE ENERGY PREDICTED BY IDOCK:   -7.60 KCAL/MOL
REMARK 923 INTER-LIGAND FREE ENERGY PREDICTED BY IDOCK:   -6.70 KCAL/MOL
REMARK 924 INTRA-LIGAND FREE ENERGY PREDICTED BY IDOCK:   -0.91 KCAL/MOL
REMARK 927      BINDING AFFINITY PREDICTED BY RF-SCORE:    0.00 PKD
ROOT
HETATM    1  C   UNL     1      -9.267  10.749  63.560  1.00  0.00    -0.257 C  
HETATM    2  N   UNL     1      -9.864  10.428  64.861  1.00  0.00    -0.312 NA 
ENDROOT
BRANCH   2   3
HETATM    3  C   UNL     1     -11.144  11.143  65.047  1.00  0.00    -0.030 C  
BRANCH   3   4
HETATM    4  C   UNL     1     -10.993  12.591  65.493  1.00  0.00    -0.322 A  
HETATM    5  C   UNL     1     -11.295  13.019  66.816  1.00  0.00    -0.365 A  
HETATM    6  C   UNL     1     -10.557  13.531  64.538  1.00  0.00    -0.439 A  
HETATM    7  C   UNL     1     -11.739  12.154  67.841  1.00  0.00    -0.403 A  
HETATM    8  C   UNL     1     -10.425  14.875  64.868  1.00  0.00    -0.389 A  
HETATM    9  C   UNL     1     -12.073  12.625  69.111  1.00  0.00    -0.191 A  
HETATM   10  C   UNL     1     -10.728  15.303  66.157  1.00  0.00    -0.322 A  
HETATM   11  C   UNL     1     -11.955  13.977  69.399  1.00  0.00    -0.390 A  
HETATM   12  C   UNL     1     -11.168  14.396  67.133  1.00  0.00    -0.337 A  
HETATM   13  C   UNL     1     -11.497  14.855  68.419  1.00  0.00    -0.338 A  
ENDBRANCH   3   4
ENDBRANCH   2   3
BRANCH   2  14
HETATM   14  C   UNL     1      -8.957  10.741  65.979  1.00  0.00    -0.181 C  
BRANCH  14  15
HETATM   15  C   UNL     1      -9.228   9.935  67.233  1.00  0.00    -0.156 A  
HETATM   16  C   UNL     1      -9.150   9.652  69.650  1.00  0.00    -0.224 A  
HETATM   17  C   UNL     1      -9.921   8.727  67.146  1.00  0.00    -0.295 A  
HETATM   18  C   UNL     1     -10.241   7.999  68.297  1.00  0.00    -0.243 A  
HETATM   19  C   UNL     1      -8.826  10.382  68.497  1.00  0.00    -0.142 A  
HETATM   20  C   UNL     1      -9.884   8.452  69.577  1.00  0.00    -0.181 A  
BRANCH  20  21
HETATM   21  C   UNL     1     -10.297   7.696  70.855  1.00  0.00    -0.204 C  
HETATM   22  C   UNL     1     -10.566   8.635  72.053  1.00  0.00    -0.421 C  
HETATM   23  C   UNL     1     -11.585   6.885  70.606  1.00  0.00    -0.402 C  
HETATM   24  C   UNL     1      -9.173   6.729  71.285  1.00  0.00    -0.154 C  
ENDBRANCH  20  21
ENDBRANCH  14  15
ENDBRANCH   2  14
TORSDOF 5
ENDMDL
MODEL       97
REMARK 921   NORMALIZED FREE ENERGY PREDICTED BY IDOCK:   -4.50 KCAL/MOL
REMARK 922        TOTAL FREE ENERGY PREDICTED BY IDOCK:   -7.60 KCAL/MOL
REMARK 923 INTER-LIGAND FREE ENERGY PREDICTED BY IDOCK:   -7.46 KCAL/MOL
REMARK 924 INTRA-LIGAND FREE ENERGY PREDICTED BY IDOCK:   -0.15 KCAL/MOL
REMARK 927      BINDING AFFINITY PREDICTED BY RF-SCORE:    0.00 PKD
ROOT
HETATM    1  C   UNL     1     -10.463  13.193  69.391  1.00  0.00     0.356 C  
HETATM    2  N   UNL     1     -11.720  12.715  68.806  1.00  0.00    -0.308 NA 
ENDROOT
BRANCH   2   3
HETATM    3  C   UNL     1     -11.720  11.242  68.679  1.00  0.00    -0.324 C  
BRANCH   3   4
HETATM    4  C   UNL     1     -11.897  10.501  69.998  1.00  0.00    -0.388 A  
HETATM    5  C   UNL     1     -10.861   9.715  70.577  1.00  0.00    -0.371 A  
HETATM    6  C   UNL     1     -13.147  10.591  70.641  1.00  0.00    -0.278 A  
HETATM    7  C   UNL     1      -9.577   9.563  70.009  1.00  0.00    -0.272 A  
HETATM    8  C   UNL     1     -13.387   9.917  71.832  1.00  0.00    -0.524 A  
HETATM    9  C   UNL     1      -8.607   8.741  70.585  1.00  0.00    -0.203 A  
HETATM   10  C   UNL     1     -12.383   9.138  72.400  1.00  0.00    -0.310 A  
HETATM   11  C   UNL     1      -8.890   8.060  71.761  1.00  0.00    -0.184 A  
HETATM   12  C   UNL     1     -11.127   9.023  71.787  1.00  0.00    -0.444 A  
HETATM   13  C   UNL     1     -10.138   8.208  72.362  1.00  0.00    -0.355 A  
ENDBRANCH   3   4
ENDBRANCH   2   3
BRANCH   2  14
HETATM   14  C   UNL     1     -11.986  13.322  67.490  1.00  0.00    -0.324 C  
BRANCH  14  15
HETATM   15  C   UNL     1     -11.406  14.712  67.326  1.00  0.00    -0.364 A  
HETATM   16  C   UNL     1     -11.002  16.969  68.145  1.00  0.00    -0.263 A  
HETATM   17  C   UNL     1     -10.624  15.011  66.210  1.00  0.00    -0.309 A  
HETATM   18  C   UNL     1     -10.024  16.267  66.071  1.00  0.00    -0.370 A  
HETATM   19  C   UNL     1     -11.607  15.712  68.285  1.00  0.00    -0.326 A  
HETATM   20  C   UNL     1     -10.178  17.269  67.043  1.00  0.00    -0.320 A  
BRANCH  20  21
HETATM   21  C   UNL     1      -9.461  18.628  66.935  1.00  0.00    -0.310 C  
HETATM   22  C   UNL     1      -9.314  19.344  68.298  1.00  0.00    -0.414 C  
HETATM   23  C   UNL     1      -8.043  18.441  66.357  1.00  0.00    -0.285 C  
HETATM   24  C   UNL     1     -10.256  19.575  66.012  1.00  0.00    -0.567 C  
ENDBRANCH  20  21
ENDBRANCH  14  15
ENDBRANCH   2  14
TORSDOF 5
ENDMDL
MODEL       98
REMARK 921   NORMALIZED FREE ENERGY PREDICTED BY IDOCK:   -4.50 KCAL/MOL
REMARK 922        TOTAL FREE ENERGY PREDICTED BY IDOCK:   -7.60 KCAL/MOL
REMARK 923 INTER-LIGAND FREE ENERGY PREDICTED BY IDOCK:   -6.90 KCAL/MOL
REMARK 924 INTRA-LIGAND FREE ENERGY PREDICTED BY IDOCK:   -0.70 KCAL/MOL
REMARK 927      BINDING AFFINITY PREDICTED BY RF-SCORE:    0.00 PKD
ROOT
HETATM    1  C   UNL     1     -12.662   7.089  71.450  1.00  0.00    -0.374 C  
HETATM    2  N   UNL     1     -11.493   7.777  70.891  1.00  0.00    -0.279 NA 
ENDROOT
BRANCH   2   3
HETATM    3  C   UNL     1     -10.243   7.293  71.515  1.00  0.00    -0.193 C  
BRANCH   3   4
HETATM    4  C   UNL     1     -10.029   5.790  71.401  1.00  0.00    -0.234 A  
HETATM    5  C   UNL     1      -9.770   5.148  70.157  1.00  0.00    -0.274 A  
HETATM    6  C   UNL     1     -10.116   5.022  72.578  1.00  0.00    -0.231 A  
HETATM    7  C   UNL     1      -9.665   5.831  68.926  1.00  0.00    -0.174 A  
HETATM    8  C   UNL     1      -9.960   3.640  72.542  1.00  0.00    -0.227 A  
HETATM    9  C   UNL     1      -9.461   5.156  67.722  1.00  0.00    -0.150 A  
HETATM   10  C   UNL     1      -9.717   3.004  71.329  1.00  0.00    -0.208 A  
HETATM   11  C   UNL     1      -9.337   3.774  67.718  1.00  0.00    -0.237 A  
HETATM   12  C   UNL     1      -9.626   3.737  70.136  1.00  0.00    -0.258 A  
HETATM   13  C   UNL     1      -9.409   3.070  68.918  1.00  0.00    -0.228 A  
ENDBRANCH   3   4
ENDBRANCH   2   3
BRANCH   2  14
HETATM   14  C   UNL     1     -11.585   9.240  71.044  1.00  0.00    -0.313 C  
BRANCH  14  15
HETATM   15  C   UNL     1     -11.348  10.008  69.760  1.00  0.00    -0.281 A  
HETATM   16  C   UNL     1     -10.433  10.180  67.511  1.00  0.00    -0.304 A  
HETATM   17  C   UNL     1     -11.927  11.266  69.586  1.00  0.00    -0.423 A  
HETATM   18  C   UNL     1     -11.777  11.964  68.384  1.00  0.00    -0.387 A  
HETATM   19  C   UNL     1     -10.580   9.479  68.717  1.00  0.00    -0.240 A  
HETATM   20  C   UNL     1     -11.046  11.432  67.309  1.00  0.00    -0.363 A  
BRANCH  20  21
HETATM   21  C   UNL     1     -10.937  12.160  65.956  1.00  0.00    -0.332 C  
HETATM   22  C   UNL     1     -12.278  12.770  65.488  1.00  0.00    -0.519 C  
HETATM   23  C   UNL     1      -9.914  13.310  66.046  1.00  0.00    -0.297 C  
HETATM   24  C   UNL     1     -10.485  11.173  64.858  1.00  0.00    -0.372 C  
ENDBRANCH  20  21
ENDBRANCH  14  15
ENDBRANCH   2  14
TORSDOF 5
ENDMDL
MODEL       99
REMARK 921   NORMALIZED FREE ENERGY PREDICTED BY IDOCK:   -4.49 KCAL/MOL
REMARK 922        TOTAL FREE ENERGY PREDICTED BY IDOCK:   -7.58 KCAL/MOL
REMARK 923 INTER-LIGAND FREE ENERGY PREDICTED BY IDOCK:   -7.18 KCAL/MOL
REMARK 924 INTRA-LIGAND FREE ENERGY PREDICTED BY IDOCK:   -0.40 KCAL/MOL
REMARK 927      BINDING AFFINITY PREDICTED BY RF-SCORE:    0.00 PKD
ROOT
HETATM    1  C   UNL     1     -11.202  15.962  68.281  1.00  0.00    -0.354 C  
HETATM    2  N   UNL     1     -10.414  15.574  67.107  1.00  0.00    -0.281 NA 
ENDROOT
BRANCH   2   3
HETATM    3  C   UNL     1     -10.473  16.616  66.060  1.00  0.00    -0.298 C  
BRANCH   3   4
HETATM    4  C   UNL     1      -9.940  17.973  66.498  1.00  0.00    -0.371 A  
HETATM    5  C   UNL     1      -8.554  18.294  66.471  1.00  0.00    -0.283 A  
HETATM    6  C   UNL     1     -10.867  18.925  66.964  1.00  0.00    -0.392 A  
HETATM    7  C   UNL     1      -7.550  17.408  66.022  1.00  0.00    -0.246 A  
HETATM    8  C   UNL     1     -10.447  20.174  67.407  1.00  0.00    -0.427 A  
HETATM    9  C   UNL     1      -6.196  17.745  66.060  1.00  0.00    -0.263 A  
HETATM   10  C   UNL     1      -9.092  20.492  67.394  1.00  0.00    -0.457 A  
HETATM   11  C   UNL     1      -5.808  18.991  66.534  1.00  0.00    -0.177 A  
HETATM   12  C   UNL     1      -8.140  19.568  66.939  1.00  0.00    -0.306 A  
HETATM   13  C   UNL     1      -6.774  19.899  66.961  1.00  0.00    -0.231 A  
ENDBRANCH   3   4
ENDBRANCH   2   3
BRANCH   2  14
HETATM   14  C   UNL     1     -10.854  14.285  66.544  1.00  0.00    -0.304 C  
BRANCH  14  15
HETATM   15  C   UNL     1     -10.731  13.121  67.506  1.00  0.00    -0.248 A  
HETATM   16  C   UNL     1     -11.715  11.332  68.833  1.00  0.00    -0.409 A  
HETATM   17  C   UNL     1      -9.469  12.673  67.897  1.00  0.00    -0.204 A  
HETATM   18  C   UNL     1      -9.329  11.559  68.731  1.00  0.00    -0.088 A  
HETATM   19  C   UNL     1     -11.857  12.451  67.999  1.00  0.00    -0.376 A  
HETATM   20  C   UNL     1     -10.445  10.848  69.201  1.00  0.00    -0.248 A  
BRANCH  20  21
HETATM   21  C   UNL     1     -10.299   9.576  70.058  1.00  0.00    -0.284 C  
HETATM   22  C   UNL     1     -11.213   9.578  71.306  1.00  0.00    -0.452 C  
HETATM   23  C   UNL     1     -10.656   8.326  69.228  1.00  0.00    -0.191 C  
HETATM   24  C   UNL     1      -8.847   9.441  70.565  1.00  0.00    -0.287 C  
ENDBRANCH  20  21
ENDBRANCH  14  15
ENDBRANCH   2  14
TORSDOF 5
ENDMDL
MODEL      100
REMARK 921   NORMALIZED FREE ENERGY PREDICTED BY IDOCK:   -4.46 KCAL/MOL
REMARK 922        TOTAL FREE ENERGY PREDICTED BY IDOCK:   -7.54 KCAL/MOL
REMARK 923 INTER-LIGAND FREE ENERGY PREDICTED BY IDOCK:   -6.79 KCAL/MOL
REMARK 924 INTRA-LIGAND FREE ENERGY PREDICTED BY IDOCK:   -0.75 KCAL/MOL
REMARK 927      BINDING AFFINITY PREDICTED BY RF-SCORE:    0.00 PKD
ROOT
HETATM    1  C   UNL     1      -8.348   9.486  66.410  1.00  0.00    -0.119 C  
HETATM    2  N   UNL     1      -9.125  10.690  66.723  1.00  0.00    -0.151 NA 
ENDROOT
BRANCH   2   3
HETATM    3  C   UNL     1      -8.808  11.785  65.782  1.00  0.00     0.060 C  
BRANCH   3   4
HETATM    4  C   UNL     1     -10.009  12.313  65.008  1.00  0.00    -0.227 A  
HETATM    5  C   UNL     1     -10.384  13.686  65.024  1.00  0.00    -0.393 A  
HETATM    6  C   UNL     1     -10.777  11.388  64.275  1.00  0.00    -0.420 A  
HETATM    7  C   UNL     1      -9.679  14.686  65.728  1.00  0.00    -0.331 A  
HETATM    8  C   UNL     1     -11.903  11.796  63.570  1.00  0.00    -0.481 A  
HETATM    9  C   UNL     1     -10.111  16.013  65.757  1.00  0.00    -0.393 A  
HETATM   10  C   UNL     1     -12.283  13.134  63.588  1.00  0.00    -0.553 A  
HETATM   11  C   UNL     1     -11.256  16.381  65.064  1.00  0.00    -0.138 A  
HETATM   12  C   UNL     1     -11.543  14.083  64.309  1.00  0.00    -0.348 A  
HETATM   13  C   UNL     1     -11.961  15.424  64.337  1.00  0.00    -0.235 A  
ENDBRANCH   3   4
ENDBRANCH   2   3
BRANCH   2  14
HETATM   14  C   UNL     1      -8.904  11.149  68.106  1.00  0.00    -0.148 C  
BRANCH  14  15
HETATM   15  C   UNL     1      -9.776  10.454  69.131  1.00  0.00    -0.234 A  
HETATM   16  C   UNL     1     -11.903  10.153  70.275  1.00  0.00    -0.342 A  
HETATM   17  C   UNL     1      -9.275   9.362  69.842  1.00  0.00    -0.226 A  
HETATM   18  C   UNL     1     -10.083   8.664  70.745  1.00  0.00    -0.244 A  
HETATM   19  C   UNL     1     -11.094  10.857  69.371  1.00  0.00    -0.317 A  
HETATM   20  C   UNL     1     -11.422   9.026  70.968  1.00  0.00    -0.358 A  
BRANCH  20  21
HETATM   21  C   UNL     1     -12.341   8.217  71.903  1.00  0.00    -0.379 C  
HETATM   22  C   UNL     1     -13.586   9.011  72.363  1.00  0.00    -0.533 C  
HETATM   23  C   UNL     1     -12.842   6.944  71.193  1.00  0.00    -0.289 C  
HETATM   24  C   UNL     1     -11.572   7.808  73.178  1.00  0.00     0.011 C  
ENDBRANCH  20  21
ENDBRANCH  14  15
ENDBRANCH   2  14
TORSDOF 5
ENDMDL
MODEL      101
REMARK 921   NORMALIZED FREE ENERGY PREDICTED BY IDOCK:   -4.42 KCAL/MOL
REMARK 922        TOTAL FREE ENERGY PREDICTED BY IDOCK:   -7.50 KCAL/MOL
REMARK 923 INTER-LIGAND FREE ENERGY PREDICTED BY IDOCK:   -7.30 KCAL/MOL
REMARK 924 INTRA-LIGAND FREE ENERGY PREDICTED BY IDOCK:   -0.20 KCAL/MOL
REMARK 927      BINDING AFFINITY PREDICTED BY RF-SCORE:    0.00 PKD
ROOT
HETATM    1  C   UNL     1     -12.802   9.811  71.891  1.00  0.00    -0.427 C  
HETATM    2  N   UNL     1     -11.698  10.319  71.070  1.00  0.00    -0.369 NA 
ENDROOT
BRANCH   2   3
HETATM    3  C   UNL     1     -12.204  10.957  69.836  1.00  0.00    -0.336 C  
BRANCH   3   4
HETATM    4  C   UNL     1     -11.862  12.436  69.710  1.00  0.00    -0.387 A  
HETATM    5  C   UNL     1     -12.233  13.392  70.697  1.00  0.00    -0.427 A  
HETATM    6  C   UNL     1     -11.171  12.855  68.556  1.00  0.00    -0.310 A  
HETATM    7  C   UNL     1     -12.925  13.070  71.884  1.00  0.00    -0.414 A  
HETATM    8  C   UNL     1     -10.852  14.194  68.363  1.00  0.00    -0.266 A  
HETATM    9  C   UNL     1     -13.315  14.047  72.801  1.00  0.00    -0.603 A  
HETATM   10  C   UNL     1     -11.220  15.137  69.317  1.00  0.00    -0.287 A  
HETATM   11  C   UNL     1     -13.004  15.379  72.563  1.00  0.00    -0.500 A  
HETATM   12  C   UNL     1     -11.911  14.757  70.477  1.00  0.00    -0.362 A  
HETATM   13  C   UNL     1     -12.299  15.729  71.414  1.00  0.00    -0.505 A  
ENDBRANCH   3   4
ENDBRANCH   2   3
BRANCH   2  14
HETATM   14  C   UNL     1     -10.735   9.261  70.717  1.00  0.00    -0.284 C  
BRANCH  14  15
HETATM   15  C   UNL     1     -10.187   9.372  69.310  1.00  0.00    -0.209 A  
HETATM   16  C   UNL     1      -8.485  10.105  67.731  1.00  0.00    -0.114 A  
HETATM   17  C   UNL     1     -10.847   8.738  68.256  1.00  0.00    -0.025 A  
HETATM   18  C   UNL     1     -10.324   8.771  66.959  1.00  0.00    -0.353 A  
HETATM   19  C   UNL     1      -9.010  10.075  69.031  1.00  0.00    -0.163 A  
HETATM   20  C   UNL     1      -9.121   9.435  66.667  1.00  0.00    -0.181 A  
BRANCH  20  21
HETATM   21  C   UNL     1      -8.498   9.414  65.258  1.00  0.00    -0.161 C  
HETATM   22  C   UNL     1      -8.147   7.989  64.773  1.00  0.00    -0.143 C  
HETATM   23  C   UNL     1      -9.474  10.023  64.232  1.00  0.00    -0.336 C  
HETATM   24  C   UNL     1      -7.187  10.229  65.246  1.00  0.00    -0.134 C  
ENDBRANCH  20  21
ENDBRANCH  14  15
ENDBRANCH   2  14
TORSDOF 5
ENDMDL
MODEL      102
REMARK 921   NORMALIZED FREE ENERGY PREDICTED BY IDOCK:   -4.40 KCAL/MOL
REMARK 922        TOTAL FREE ENERGY PREDICTED BY IDOCK:   -7.46 KCAL/MOL
REMARK 923 INTER-LIGAND FREE ENERGY PREDICTED BY IDOCK:   -7.06 KCAL/MOL
REMARK 924 INTRA-LIGAND FREE ENERGY PREDICTED BY IDOCK:   -0.40 KCAL/MOL
REMARK 927      BINDING AFFINITY PREDICTED BY RF-SCORE:    0.00 PKD
ROOT
HETATM    1  C   UNL     1      -7.710  11.386  66.728  1.00  0.00    -0.150 C  
HETATM    2  N   UNL     1      -8.358  10.373  67.568  1.00  0.00    -0.115 NA 
ENDROOT
BRANCH   2   3
HETATM    3  C   UNL     1      -9.612   9.894  66.948  1.00  0.00    -0.179 C  
BRANCH   3   4
HETATM    4  C   UNL     1     -10.027  10.664  65.702  1.00  0.00    -0.327 A  
HETATM    5  C   UNL     1     -10.862  11.816  65.758  1.00  0.00    -0.341 A  
HETATM    6  C   UNL     1      -9.576  10.190  64.455  1.00  0.00    -0.366 A  
HETATM    7  C   UNL     1     -11.364  12.366  66.958  1.00  0.00    -0.388 A  
HETATM    8  C   UNL     1      -9.941  10.827  63.274  1.00  0.00    -0.369 A  
HETATM    9  C   UNL     1     -12.221  13.467  66.964  1.00  0.00    -0.351 A  
HETATM   10  C   UNL     1     -10.765  11.947  63.319  1.00  0.00    -0.415 A  
HETATM   11  C   UNL     1     -12.588  14.063  65.765  1.00  0.00    -0.512 A  
HETATM   12  C   UNL     1     -11.236  12.446  64.543  1.00  0.00    -0.371 A  
HETATM   13  C   UNL     1     -12.091  13.562  64.564  1.00  0.00    -0.460 A  
ENDBRANCH   3   4
ENDBRANCH   2   3
BRANCH   2  14
HETATM   14  C   UNL     1      -8.639  10.874  68.925  1.00  0.00    -0.140 C  
BRANCH  14  15
HETATM   15  C   UNL     1      -9.172   9.818  69.871  1.00  0.00    -0.263 A  
HETATM   16  C   UNL     1     -10.975   8.835  71.179  1.00  0.00    -0.334 A  
HETATM   17  C   UNL     1      -8.358   8.751  70.252  1.00  0.00    -0.139 A  
HETATM   18  C   UNL     1      -8.850   7.730  71.071  1.00  0.00    -0.145 A  
HETATM   19  C   UNL     1     -10.483   9.862  70.360  1.00  0.00    -0.347 A  
HETATM   20  C   UNL     1     -10.175   7.734  71.537  1.00  0.00    -0.216 A  
BRANCH  20  21
HETATM   21  C   UNL     1     -10.748   6.576  72.377  1.00  0.00    -0.253 C  
HETATM   22  C   UNL     1     -10.530   6.766  73.896  1.00  0.00    -0.356 C  
HETATM   23  C   UNL     1     -12.266   6.443  72.142  1.00  0.00    -0.278 C  
HETATM   24  C   UNL     1     -10.064   5.249  71.987  1.00  0.00    -0.247 C  
ENDBRANCH  20  21
ENDBRANCH  14  15
ENDBRANCH   2  14
TORSDOF 5
ENDMDL
MODEL      103
REMARK 921   NORMALIZED FREE ENERGY PREDICTED BY IDOCK:   -4.36 KCAL/MOL
REMARK 922        TOTAL FREE ENERGY PREDICTED BY IDOCK:   -7.41 KCAL/MOL
REMARK 923 INTER-LIGAND FREE ENERGY PREDICTED BY IDOCK:   -7.07 KCAL/MOL
REMARK 924 INTRA-LIGAND FREE ENERGY PREDICTED BY IDOCK:   -0.34 KCAL/MOL
REMARK 927      BINDING AFFINITY PREDICTED BY RF-SCORE:    0.00 PKD
ROOT
HETATM    1  C   UNL     1     -11.847  12.295  66.712  1.00  0.00    -0.277 C  
HETATM    2  N   UNL     1     -11.403  11.697  67.976  1.00  0.00    -0.270 NA 
ENDROOT
BRANCH   2   3
HETATM    3  C   UNL     1     -10.409  12.559  68.651  1.00  0.00    -0.177 C  
BRANCH   3   4
HETATM    4  C   UNL     1     -11.011  13.747  69.390  1.00  0.00    -0.142 A  
HETATM    5  C   UNL     1     -11.932  13.591  70.465  1.00  0.00    -0.344 A  
HETATM    6  C   UNL     1     -10.649  15.039  68.964  1.00  0.00    -0.245 A  
HETATM    7  C   UNL     1     -12.356  12.339  70.962  1.00  0.00    -0.320 A  
HETATM    8  C   UNL     1     -11.183  16.168  69.574  1.00  0.00    -0.337 A  
HETATM    9  C   UNL     1     -13.299  12.232  71.984  1.00  0.00    -0.491 A  
HETATM   10  C   UNL     1     -12.091  16.024  70.619  1.00  0.00    -0.259 A  
HETATM   11  C   UNL     1     -13.833  13.379  72.554  1.00  0.00    -0.595 A  
HETATM   12  C   UNL     1     -12.478  14.753  71.068  1.00  0.00    -0.400 A  
HETATM   13  C   UNL     1     -13.418  14.631  72.105  1.00  0.00    -0.494 A  
ENDBRANCH   3   4
ENDBRANCH   2   3
BRANCH   2  14
HETATM   14  C   UNL     1     -10.836  10.350  67.784  1.00  0.00    -0.297 C  
BRANCH  14  15
HETATM   15  C   UNL     1     -10.430   9.665  69.072  1.00  0.00    -0.229 A  
HETATM   16  C   UNL     1     -10.838   9.070  71.397  1.00  0.00    -0.400 A  
HETATM   17  C   UNL     1      -9.277   8.879  69.107  1.00  0.00    -0.144 A  
HETATM   18  C   UNL     1      -8.919   8.183  70.266  1.00  0.00    -0.146 A  
HETATM   19  C   UNL     1     -11.199   9.771  70.237  1.00  0.00    -0.347 A  
HETATM   20  C   UNL     1      -9.699   8.243  71.432  1.00  0.00    -0.237 A  
BRANCH  20  21
HETATM   21  C   UNL     1      -9.353   7.421  72.688  1.00  0.00    -0.192 C  
HETATM   22  C   UNL     1      -8.465   6.193  72.383  1.00  0.00    -0.115 C  
HETATM   23  C   UNL     1      -8.596   8.295  73.709  1.00  0.00    -0.242 C  
HETATM   24  C   UNL     1     -10.645   6.890  73.346  1.00  0.00    -0.372 C  
ENDBRANCH  20  21
ENDBRANCH  14  15
ENDBRANCH   2  14
TORSDOF 5
ENDMDL
MODEL      104
REMARK 921   NORMALIZED FREE ENERGY PREDICTED BY IDOCK:   -4.35 KCAL/MOL
REMARK 922        TOTAL FREE ENERGY PREDICTED BY IDOCK:   -7.41 KCAL/MOL
REMARK 923 INTER-LIGAND FREE ENERGY PREDICTED BY IDOCK:   -6.51 KCAL/MOL
REMARK 924 INTRA-LIGAND FREE ENERGY PREDICTED BY IDOCK:   -0.90 KCAL/MOL
REMARK 927      BINDING AFFINITY PREDICTED BY RF-SCORE:    0.00 PKD
ROOT
HETATM    1  C   UNL     1     -10.710   7.739  67.798  1.00  0.00    -0.127 C  
HETATM    2  N   UNL     1     -10.557   8.366  69.115  1.00  0.00    -0.199 NA 
ENDROOT
BRANCH   2   3
HETATM    3  C   UNL     1     -10.634   9.839  69.013  1.00  0.00    -0.219 C  
BRANCH   3   4
HETATM    4  C   UNL     1     -11.575  10.487  70.020  1.00  0.00    -0.392 A  
HETATM    5  C   UNL     1     -11.789  11.893  70.070  1.00  0.00    -0.407 A  
HETATM    6  C   UNL     1     -12.231   9.648  70.941  1.00  0.00    -0.368 A  
HETATM    7  C   UNL     1     -11.178  12.814  69.191  1.00  0.00    -0.294 A  
HETATM    8  C   UNL     1     -13.081  10.175  71.907  1.00  0.00    -0.571 A  
HETATM    9  C   UNL     1     -11.377  14.190  69.308  1.00  0.00    -0.324 A  
HETATM   10  C   UNL     1     -13.288  11.549  71.970  1.00  0.00    -0.397 A  
HETATM   11  C   UNL     1     -12.211  14.685  70.301  1.00  0.00    -0.389 A  
HETATM   12  C   UNL     1     -12.650  12.416  71.070  1.00  0.00    -0.349 A  
HETATM   13  C   UNL     1     -12.850  13.803  71.170  1.00  0.00    -0.409 A  
ENDBRANCH   3   4
ENDBRANCH   2   3
BRANCH   2  14
HETATM   14  C   UNL     1      -9.292   7.984  69.768  1.00  0.00    -0.159 C  
BRANCH  14  15
HETATM   15  C   UNL     1      -9.395   6.739  70.624  1.00  0.00    -0.162 A  
HETATM   16  C   UNL     1     -10.660   5.225  72.051  1.00  0.00    -0.279 A  
HETATM   17  C   UNL     1      -8.313   5.861  70.707  1.00  0.00    -0.125 A  
HETATM   18  C   UNL     1      -8.408   4.672  71.437  1.00  0.00    -0.108 A  
HETATM   19  C   UNL     1     -10.566   6.419  71.321  1.00  0.00    -0.275 A  
HETATM   20  C   UNL     1      -9.588   4.313  72.109  1.00  0.00    -0.203 A  
BRANCH  20  21
HETATM   21  C   UNL     1      -9.728   2.971  72.853  1.00  0.00    -0.174 C  
HETATM   22  C   UNL     1     -10.854   2.981  73.912  1.00  0.00    -0.293 C  
HETATM   23  C   UNL     1     -10.040   1.836  71.857  1.00  0.00    -0.218 C  
HETATM   24  C   UNL     1      -8.416   2.638  73.594  1.00  0.00    -0.071 C  
ENDBRANCH  20  21
ENDBRANCH  14  15
ENDBRANCH   2  14
TORSDOF 5
ENDMDL
MODEL      105
REMARK 921   NORMALIZED FREE ENERGY PREDICTED BY IDOCK:   -4.35 KCAL/MOL
REMARK 922        TOTAL FREE ENERGY PREDICTED BY IDOCK:   -7.40 KCAL/MOL
REMARK 923 INTER-LIGAND FREE ENERGY PREDICTED BY IDOCK:   -6.13 KCAL/MOL
REMARK 924 INTRA-LIGAND FREE ENERGY PREDICTED BY IDOCK:   -1.27 KCAL/MOL
REMARK 927      BINDING AFFINITY PREDICTED BY RF-SCORE:    0.00 PKD
ROOT
HETATM    1  C   UNL     1      -9.335  10.197  65.042  1.00  0.00    -0.243 C  
HETATM    2  N   UNL     1      -9.393  10.809  66.374  1.00  0.00    -0.170 NA 
ENDROOT
BRANCH   2   3
HETATM    3  C   UNL     1      -8.919  12.209  66.335  1.00  0.00    -0.138 C  
BRANCH   3   4
HETATM    4  C   UNL     1      -9.798  13.188  67.103  1.00  0.00    -0.235 A  
HETATM    5  C   UNL     1      -9.294  14.404  67.644  1.00  0.00    -0.200 A  
HETATM    6  C   UNL     1     -11.151  12.847  67.295  1.00  0.00    -0.309 A  
HETATM    7  C   UNL     1      -7.955  14.832  67.505  1.00  0.00    -0.207 A  
HETATM    8  C   UNL     1     -12.002  13.679  68.012  1.00  0.00    -0.385 A  
HETATM    9  C   UNL     1      -7.491  16.009  68.095  1.00  0.00    -0.132 A  
HETATM   10  C   UNL     1     -11.516  14.865  68.552  1.00  0.00    -0.336 A  
HETATM   11  C   UNL     1      -8.362  16.803  68.828  1.00  0.00    -0.248 A  
HETATM   12  C   UNL     1     -10.173  15.236  68.384  1.00  0.00    -0.223 A  
HETATM   13  C   UNL     1      -9.696  16.424  68.963  1.00  0.00    -0.262 A  
ENDBRANCH   3   4
ENDBRANCH   2   3
BRANCH   2  14
HETATM   14  C   UNL     1      -8.610  10.052  67.366  1.00  0.00    -0.125 C  
BRANCH  14  15
HETATM   15  C   UNL     1      -9.424   9.559  68.544  1.00  0.00    -0.146 A  
HETATM   16  C   UNL     1     -10.568   9.937  70.660  1.00  0.00    -0.341 A  
HETATM   17  C   UNL     1      -9.890   8.244  68.564  1.00  0.00    -0.188 A  
HETATM   18  C   UNL     1     -10.699   7.785  69.609  1.00  0.00    -0.223 A  
HETATM   19  C   UNL     1      -9.754  10.398  69.615  1.00  0.00    -0.158 A  
HETATM   20  C   UNL     1     -11.077   8.624  70.670  1.00  0.00    -0.282 A  
BRANCH  20  21
HETATM   21  C   UNL     1     -12.028   8.151  71.786  1.00  0.00    -0.348 C  
HETATM   22  C   UNL     1     -11.284   7.683  73.058  1.00  0.00    -0.388 C  
HETATM   23  C   UNL     1     -12.977   9.293  72.201  1.00  0.00    -0.503 C  
HETATM   24  C   UNL     1     -12.871   6.956  71.292  1.00  0.00    -0.336 C  
ENDBRANCH  20  21
ENDBRANCH  14  15
ENDBRANCH   2  14
TORSDOF 5
ENDMDL
MODEL      106
REMARK 921   NORMALIZED FREE ENERGY PREDICTED BY IDOCK:   -4.30 KCAL/MOL
REMARK 922        TOTAL FREE ENERGY PREDICTED BY IDOCK:   -7.34 KCAL/MOL
REMARK 923 INTER-LIGAND FREE ENERGY PREDICTED BY IDOCK:   -5.61 KCAL/MOL
REMARK 924 INTRA-LIGAND FREE ENERGY PREDICTED BY IDOCK:   -1.73 KCAL/MOL
REMARK 927      BINDING AFFINITY PREDICTED BY RF-SCORE:    0.00 PKD
ROOT
HETATM    1  C   UNL     1     -11.672   7.512  70.836  1.00  0.00    -0.283 C  
HETATM    2  N   UNL     1     -11.041   8.612  70.100  1.00  0.00    -0.230 NA 
ENDROOT
BRANCH   2   3
HETATM    3  C   UNL     1      -9.606   8.723  70.438  1.00  0.00    -0.182 C  
BRANCH   3   4
HETATM    4  C   UNL     1      -8.667   8.503  69.260  1.00  0.00    -0.133 A  
HETATM    5  C   UNL     1      -7.925   9.563  68.667  1.00  0.00    -0.092 A  
HETATM    6  C   UNL     1      -8.560   7.199  68.738  1.00  0.00    -0.125 A  
HETATM    7  C   UNL     1      -7.966  10.901  69.118  1.00  0.00    -0.114 A  
HETATM    8  C   UNL     1      -7.744   6.933  67.644  1.00  0.00    -0.111 A  
HETATM    9  C   UNL     1      -7.261  11.919  68.475  1.00  0.00    -0.100 A  
HETATM   10  C   UNL     1      -7.023   7.965  67.052  1.00  0.00    -0.074 A  
HETATM   11  C   UNL     1      -6.476  11.623  67.368  1.00  0.00    -0.103 A  
HETATM   12  C   UNL     1      -7.107   9.277  67.543  1.00  0.00    -0.079 A  
HETATM   13  C   UNL     1      -6.393  10.309  66.912  1.00  0.00    -0.069 A  
ENDBRANCH   3   4
ENDBRANCH   2   3
BRANCH   2  14
HETATM   14  C   UNL     1     -11.707   9.902  70.352  1.00  0.00    -0.258 C  
BRANCH  14  15
HETATM   15  C   UNL     1     -11.588  10.889  69.209  1.00  0.00    -0.388 A  
HETATM   16  C   UNL     1     -11.244  11.400  66.854  1.00  0.00    -0.331 A  
HETATM   17  C   UNL     1     -11.818  12.246  69.437  1.00  0.00    -0.370 A  
HETATM   18  C   UNL     1     -11.779  13.167  68.385  1.00  0.00    -0.386 A  
HETATM   19  C   UNL     1     -11.279  10.475  67.908  1.00  0.00    -0.358 A  
HETATM   20  C   UNL     1     -11.514  12.765  67.065  1.00  0.00    -0.397 A  
BRANCH  20  21
HETATM   21  C   UNL     1     -11.543  13.759  65.889  1.00  0.00    -0.346 C  
HETATM   22  C   UNL     1     -10.941  15.138  66.246  1.00  0.00    -0.335 C  
HETATM   23  C   UNL     1     -10.740  13.202  64.695  1.00  0.00    -0.398 C  
HETATM   24  C   UNL     1     -12.999  14.007  65.439  1.00  0.00    -0.346 C  
ENDBRANCH  20  21
ENDBRANCH  14  15
ENDBRANCH   2  14
TORSDOF 5
ENDMDL
MODEL      107
REMARK 921   NORMALIZED FREE ENERGY PREDICTED BY IDOCK:   -4.29 KCAL/MOL
REMARK 922        TOTAL FREE ENERGY PREDICTED BY IDOCK:   -7.33 KCAL/MOL
REMARK 923 INTER-LIGAND FREE ENERGY PREDICTED BY IDOCK:   -5.80 KCAL/MOL
REMARK 924 INTRA-LIGAND FREE ENERGY PREDICTED BY IDOCK:   -1.52 KCAL/MOL
REMARK 927      BINDING AFFINITY PREDICTED BY RF-SCORE:    0.00 PKD
ROOT
HETATM    1  C   UNL     1      -8.820   8.463  65.617  1.00  0.00    -0.156 C  
HETATM    2  N   UNL     1      -9.264   8.820  66.969  1.00  0.00    -0.138 NA 
ENDROOT
BRANCH   2   3
HETATM    3  C   UNL     1      -9.236   7.643  67.864  1.00  0.00    -0.136 C  
BRANCH   3   4
HETATM    4  C   UNL     1      -8.911   7.970  69.315  1.00  0.00    -0.141 A  
HETATM    5  C   UNL     1      -9.868   7.836  70.361  1.00  0.00    -0.183 A  
HETATM    6  C   UNL     1      -7.617   8.442  69.610  1.00  0.00    -0.089 A  
HETATM    7  C   UNL     1     -11.187   7.373  70.165  1.00  0.00    -0.239 A  
HETATM    8  C   UNL     1      -7.262   8.787  70.909  1.00  0.00    -0.083 A  
HETATM    9  C   UNL     1     -12.109   7.305  71.211  1.00  0.00    -0.373 A  
HETATM   10  C   UNL     1      -8.194   8.668  71.935  1.00  0.00    -0.167 A  
HETATM   11  C   UNL     1     -11.729   7.683  72.491  1.00  0.00    -0.352 A  
HETATM   12  C   UNL     1      -9.493   8.205  71.679  1.00  0.00    -0.233 A  
HETATM   13  C   UNL     1     -10.427   8.121  72.725  1.00  0.00    -0.385 A  
ENDBRANCH   3   4
ENDBRANCH   2   3
BRANCH   2  14
HETATM   14  C   UNL     1     -10.615   9.408  66.972  1.00  0.00    -0.201 C  
BRANCH  14  15
HETATM   15  C   UNL     1     -10.685  10.784  67.601  1.00  0.00    -0.305 A  
HETATM   16  C   UNL     1     -10.086  13.144  67.653  1.00  0.00    -0.221 A  
HETATM   17  C   UNL     1     -11.519  11.005  68.697  1.00  0.00    -0.375 A  
HETATM   18  C   UNL     1     -11.650  12.281  69.254  1.00  0.00    -0.383 A  
HETATM   19  C   UNL     1      -9.951  11.864  67.095  1.00  0.00    -0.209 A  
HETATM   20  C   UNL     1     -10.956  13.386  68.733  1.00  0.00    -0.290 A  
BRANCH  20  21
HETATM   21  C   UNL     1     -11.151  14.809  69.291  1.00  0.00    -0.283 C  
HETATM   22  C   UNL     1     -11.669  15.809  68.231  1.00  0.00    -0.229 C  
HETATM   23  C   UNL     1     -12.170  14.796  70.449  1.00  0.00    -0.395 C  
HETATM   24  C   UNL     1      -9.808  15.362  69.813  1.00  0.00    -0.236 C  
ENDBRANCH  20  21
ENDBRANCH  14  15
ENDBRANCH   2  14
TORSDOF 5
ENDMDL
MODEL      108
REMARK 921   NORMALIZED FREE ENERGY PREDICTED BY IDOCK:   -4.29 KCAL/MOL
REMARK 922        TOTAL FREE ENERGY PREDICTED BY IDOCK:   -7.32 KCAL/MOL
REMARK 923 INTER-LIGAND FREE ENERGY PREDICTED BY IDOCK:   -6.47 KCAL/MOL
REMARK 924 INTRA-LIGAND FREE ENERGY PREDICTED BY IDOCK:   -0.85 KCAL/MOL
REMARK 927      BINDING AFFINITY PREDICTED BY RF-SCORE:    0.00 PKD
ROOT
HETATM    1  C   UNL     1      -6.698  10.654  65.979  1.00  0.00    -0.128 C  
HETATM    2  N   UNL     1      -7.766  10.270  66.909  1.00  0.00    -0.103 NA 
ENDROOT
BRANCH   2   3
HETATM    3  C   UNL     1      -8.524  11.454  67.366  1.00  0.00    -0.143 C  
BRANCH   3   4
HETATM    4  C   UNL     1      -9.516  11.993  66.344  1.00  0.00    -0.238 A  
HETATM    5  C   UNL     1      -9.671  13.386  66.093  1.00  0.00    -0.260 A  
HETATM    6  C   UNL     1     -10.315  11.065  65.650  1.00  0.00    -0.311 A  
HETATM    7  C   UNL     1      -8.918  14.391  66.738  1.00  0.00    -0.256 A  
HETATM    8  C   UNL     1     -11.262  11.490  64.725  1.00  0.00    -0.258 A  
HETATM    9  C   UNL     1      -9.138  15.748  66.497  1.00  0.00    -0.327 A  
HETATM   10  C   UNL     1     -11.427  12.850  64.480  1.00  0.00    -0.389 A  
HETATM   11  C   UNL     1     -10.110  16.138  65.587  1.00  0.00    -0.366 A  
HETATM   12  C   UNL     1     -10.651  13.803  65.155  1.00  0.00    -0.385 A  
HETATM   13  C   UNL     1     -10.855  15.172  64.914  1.00  0.00    -0.437 A  
ENDBRANCH   3   4
ENDBRANCH   2   3
BRANCH   2  14
HETATM   14  C   UNL     1      -7.246   9.537  68.077  1.00  0.00    -0.081 C  
BRANCH  14  15
HETATM   15  C   UNL     1      -8.315   9.122  69.067  1.00  0.00    -0.127 A  
HETATM   16  C   UNL     1      -9.231   9.060  71.322  1.00  0.00    -0.314 A  
HETATM   17  C   UNL     1      -9.467   8.477  68.616  1.00  0.00    -0.144 A  
HETATM   18  C   UNL     1     -10.497   8.144  69.502  1.00  0.00    -0.227 A  
HETATM   19  C   UNL     1      -8.196   9.392  70.435  1.00  0.00    -0.214 A  
HETATM   20  C   UNL     1     -10.416   8.446  70.871  1.00  0.00    -0.235 A  
BRANCH  20  21
HETATM   21  C   UNL     1     -11.575   8.152  71.842  1.00  0.00    -0.361 C  
HETATM   22  C   UNL     1     -11.103   7.539  73.181  1.00  0.00    -0.378 C  
HETATM   23  C   UNL     1     -12.341   9.449  72.172  1.00  0.00    -0.368 C  
HETATM   24  C   UNL     1     -12.555   7.142  71.206  1.00  0.00    -0.421 C  
ENDBRANCH  20  21
ENDBRANCH  14  15
ENDBRANCH   2  14
TORSDOF 5
ENDMDL
MODEL      109
REMARK 921   NORMALIZED FREE ENERGY PREDICTED BY IDOCK:   -4.28 KCAL/MOL
REMARK 922        TOTAL FREE ENERGY PREDICTED BY IDOCK:   -7.32 KCAL/MOL
REMARK 923 INTER-LIGAND FREE ENERGY PREDICTED BY IDOCK:   -6.61 KCAL/MOL
REMARK 924 INTRA-LIGAND FREE ENERGY PREDICTED BY IDOCK:   -0.70 KCAL/MOL
REMARK 927      BINDING AFFINITY PREDICTED BY RF-SCORE:    0.00 PKD
ROOT
HETATM    1  C   UNL     1     -10.470   8.189  72.709  1.00  0.00    -0.315 C  
HETATM    2  N   UNL     1     -11.831   8.492  72.256  1.00  0.00    -0.379 NA 
ENDROOT
BRANCH   2   3
HETATM    3  C   UNL     1     -12.333   7.440  71.346  1.00  0.00    -0.361 C  
BRANCH   3   4
HETATM    4  C   UNL     1     -11.407   6.239  71.207  1.00  0.00    -0.356 A  
HETATM    5  C   UNL     1     -10.830   5.861  69.962  1.00  0.00    -0.421 A  
HETATM    6  C   UNL     1     -11.143   5.475  72.360  1.00  0.00    -0.312 A  
HETATM    7  C   UNL     1     -11.035   6.562  68.753  1.00  0.00    -0.371 A  
HETATM    8  C   UNL     1     -10.330   4.348  72.298  1.00  0.00    -0.230 A  
HETATM    9  C   UNL     1     -10.490   6.127  67.545  1.00  0.00    -0.301 A  
HETATM   10  C   UNL     1      -9.770   3.966  71.084  1.00  0.00    -0.248 A  
HETATM   11  C   UNL     1      -9.705   4.982  67.515  1.00  0.00    -0.187 A  
HETATM   12  C   UNL     1     -10.013   4.702  69.914  1.00  0.00    -0.296 A  
HETATM   13  C   UNL     1      -9.461   4.280  68.693  1.00  0.00    -0.221 A  
ENDBRANCH   3   4
ENDBRANCH   2   3
BRANCH   2  14
HETATM   14  C   UNL     1     -11.914   9.802  71.587  1.00  0.00    -0.375 C  
BRANCH  14  15
HETATM   15  C   UNL     1     -11.106   9.892  70.309  1.00  0.00    -0.368 A  
HETATM   16  C   UNL     1      -9.034   9.592  69.065  1.00  0.00    -0.148 A  
HETATM   17  C   UNL     1     -11.726  10.278  69.120  1.00  0.00    -0.108 A  
HETATM   18  C   UNL     1     -11.016  10.304  67.916  1.00  0.00    -0.350 A  
HETATM   19  C   UNL     1      -9.744   9.568  70.274  1.00  0.00    -0.314 A  
HETATM   20  C   UNL     1      -9.660   9.941  67.853  1.00  0.00    -0.157 A  
BRANCH  20  21
HETATM   21  C   UNL     1      -8.889   9.894  66.520  1.00  0.00    -0.154 C  
HETATM   22  C   UNL     1      -9.809  10.019  65.283  1.00  0.00    -0.388 C  
HETATM   23  C   UNL     1      -7.866  11.047  66.451  1.00  0.00    -0.150 C  
HETATM   24  C   UNL     1      -8.138   8.552  66.388  1.00  0.00    -0.103 C  
ENDBRANCH  20  21
ENDBRANCH  14  15
ENDBRANCH   2  14
TORSDOF 5
ENDMDL
MODEL      110
REMARK 921   NORMALIZED FREE ENERGY PREDICTED BY IDOCK:   -4.28 KCAL/MOL
REMARK 922        TOTAL FREE ENERGY PREDICTED BY IDOCK:   -7.32 KCAL/MOL
REMARK 923 INTER-LIGAND FREE ENERGY PREDICTED BY IDOCK:   -7.15 KCAL/MOL
REMARK 924 INTRA-LIGAND FREE ENERGY PREDICTED BY IDOCK:   -0.16 KCAL/MOL
REMARK 927      BINDING AFFINITY PREDICTED BY RF-SCORE:    0.00 PKD
ROOT
HETATM    1  C   UNL     1     -12.624  10.069  70.747  1.00  0.00    -0.285 C  
HETATM    2  N   UNL     1     -11.551  10.782  70.047  1.00  0.00    -0.305 NA 
ENDROOT
BRANCH   2   3
HETATM    3  C   UNL     1     -11.985  11.200  68.696  1.00  0.00    -0.219 C  
BRANCH   3   4
HETATM    4  C   UNL     1     -11.706  12.661  68.374  1.00  0.00    -0.377 A  
HETATM    5  C   UNL     1     -11.783  13.180  67.051  1.00  0.00    -0.431 A  
HETATM    6  C   UNL     1     -11.339  13.511  69.436  1.00  0.00    -0.293 A  
HETATM    7  C   UNL     1     -12.141  12.409  65.923  1.00  0.00    -0.352 A  
HETATM    8  C   UNL     1     -11.041  14.850  69.209  1.00  0.00    -0.284 A  
HETATM    9  C   UNL     1     -12.154  12.945  64.635  1.00  0.00    -0.474 A  
HETATM   10  C   UNL     1     -11.104  15.362  67.917  1.00  0.00    -0.323 A  
HETATM   11  C   UNL     1     -11.825  14.280  64.440  1.00  0.00    -0.444 A  
HETATM   12  C   UNL     1     -11.463  14.545  66.834  1.00  0.00    -0.375 A  
HETATM   13  C   UNL     1     -11.491  15.076  65.534  1.00  0.00    -0.265 A  
ENDBRANCH   3   4
ENDBRANCH   2   3
BRANCH   2  14
HETATM   14  C   UNL     1     -10.324   9.973  69.941  1.00  0.00    -0.272 C  
BRANCH  14  15
HETATM   15  C   UNL     1     -10.397   8.647  70.670  1.00  0.00    -0.241 A  
HETATM   16  C   UNL     1     -10.658   6.227  70.682  1.00  0.00    -0.301 A  
HETATM   17  C   UNL     1     -10.166   8.597  72.045  1.00  0.00    -0.407 A  
HETATM   18  C   UNL     1     -10.163   7.377  72.728  1.00  0.00    -0.287 A  
HETATM   19  C   UNL     1     -10.664   7.450  69.996  1.00  0.00    -0.258 A  
HETATM   20  C   UNL     1     -10.386   6.160  72.062  1.00  0.00    -0.232 A  
BRANCH  20  21
HETATM   21  C   UNL     1     -10.311   4.805  72.791  1.00  0.00    -0.244 C  
HETATM   22  C   UNL     1      -9.894   3.641  71.863  1.00  0.00    -0.241 C  
HETATM   23  C   UNL     1      -9.282   4.870  73.939  1.00  0.00    -0.114 C  
HETATM   24  C   UNL     1     -11.691   4.441  73.378  1.00  0.00    -0.128 C  
ENDBRANCH  20  21
ENDBRANCH  14  15
ENDBRANCH   2  14
TORSDOF 5
ENDMDL
MODEL      111
REMARK 921   NORMALIZED FREE ENERGY PREDICTED BY IDOCK:   -4.26 KCAL/MOL
REMARK 922        TOTAL FREE ENERGY PREDICTED BY IDOCK:   -7.29 KCAL/MOL
REMARK 923 INTER-LIGAND FREE ENERGY PREDICTED BY IDOCK:   -5.76 KCAL/MOL
REMARK 924 INTRA-LIGAND FREE ENERGY PREDICTED BY IDOCK:   -1.52 KCAL/MOL
REMARK 927      BINDING AFFINITY PREDICTED BY RF-SCORE:    0.00 PKD
ROOT
HETATM    1  C   UNL     1     -12.277  15.714  70.205  1.00  0.00    -0.361 C  
HETATM    2  N   UNL     1     -11.552  14.958  69.177  1.00  0.00    -0.290 NA 
ENDROOT
BRANCH   2   3
HETATM    3  C   UNL     1     -11.269  15.803  67.998  1.00  0.00    -0.338 C  
BRANCH   3   4
HETATM    4  C   UNL     1     -10.028  16.675  68.136  1.00  0.00    -0.259 A  
HETATM    5  C   UNL     1      -8.710  16.146  68.045  1.00  0.00    -0.176 A  
HETATM    6  C   UNL     1     -10.213  18.049  68.384  1.00  0.00    -0.399 A  
HETATM    7  C   UNL     1      -8.423  14.786  67.799  1.00  0.00    -0.169 A  
HETATM    8  C   UNL     1      -9.124  18.897  68.551  1.00  0.00    -0.392 A  
HETATM    9  C   UNL     1      -7.115  14.301  67.768  1.00  0.00    -0.190 A  
HETATM   10  C   UNL     1      -7.833  18.387  68.473  1.00  0.00    -0.325 A  
HETATM   11  C   UNL     1      -6.051  15.171  67.965  1.00  0.00    -0.159 A  
HETATM   12  C   UNL     1      -7.610  17.023  68.229  1.00  0.00    -0.213 A  
HETATM   13  C   UNL     1      -6.297  16.524  68.184  1.00  0.00    -0.138 A  
ENDBRANCH   3   4
ENDBRANCH   2   3
BRANCH   2  14
HETATM   14  C   UNL     1     -12.285  13.752  68.755  1.00  0.00    -0.186 C  
BRANCH  14  15
HETATM   15  C   UNL     1     -11.399  12.661  68.190  1.00  0.00    -0.334 A  
HETATM   16  C   UNL     1     -10.501  11.395  66.314  1.00  0.00    -0.301 A  
HETATM   17  C   UNL     1     -10.552  11.946  69.037  1.00  0.00    -0.152 A  
HETATM   18  C   UNL     1      -9.677  10.980  68.528  1.00  0.00    -0.189 A  
HETATM   19  C   UNL     1     -11.381  12.362  66.822  1.00  0.00    -0.391 A  
HETATM   20  C   UNL     1      -9.613  10.696  67.154  1.00  0.00    -0.189 A  
BRANCH  20  21
HETATM   21  C   UNL     1      -8.601   9.688  66.576  1.00  0.00    -0.135 C  
HETATM   22  C   UNL     1      -7.579  10.340  65.616  1.00  0.00    -0.148 C  
HETATM   23  C   UNL     1      -7.803   9.018  67.712  1.00  0.00    -0.101 C  
HETATM   24  C   UNL     1      -9.340   8.597  65.773  1.00  0.00    -0.227 C  
ENDBRANCH  20  21
ENDBRANCH  14  15
ENDBRANCH   2  14
TORSDOF 5
ENDMDL
MODEL      112
REMARK 921   NORMALIZED FREE ENERGY PREDICTED BY IDOCK:   -4.22 KCAL/MOL
REMARK 922        TOTAL FREE ENERGY PREDICTED BY IDOCK:   -7.24 KCAL/MOL
REMARK 923 INTER-LIGAND FREE ENERGY PREDICTED BY IDOCK:   -6.34 KCAL/MOL
REMARK 924 INTRA-LIGAND FREE ENERGY PREDICTED BY IDOCK:   -0.90 KCAL/MOL
REMARK 927      BINDING AFFINITY PREDICTED BY RF-SCORE:    0.00 PKD
ROOT
HETATM    1  C   UNL     1      -6.355  11.463  66.461  1.00  0.00    -0.095 C  
HETATM    2  N   UNL     1      -7.390  11.307  67.488  1.00  0.00    -0.100 NA 
ENDROOT
BRANCH   2   3
HETATM    3  C   UNL     1      -7.584  12.564  68.242  1.00  0.00    -0.129 C  
BRANCH   3   4
HETATM    4  C   UNL     1      -8.311  13.654  67.464  1.00  0.00    -0.191 A  
HETATM    5  C   UNL     1      -9.626  13.476  66.949  1.00  0.00    -0.258 A  
HETATM    6  C   UNL     1      -7.630  14.866  67.239  1.00  0.00    -0.213 A  
HETATM    7  C   UNL     1     -10.387  12.299  67.123  1.00  0.00    -0.234 A  
HETATM    8  C   UNL     1      -8.223  15.892  66.511  1.00  0.00    -0.307 A  
HETATM    9  C   UNL     1     -11.653  12.149  66.557  1.00  0.00    -0.425 A  
HETATM   10  C   UNL     1      -9.504  15.723  65.996  1.00  0.00    -0.392 A  
HETATM   11  C   UNL     1     -12.204  13.183  65.814  1.00  0.00    -0.514 A  
HETATM   12  C   UNL     1     -10.211  14.529  66.199  1.00  0.00    -0.317 A  
HETATM   13  C   UNL     1     -11.492  14.368  65.644  1.00  0.00    -0.336 A  
ENDBRANCH   3   4
ENDBRANCH   2   3
BRANCH   2  14
HETATM   14  C   UNL     1      -7.080  10.214  68.426  1.00  0.00    -0.071 C  
BRANCH  14  15
HETATM   15  C   UNL     1      -8.279   9.715  69.205  1.00  0.00    -0.123 A  
HETATM   16  C   UNL     1     -10.577   8.916  69.313  1.00  0.00    -0.219 A  
HETATM   17  C   UNL     1      -8.170   9.486  70.578  1.00  0.00    -0.203 A  
HETATM   18  C   UNL     1      -9.243   8.963  71.306  1.00  0.00    -0.328 A  
HETATM   19  C   UNL     1      -9.503   9.444  68.582  1.00  0.00    -0.147 A  
HETATM   20  C   UNL     1     -10.464   8.644  70.690  1.00  0.00    -0.243 A  
BRANCH  20  21
HETATM   21  C   UNL     1     -11.626   7.998  71.469  1.00  0.00    -0.313 C  
HETATM   22  C   UNL     1     -11.239   7.596  72.911  1.00  0.00    -0.426 C  
HETATM   23  C   UNL     1     -12.815   8.975  71.567  1.00  0.00    -0.394 C  
HETATM   24  C   UNL     1     -12.093   6.712  70.754  1.00  0.00    -0.364 C  
ENDBRANCH  20  21
ENDBRANCH  14  15
ENDBRANCH   2  14
TORSDOF 5
ENDMDL
MODEL      113
REMARK 921   NORMALIZED FREE ENERGY PREDICTED BY IDOCK:   -4.22 KCAL/MOL
REMARK 922        TOTAL FREE ENERGY PREDICTED BY IDOCK:   -7.24 KCAL/MOL
REMARK 923 INTER-LIGAND FREE ENERGY PREDICTED BY IDOCK:   -6.47 KCAL/MOL
REMARK 924 INTRA-LIGAND FREE ENERGY PREDICTED BY IDOCK:   -0.77 KCAL/MOL
REMARK 927      BINDING AFFINITY PREDICTED BY RF-SCORE:    0.00 PKD
ROOT
HETATM    1  C   UNL     1     -11.470   9.995  70.894  1.00  0.00    -0.371 C  
HETATM    2  N   UNL     1     -10.551  10.447  69.845  1.00  0.00    -0.266 NA 
ENDROOT
BRANCH   2   3
HETATM    3  C   UNL     1     -11.158  10.294  68.505  1.00  0.00    -0.242 C  
BRANCH   3   4
HETATM    4  C   UNL     1     -11.301  11.598  67.731  1.00  0.00    -0.356 A  
HETATM    5  C   UNL     1     -10.982  11.704  66.348  1.00  0.00    -0.345 A  
HETATM    6  C   UNL     1     -11.747  12.734  68.434  1.00  0.00    -0.380 A  
HETATM    7  C   UNL     1     -10.528  10.624  65.560  1.00  0.00    -0.246 A  
HETATM    8  C   UNL     1     -11.873  13.964  67.797  1.00  0.00    -0.415 A  
HETATM    9  C   UNL     1     -10.177  10.785  64.219  1.00  0.00    -0.422 A  
HETATM   10  C   UNL     1     -11.553  14.079  66.448  1.00  0.00    -0.381 A  
HETATM   11  C   UNL     1     -10.289  12.032  63.621  1.00  0.00    -0.482 A  
HETATM   12  C   UNL     1     -11.104  12.969  65.717  1.00  0.00    -0.302 A  
HETATM   13  C   UNL     1     -10.758  13.114  64.362  1.00  0.00    -0.426 A  
ENDBRANCH   3   4
ENDBRANCH   2   3
BRANCH   2  14
HETATM   14  C   UNL     1      -9.264   9.729  69.887  1.00  0.00    -0.234 C  
BRANCH  14  15
HETATM   15  C   UNL     1      -9.253   8.442  69.089  1.00  0.00    -0.150 A  
HETATM   16  C   UNL     1      -9.938   6.130  68.751  1.00  0.00    -0.175 A  
HETATM   17  C   UNL     1      -8.604   8.396  67.854  1.00  0.00    -0.131 A  
HETATM   18  C   UNL     1      -8.636   7.239  67.070  1.00  0.00    -0.122 A  
HETATM   19  C   UNL     1      -9.905   7.289  69.541  1.00  0.00    -0.163 A  
HETATM   20  C   UNL     1      -9.321   6.086  67.486  1.00  0.00    -0.113 A  
BRANCH  20  21
HETATM   21  C   UNL     1      -9.426   4.833  66.596  1.00  0.00    -0.161 C  
HETATM   22  C   UNL     1      -9.349   3.513  67.398  1.00  0.00    -0.246 C  
HETATM   23  C   UNL     1     -10.764   4.829  65.830  1.00  0.00    -0.225 C  
HETATM   24  C   UNL     1      -8.267   4.808  65.577  1.00  0.00    -0.117 C  
ENDBRANCH  20  21
ENDBRANCH  14  15
ENDBRANCH   2  14
TORSDOF 5
ENDMDL
MODEL      114
REMARK 921   NORMALIZED FREE ENERGY PREDICTED BY IDOCK:   -4.20 KCAL/MOL
REMARK 922        TOTAL FREE ENERGY PREDICTED BY IDOCK:   -7.20 KCAL/MOL
REMARK 923 INTER-LIGAND FREE ENERGY PREDICTED BY IDOCK:   -4.77 KCAL/MOL
REMARK 924 INTRA-LIGAND FREE ENERGY PREDICTED BY IDOCK:   -2.43 KCAL/MOL
REMARK 927      BINDING AFFINITY PREDICTED BY RF-SCORE:    0.00 PKD
ROOT
HETATM    1  C   UNL     1      -9.223   4.485  64.750  1.00  0.00    -0.152 C  
HETATM    2  N   UNL     1      -9.378   5.265  65.983  1.00  0.00    -0.156 NA 
ENDROOT
BRANCH   2   3
HETATM    3  C   UNL     1      -8.184   6.099  66.236  1.00  0.00    -0.116 C  
BRANCH   3   4
HETATM    4  C   UNL     1      -8.486   7.579  66.432  1.00  0.00    -0.131 A  
HETATM    5  C   UNL     1      -8.326   8.232  67.687  1.00  0.00    -0.127 A  
HETATM    6  C   UNL     1      -8.960   8.306  65.323  1.00  0.00    -0.007 A  
HETATM    7  C   UNL     1      -7.859   7.589  68.854  1.00  0.00    -0.124 A  
HETATM    8  C   UNL     1      -9.283   9.653  65.438  1.00  0.00    -0.295 A  
HETATM    9  C   UNL     1      -7.766   8.255  70.077  1.00  0.00    -0.095 A  
HETATM   10  C   UNL     1      -9.140  10.296  66.663  1.00  0.00    -0.163 A  
HETATM   11  C   UNL     1      -8.123   9.594  70.162  1.00  0.00    -0.205 A  
HETATM   12  C   UNL     1      -8.673   9.604  67.790  1.00  0.00    -0.122 A  
HETATM   13  C   UNL     1      -8.564  10.265  69.025  1.00  0.00    -0.162 A  
ENDBRANCH   3   4
ENDBRANCH   2   3
BRANCH   2  14
HETATM   14  C   UNL     1      -9.636   4.407  67.152  1.00  0.00    -0.195 C  
BRANCH  14  15
HETATM   15  C   UNL     1     -10.239   5.141  68.332  1.00  0.00    -0.175 A  
HETATM   16  C   UNL     1     -10.413   5.567  70.723  1.00  0.00    -0.330 A  
HETATM   17  C   UNL     1     -11.142   6.183  68.114  1.00  0.00    -0.328 A  
HETATM   18  C   UNL     1     -11.661   6.919  69.184  1.00  0.00     0.075 A  
HETATM   19  C   UNL     1      -9.894   4.825  69.651  1.00  0.00    -0.292 A  
HETATM   20  C   UNL     1     -11.294   6.645  70.512  1.00  0.00    -0.413 A  
BRANCH  20  21
HETATM   21  C   UNL     1     -11.801   7.498  71.690  1.00  0.00    -0.322 C  
HETATM   22  C   UNL     1     -11.297   6.993  73.063  1.00  0.00    -0.173 C  
HETATM   23  C   UNL     1     -11.332   8.959  71.536  1.00  0.00    -0.395 C  
HETATM   24  C   UNL     1     -13.343   7.470  71.740  1.00  0.00    -0.370 C  
ENDBRANCH  20  21
ENDBRANCH  14  15
ENDBRANCH   2  14
TORSDOF 5
ENDMDL
MODEL      115
REMARK 921   NORMALIZED FREE ENERGY PREDICTED BY IDOCK:   -4.19 KCAL/MOL
REMARK 922        TOTAL FREE ENERGY PREDICTED BY IDOCK:   -7.20 KCAL/MOL
REMARK 923 INTER-LIGAND FREE ENERGY PREDICTED BY IDOCK:   -6.22 KCAL/MOL
REMARK 924 INTRA-LIGAND FREE ENERGY PREDICTED BY IDOCK:   -0.98 KCAL/MOL
REMARK 927      BINDING AFFINITY PREDICTED BY RF-SCORE:    0.00 PKD
ROOT
HETATM    1  C   UNL     1      -8.019   8.699  66.063  1.00  0.00    -0.107 C  
HETATM    2  N   UNL     1      -8.239   9.619  67.185  1.00  0.00    -0.120 NA 
ENDROOT
BRANCH   2   3
HETATM    3  C   UNL     1      -8.125  11.026  66.748  1.00  0.00    -0.151 C  
BRANCH   3   4
HETATM    4  C   UNL     1      -9.404  11.836  66.908  1.00  0.00    -0.197 A  
HETATM    5  C   UNL     1     -10.284  12.098  65.820  1.00  0.00    -0.282 A  
HETATM    6  C   UNL     1      -9.698  12.356  68.184  1.00  0.00    -0.214 A  
HETATM    7  C   UNL     1     -10.075  11.622  64.507  1.00  0.00    -0.321 A  
HETATM    8  C   UNL     1     -10.834  13.130  68.395  1.00  0.00    -0.283 A  
HETATM    9  C   UNL     1     -10.937  11.945  63.459  1.00  0.00    -0.505 A  
HETATM   10  C   UNL     1     -11.694  13.398  67.335  1.00  0.00    -0.415 A  
HETATM   11  C   UNL     1     -12.048  12.742  63.699  1.00  0.00    -0.624 A  
HETATM   12  C   UNL     1     -11.432  12.900  66.050  1.00  0.00    -0.384 A  
HETATM   13  C   UNL     1     -12.298  13.208  64.988  1.00  0.00    -0.511 A  
ENDBRANCH   3   4
ENDBRANCH   2   3
BRANCH   2  14
HETATM   14  C   UNL     1      -7.304   9.371  68.296  1.00  0.00    -0.078 C  
BRANCH  14  15
HETATM   15  C   UNL     1      -7.914   8.610  69.455  1.00  0.00    -0.097 A  
HETATM   16  C   UNL     1      -9.345   8.499  71.422  1.00  0.00    -0.274 A  
HETATM   17  C   UNL     1      -7.686   7.239  69.583  1.00  0.00    -0.105 A  
HETATM   18  C   UNL     1      -8.292   6.504  70.607  1.00  0.00    -0.133 A  
HETATM   19  C   UNL     1      -8.735   9.239  70.399  1.00  0.00    -0.263 A  
HETATM   20  C   UNL     1      -9.153   7.109  71.537  1.00  0.00    -0.143 A  
BRANCH  20  21
HETATM   21  C   UNL     1      -9.885   6.294  72.621  1.00  0.00    -0.175 C  
HETATM   22  C   UNL     1      -9.893   6.993  74.001  1.00  0.00    -0.345 C  
HETATM   23  C   UNL     1     -11.354   6.059  72.215  1.00  0.00    -0.353 C  
HETATM   24  C   UNL     1      -9.195   4.927  72.813  1.00  0.00    -0.145 C  
ENDBRANCH  20  21
ENDBRANCH  14  15
ENDBRANCH   2  14
TORSDOF 5
ENDMDL
MODEL      116
REMARK 921   NORMALIZED FREE ENERGY PREDICTED BY IDOCK:   -4.19 KCAL/MOL
REMARK 922        TOTAL FREE ENERGY PREDICTED BY IDOCK:   -7.20 KCAL/MOL
REMARK 923 INTER-LIGAND FREE ENERGY PREDICTED BY IDOCK:   -6.48 KCAL/MOL
REMARK 924 INTRA-LIGAND FREE ENERGY PREDICTED BY IDOCK:   -0.71 KCAL/MOL
REMARK 927      BINDING AFFINITY PREDICTED BY RF-SCORE:    0.00 PKD
ROOT
HETATM    1  C   UNL     1      -9.189  10.467  69.275  1.00  0.00    -0.184 C  
HETATM    2  N   UNL     1     -10.282   9.921  68.464  1.00  0.00    -0.170 NA 
ENDROOT
BRANCH   2   3
HETATM    3  C   UNL     1     -11.512  10.726  68.621  1.00  0.00    -0.295 C  
BRANCH   3   4
HETATM    4  C   UNL     1     -11.496  12.047  67.864  1.00  0.00    -0.396 A  
HETATM    5  C   UNL     1     -11.158  12.132  66.484  1.00  0.00    -0.352 A  
HETATM    6  C   UNL     1     -11.807  13.219  68.580  1.00  0.00    -0.380 A  
HETATM    7  C   UNL     1     -10.832  11.016  65.683  1.00  0.00    -0.160 A  
HETATM    8  C   UNL     1     -11.782  14.463  67.959  1.00  0.00    -0.374 A  
HETATM    9  C   UNL     1     -10.457  11.151  64.346  1.00  0.00    -0.418 A  
HETATM   10  C   UNL     1     -11.443  14.556  66.613  1.00  0.00    -0.373 A  
HETATM   11  C   UNL     1     -10.417  12.410  63.764  1.00  0.00    -0.475 A  
HETATM   12  C   UNL     1     -11.125  13.411  65.869  1.00  0.00    -0.293 A  
HETATM   13  C   UNL     1     -10.757  13.531  64.518  1.00  0.00    -0.431 A  
ENDBRANCH   3   4
ENDBRANCH   2   3
BRANCH   2  14
HETATM   14  C   UNL     1     -10.569   8.514  68.795  1.00  0.00    -0.133 C  
BRANCH  14  15
HETATM   15  C   UNL     1     -10.195   7.537  67.700  1.00  0.00    -0.275 A  
HETATM   16  C   UNL     1      -8.758   6.828  65.867  1.00  0.00    -0.147 A  
HETATM   17  C   UNL     1     -10.906   6.343  67.562  1.00  0.00    -0.438 A  
HETATM   18  C   UNL     1     -10.537   5.396  66.601  1.00  0.00    -0.359 A  
HETATM   19  C   UNL     1      -9.128   7.780  66.828  1.00  0.00    -0.185 A  
HETATM   20  C   UNL     1      -9.443   5.603  65.745  1.00  0.00    -0.035 A  
BRANCH  20  21
HETATM   21  C   UNL     1      -8.983   4.534  64.736  1.00  0.00    -0.152 C  
HETATM   22  C   UNL     1      -8.299   5.136  63.486  1.00  0.00    -0.128 C  
HETATM   23  C   UNL     1      -7.973   3.573  65.395  1.00  0.00    -0.090 C  
HETATM   24  C   UNL     1     -10.196   3.720  64.237  1.00  0.00    -0.240 C  
ENDBRANCH  20  21
ENDBRANCH  14  15
ENDBRANCH   2  14
TORSDOF 5
ENDMDL
MODEL      117
REMARK 921   NORMALIZED FREE ENERGY PREDICTED BY IDOCK:   -4.19 KCAL/MOL
REMARK 922        TOTAL FREE ENERGY PREDICTED BY IDOCK:   -7.19 KCAL/MOL
REMARK 923 INTER-LIGAND FREE ENERGY PREDICTED BY IDOCK:   -6.61 KCAL/MOL
REMARK 924 INTRA-LIGAND FREE ENERGY PREDICTED BY IDOCK:   -0.58 KCAL/MOL
REMARK 927      BINDING AFFINITY PREDICTED BY RF-SCORE:    0.00 PKD
ROOT
HETATM    1  C   UNL     1      -7.202   9.444  69.092  1.00  0.00    -0.066 C  
HETATM    2  N   UNL     1      -8.604   9.523  69.517  1.00  0.00    -0.154 NA 
ENDROOT
BRANCH   2   3
HETATM    3  C   UNL     1      -8.793   8.899  70.844  1.00  0.00    -0.219 C  
BRANCH   3   4
HETATM    4  C   UNL     1     -10.249   8.734  71.256  1.00  0.00    -0.332 A  
HETATM    5  C   UNL     1     -10.765   7.509  71.766  1.00  0.00    -0.243 A  
HETATM    6  C   UNL     1     -11.107   9.840  71.098  1.00  0.00    -0.414 A  
HETATM    7  C   UNL     1      -9.986   6.347  71.960  1.00  0.00    -0.183 A  
HETATM    8  C   UNL     1     -12.455   9.751  71.427  1.00  0.00    -0.482 A  
HETATM    9  C   UNL     1     -10.543   5.152  72.415  1.00  0.00    -0.278 A  
HETATM   10  C   UNL     1     -12.969   8.554  71.916  1.00  0.00    -0.394 A  
HETATM   11  C   UNL     1     -11.898   5.090  72.707  1.00  0.00    -0.072 A  
HETATM   12  C   UNL     1     -12.145   7.431  72.084  1.00  0.00    -0.289 A  
HETATM   13  C   UNL     1     -12.692   6.224  72.552  1.00  0.00     0.254 A  
ENDBRANCH   3   4
ENDBRANCH   2   3
BRANCH   2  14
HETATM   14  C   UNL     1      -9.515   8.896  68.543  1.00  0.00    -0.147 C  
BRANCH  14  15
HETATM   15  C   UNL     1     -10.170   9.878  67.594  1.00  0.00    -0.255 A  
HETATM   16  C   UNL     1     -11.475  11.887  67.162  1.00  0.00    -0.386 A  
HETATM   17  C   UNL     1      -9.988   9.739  66.217  1.00  0.00    -0.331 A  
HETATM   18  C   UNL     1     -10.528  10.670  65.325  1.00  0.00    -0.264 A  
HETATM   19  C   UNL     1     -10.938  10.952  68.059  1.00  0.00    -0.317 A  
HETATM   20  C   UNL     1     -11.265  11.779  65.774  1.00  0.00    -0.337 A  
BRANCH  20  21
HETATM   21  C   UNL     1     -11.799  12.850  64.805  1.00  0.00    -0.409 C  
HETATM   22  C   UNL     1     -10.726  13.887  64.397  1.00  0.00    -0.286 C  
HETATM   23  C   UNL     1     -12.319  12.192  63.511  1.00  0.00    -0.682 C  
HETATM   24  C   UNL     1     -12.953  13.634  65.465  1.00  0.00    -0.325 C  
ENDBRANCH  20  21
ENDBRANCH  14  15
ENDBRANCH   2  14
TORSDOF 5
ENDMDL
MODEL      118
REMARK 921   NORMALIZED FREE ENERGY PREDICTED BY IDOCK:   -4.19 KCAL/MOL
REMARK 922        TOTAL FREE ENERGY PREDICTED BY IDOCK:   -7.19 KCAL/MOL
REMARK 923 INTER-LIGAND FREE ENERGY PREDICTED BY IDOCK:   -6.02 KCAL/MOL
REMARK 924 INTRA-LIGAND FREE ENERGY PREDICTED BY IDOCK:   -1.18 KCAL/MOL
REMARK 927      BINDING AFFINITY PREDICTED BY RF-SCORE:    0.00 PKD
ROOT
HETATM    1  C   UNL     1     -13.672   7.542  71.454  1.00  0.00    -0.324 C  
HETATM    2  N   UNL     1     -12.448   8.346  71.531  1.00  0.00    -0.307 NA 
ENDROOT
BRANCH   2   3
HETATM    3  C   UNL     1     -11.751   8.130  72.817  1.00  0.00    -0.269 C  
BRANCH   3   4
HETATM    4  C   UNL     1     -10.350   7.549  72.678  1.00  0.00    -0.311 A  
HETATM    5  C   UNL     1     -10.084   6.157  72.813  1.00  0.00    -0.195 A  
HETATM    6  C   UNL     1      -9.289   8.441  72.430  1.00  0.00    -0.356 A  
HETATM    7  C   UNL     1     -11.078   5.186  73.063  1.00  0.00    -0.379 A  
HETATM    8  C   UNL     1      -7.981   7.983  72.322  1.00  0.00    -0.161 A  
HETATM    9  C   UNL     1     -10.766   3.838  73.239  1.00  0.00    -0.287 A  
HETATM   10  C   UNL     1      -7.711   6.625  72.462  1.00  0.00    -0.098 A  
HETATM   11  C   UNL     1      -9.446   3.418  73.151  1.00  0.00    -0.136 A  
HETATM   12  C   UNL     1      -8.742   5.708  72.713  1.00  0.00    -0.119 A  
HETATM   13  C   UNL     1      -8.443   4.345  72.881  1.00  0.00    -0.102 A  
ENDBRANCH   3   4
ENDBRANCH   2   3
BRANCH   2  14
HETATM   14  C   UNL     1     -12.717   9.784  71.353  1.00  0.00    -0.387 C  
BRANCH  14  15
HETATM   15  C   UNL     1     -11.927  10.422  70.229  1.00  0.00    -0.387 A  
HETATM   16  C   UNL     1     -11.258  12.364  68.922  1.00  0.00    -0.330 A  
HETATM   17  C   UNL     1     -11.025   9.655  69.491  1.00  0.00    -0.233 A  
HETATM   18  C   UNL     1     -10.237  10.236  68.493  1.00  0.00    -0.192 A  
HETATM   19  C   UNL     1     -12.052  11.782  69.921  1.00  0.00    -0.359 A  
HETATM   20  C   UNL     1     -10.316  11.607  68.198  1.00  0.00    -0.208 A  
BRANCH  20  21
HETATM   21  C   UNL     1      -9.399  12.272  67.153  1.00  0.00    -0.196 C  
HETATM   22  C   UNL     1      -9.837  13.709  66.790  1.00  0.00    -0.271 C  
HETATM   23  C   UNL     1      -7.952  12.350  67.683  1.00  0.00    -0.164 C  
HETATM   24  C   UNL     1      -9.408  11.454  65.844  1.00  0.00    -0.247 C  
ENDBRANCH  20  21
ENDBRANCH  14  15
ENDBRANCH   2  14
TORSDOF 5
ENDMDL
MODEL      119
REMARK 921   NORMALIZED FREE ENERGY PREDICTED BY IDOCK:   -4.18 KCAL/MOL
REMARK 922        TOTAL FREE ENERGY PREDICTED BY IDOCK:   -7.18 KCAL/MOL
REMARK 923 INTER-LIGAND FREE ENERGY PREDICTED BY IDOCK:   -6.44 KCAL/MOL
REMARK 924 INTRA-LIGAND FREE ENERGY PREDICTED BY IDOCK:   -0.74 KCAL/MOL
REMARK 927      BINDING AFFINITY PREDICTED BY RF-SCORE:    0.00 PKD
ROOT
HETATM    1  C   UNL     1     -12.004   9.301  71.741  1.00  0.00    -0.385 C  
HETATM    2  N   UNL     1     -11.382   9.731  70.484  1.00  0.00    -0.291 NA 
ENDROOT
BRANCH   2   3
HETATM    3  C   UNL     1      -9.945   9.382  70.457  1.00  0.00    -0.267 C  
BRANCH   3   4
HETATM    4  C   UNL     1      -9.629   8.095  69.707  1.00  0.00    -0.171 A  
HETATM    5  C   UNL     1      -8.586   8.011  68.742  1.00  0.00    -0.128 A  
HETATM    6  C   UNL     1     -10.423   6.964  69.977  1.00  0.00    -0.231 A  
HETATM    7  C   UNL     1      -7.737   9.088  68.404  1.00  0.00    -0.098 A  
HETATM    8  C   UNL     1     -10.209   5.765  69.307  1.00  0.00    -0.292 A  
HETATM    9  C   UNL     1      -6.760   8.975  67.414  1.00  0.00    -0.069 A  
HETATM   10  C   UNL     1      -9.198   5.677  68.355  1.00  0.00    -0.125 A  
HETATM   11  C   UNL     1      -6.590   7.771  66.746  1.00  0.00    -0.058 A  
HETATM   12  C   UNL     1      -8.388   6.783  68.059  1.00  0.00    -0.120 A  
HETATM   13  C   UNL     1      -7.393   6.680  67.073  1.00  0.00    -0.082 A  
ENDBRANCH   3   4
ENDBRANCH   2   3
BRANCH   2  14
HETATM   14  C   UNL     1     -11.541  11.178  70.253  1.00  0.00    -0.296 C  
BRANCH  14  15
HETATM   15  C   UNL     1     -11.485  11.576  68.793  1.00  0.00    -0.349 A  
HETATM   16  C   UNL     1     -11.121  11.045  66.445  1.00  0.00    -0.137 A  
HETATM   17  C   UNL     1     -11.855  12.866  68.410  1.00  0.00    -0.357 A  
HETATM   18  C   UNL     1     -11.875  13.236  67.061  1.00  0.00    -0.442 A  
HETATM   19  C   UNL     1     -11.097  10.672  67.797  1.00  0.00    -0.385 A  
HETATM   20  C   UNL     1     -11.530  12.331  66.044  1.00  0.00    -0.434 A  
BRANCH  20  21
HETATM   21  C   UNL     1     -11.621  12.706  64.553  1.00  0.00    -0.399 C  
HETATM   22  C   UNL     1     -11.939  14.202  64.323  1.00  0.00    -0.460 C  
HETATM   23  C   UNL     1     -10.286  12.404  63.842  1.00  0.00    -0.450 C  
HETATM   24  C   UNL     1     -12.745  11.897  63.870  1.00  0.00    -0.413 C  
ENDBRANCH  20  21
ENDBRANCH  14  15
ENDBRANCH   2  14
TORSDOF 5
ENDMDL
MODEL      120
REMARK 921   NORMALIZED FREE ENERGY PREDICTED BY IDOCK:   -4.17 KCAL/MOL
REMARK 922        TOTAL FREE ENERGY PREDICTED BY IDOCK:   -7.17 KCAL/MOL
REMARK 923 INTER-LIGAND FREE ENERGY PREDICTED BY IDOCK:   -6.03 KCAL/MOL
REMARK 924 INTRA-LIGAND FREE ENERGY PREDICTED BY IDOCK:   -1.15 KCAL/MOL
REMARK 927      BINDING AFFINITY PREDICTED BY RF-SCORE:    0.00 PKD
ROOT
HETATM    1  C   UNL     1      -8.261   9.539  64.482  1.00  0.00    -0.152 C  
HETATM    2  N   UNL     1      -8.634   9.942  65.843  1.00  0.00    -0.134 NA 
ENDROOT
BRANCH   2   3
HETATM    3  C   UNL     1      -8.133   8.971  66.839  1.00  0.00    -0.112 C  
BRANCH   3   4
HETATM    4  C   UNL     1      -9.210   8.074  67.434  1.00  0.00    -0.155 A  
HETATM    5  C   UNL     1      -9.682   8.229  68.768  1.00  0.00    -0.160 A  
HETATM    6  C   UNL     1      -9.728   7.044  66.626  1.00  0.00    -0.226 A  
HETATM    7  C   UNL     1      -9.224   9.229  69.654  1.00  0.00    -0.182 A  
HETATM    8  C   UNL     1     -10.692   6.169  67.116  1.00  0.00    -0.422 A  
HETATM    9  C   UNL     1      -9.677   9.314  70.971  1.00  0.00    -0.341 A  
HETATM   10  C   UNL     1     -11.152   6.308  68.421  1.00  0.00    -0.371 A  
HETATM   11  C   UNL     1     -10.620   8.408  71.435  1.00  0.00    -0.296 A  
HETATM   12  C   UNL     1     -10.656   7.320  69.256  1.00  0.00    -0.230 A  
HETATM   13  C   UNL     1     -11.113   7.424  70.581  1.00  0.00    -0.285 A  
ENDBRANCH   3   4
ENDBRANCH   2   3
BRANCH   2  14
HETATM   14  C   UNL     1     -10.091  10.096  65.995  1.00  0.00    -0.248 C  
BRANCH  14  15
HETATM   15  C   UNL     1     -10.499  11.307  66.808  1.00  0.00    -0.291 A  
HETATM   16  C   UNL     1     -11.836  12.362  68.548  1.00  0.00    -0.352 A  
HETATM   17  C   UNL     1      -9.826  12.518  66.636  1.00  0.00    -0.245 A  
HETATM   18  C   UNL     1     -10.140  13.631  67.422  1.00  0.00    -0.241 A  
HETATM   19  C   UNL     1     -11.524  11.245  67.759  1.00  0.00    -0.350 A  
HETATM   20  C   UNL     1     -11.136  13.577  68.411  1.00  0.00    -0.298 A  
BRANCH  20  21
HETATM   21  C   UNL     1     -11.437  14.774  69.332  1.00  0.00    -0.330 C  
HETATM   22  C   UNL     1     -12.606  14.508  70.309  1.00  0.00    -0.378 C  
HETATM   23  C   UNL     1     -10.198  15.124  70.180  1.00  0.00    -0.101 C  
HETATM   24  C   UNL     1     -11.829  16.006  68.488  1.00  0.00    -0.126 C  
ENDBRANCH  20  21
ENDBRANCH  14  15
ENDBRANCH   2  14
TORSDOF 5
ENDMDL
MODEL      121
REMARK 921   NORMALIZED FREE ENERGY PREDICTED BY IDOCK:   -4.16 KCAL/MOL
REMARK 922        TOTAL FREE ENERGY PREDICTED BY IDOCK:   -7.15 KCAL/MOL
REMARK 923 INTER-LIGAND FREE ENERGY PREDICTED BY IDOCK:   -6.94 KCAL/MOL
REMARK 924 INTRA-LIGAND FREE ENERGY PREDICTED BY IDOCK:   -0.21 KCAL/MOL
REMARK 927      BINDING AFFINITY PREDICTED BY RF-SCORE:    0.00 PKD
ROOT
HETATM    1  C   UNL     1     -11.761  12.325  68.534  1.00  0.00    -0.331 C  
HETATM    2  N   UNL     1     -10.637  11.400  68.350  1.00  0.00    -0.193 NA 
ENDROOT
BRANCH   2   3
HETATM    3  C   UNL     1      -9.800  11.805  67.201  1.00  0.00    -0.193 C  
BRANCH   3   4
HETATM    4  C   UNL     1     -10.557  12.545  66.106  1.00  0.00    -0.279 A  
HETATM    5  C   UNL     1     -10.461  13.954  65.930  1.00  0.00    -0.309 A  
HETATM    6  C   UNL     1     -11.394  11.792  65.261  1.00  0.00    -0.284 A  
HETATM    7  C   UNL     1      -9.650  14.793  66.726  1.00  0.00    -0.267 A  
HETATM    8  C   UNL     1     -12.137  12.407  64.259  1.00  0.00    -0.516 A  
HETATM    9  C   UNL     1      -9.624  16.177  66.552  1.00  0.00    -0.285 A  
HETATM   10  C   UNL     1     -12.057  13.786  64.087  1.00  0.00    -0.478 A  
HETATM   11  C   UNL     1     -10.399  16.762  65.560  1.00  0.00    -0.236 A  
HETATM   12  C   UNL     1     -11.235  14.568  64.912  1.00  0.00    -0.395 A  
HETATM   13  C   UNL     1     -11.191  15.962  64.740  1.00  0.00    -0.364 A  
ENDBRANCH   3   4
ENDBRANCH   2   3
BRANCH   2  14
HETATM   14  C   UNL     1     -11.088  10.009  68.167  1.00  0.00    -0.193 C  
BRANCH  14  15
HETATM   15  C   UNL     1     -10.759   9.098  69.331  1.00  0.00    -0.210 A  
HETATM   16  C   UNL     1     -10.515   8.684  71.718  1.00  0.00    -0.394 A  
HETATM   17  C   UNL     1     -10.481   7.750  69.102  1.00  0.00    -0.219 A  
HETATM   18  C   UNL     1     -10.240   6.876  70.166  1.00  0.00    -0.208 A  
HETATM   19  C   UNL     1     -10.754   9.563  70.652  1.00  0.00    -0.375 A  
HETATM   20  C   UNL     1     -10.273   7.314  71.500  1.00  0.00    -0.206 A  
BRANCH  20  21
HETATM   21  C   UNL     1     -10.083   6.345  72.682  1.00  0.00    -0.193 C  
HETATM   22  C   UNL     1      -9.753   7.066  74.010  1.00  0.00    -0.332 C  
HETATM   23  C   UNL     1     -11.367   5.522  72.912  1.00  0.00    -0.348 C  
HETATM   24  C   UNL     1      -8.915   5.378  72.393  1.00  0.00    -0.139 C  
ENDBRANCH  20  21
ENDBRANCH  14  15
ENDBRANCH   2  14
TORSDOF 5
ENDMDL
MODEL      122
REMARK 921   NORMALIZED FREE ENERGY PREDICTED BY IDOCK:   -4.14 KCAL/MOL
REMARK 922        TOTAL FREE ENERGY PREDICTED BY IDOCK:   -7.13 KCAL/MOL
REMARK 923 INTER-LIGAND FREE ENERGY PREDICTED BY IDOCK:   -6.43 KCAL/MOL
REMARK 924 INTRA-LIGAND FREE ENERGY PREDICTED BY IDOCK:   -0.70 KCAL/MOL
REMARK 927      BINDING AFFINITY PREDICTED BY RF-SCORE:    0.00 PKD
ROOT
HETATM    1  C   UNL     1     -12.061  13.060  65.277  1.00  0.00    -0.441 C  
HETATM    2  N   UNL     1     -11.255  12.221  66.170  1.00  0.00    -0.312 NA 
ENDROOT
BRANCH   2   3
HETATM    3  C   UNL     1     -10.112  12.980  66.722  1.00  0.00    -0.247 C  
BRANCH   3   4
HETATM    4  C   UNL     1     -10.509  14.212  67.525  1.00  0.00    -0.249 A  
HETATM    5  C   UNL     1     -11.257  14.127  68.733  1.00  0.00    -0.294 A  
HETATM    6  C   UNL     1     -10.130  15.473  67.025  1.00  0.00    -0.254 A  
HETATM    7  C   UNL     1     -11.682  12.912  69.312  1.00  0.00    -0.378 A  
HETATM    8  C   UNL     1     -10.485  16.640  67.692  1.00  0.00    -0.320 A  
HETATM    9  C   UNL     1     -12.458  12.877  70.471  1.00  0.00    -0.294 A  
HETATM   10  C   UNL     1     -11.225  16.567  68.867  1.00  0.00    -0.257 A  
HETATM   11  C   UNL     1     -12.817  14.063  71.097  1.00  0.00    -0.427 A  
HETATM   12  C   UNL     1     -11.621  15.329  69.394  1.00  0.00    -0.347 A  
HETATM   13  C   UNL     1     -12.394  15.280  70.566  1.00  0.00    -0.434 A  
ENDBRANCH   3   4
ENDBRANCH   2   3
BRANCH   2  14
HETATM   14  C   UNL     1     -10.760  11.008  65.496  1.00  0.00    -0.148 C  
BRANCH  14  15
HETATM   15  C   UNL     1     -10.447   9.865  66.439  1.00  0.00    -0.197 A  
HETATM   16  C   UNL     1      -9.281   7.797  66.978  1.00  0.00    -0.176 A  
HETATM   17  C   UNL     1     -10.974   9.867  67.732  1.00  0.00    -0.278 A  
HETATM   18  C   UNL     1     -10.645   8.857  68.642  1.00  0.00    -0.182 A  
HETATM   19  C   UNL     1      -9.612   8.807  66.063  1.00  0.00    -0.297 A  
HETATM   20  C   UNL     1      -9.774   7.810  68.297  1.00  0.00    -0.169 A  
BRANCH  20  21
HETATM   21  C   UNL     1      -9.347   6.735  69.314  1.00  0.00    -0.144 C  
HETATM   22  C   UNL     1     -10.545   5.988  69.945  1.00  0.00    -0.345 C  
HETATM   23  C   UNL     1      -8.452   5.679  68.635  1.00  0.00    -0.105 C  
HETATM   24  C   UNL     1      -8.562   7.385  70.474  1.00  0.00    -0.139 C  
ENDBRANCH  20  21
ENDBRANCH  14  15
ENDBRANCH   2  14
TORSDOF 5
ENDMDL
MODEL      123
REMARK 921   NORMALIZED FREE ENERGY PREDICTED BY IDOCK:   -4.13 KCAL/MOL
REMARK 922        TOTAL FREE ENERGY PREDICTED BY IDOCK:   -7.12 KCAL/MOL
REMARK 923 INTER-LIGAND FREE ENERGY PREDICTED BY IDOCK:   -6.16 KCAL/MOL
REMARK 924 INTRA-LIGAND FREE ENERGY PREDICTED BY IDOCK:   -0.96 KCAL/MOL
REMARK 927      BINDING AFFINITY PREDICTED BY RF-SCORE:    0.00 PKD
ROOT
HETATM    1  C   UNL     1     -14.407   8.326  71.736  1.00  0.00    -0.483 C  
HETATM    2  N   UNL     1     -13.003   8.096  71.382  1.00  0.00    -0.282 NA 
ENDROOT
BRANCH   2   3
HETATM    3  C   UNL     1     -12.482   6.879  72.042  1.00  0.00    -0.248 C  
BRANCH   3   4
HETATM    4  C   UNL     1     -10.975   6.883  72.259  1.00  0.00    -0.275 A  
HETATM    5  C   UNL     1     -10.068   6.291  71.335  1.00  0.00    -0.222 A  
HETATM    6  C   UNL     1     -10.482   7.479  73.436  1.00  0.00    -0.404 A  
HETATM    7  C   UNL     1     -10.466   5.671  70.130  1.00  0.00    -0.366 A  
HETATM    8  C   UNL     1      -9.119   7.491  73.713  1.00  0.00    -0.311 A  
HETATM    9  C   UNL     1      -9.548   5.059  69.277  1.00  0.00    -0.230 A  
HETATM   10  C   UNL     1      -8.227   6.906  72.819  1.00  0.00    -0.116 A  
HETATM   11  C   UNL     1      -8.197   5.065  69.597  1.00  0.00    -0.088 A  
HETATM   12  C   UNL     1      -8.683   6.301  71.639  1.00  0.00    -0.134 A  
HETATM   13  C   UNL     1      -7.767   5.691  70.765  1.00  0.00    -0.092 A  
ENDBRANCH   3   4
ENDBRANCH   2   3
BRANCH   2  14
HETATM   14  C   UNL     1     -12.148   9.246  71.724  1.00  0.00    -0.387 C  
BRANCH  14  15
HETATM   15  C   UNL     1     -11.548   9.945  70.522  1.00  0.00    -0.386 A  
HETATM   16  C   UNL     1     -11.758  11.328  68.529  1.00  0.00    -0.378 A  
HETATM   17  C   UNL     1     -10.166   9.940  70.333  1.00  0.00    -0.299 A  
HETATM   18  C   UNL     1      -9.584  10.634  69.268  1.00  0.00    -0.164 A  
HETATM   19  C   UNL     1     -12.343  10.630  69.595  1.00  0.00    -0.209 A  
HETATM   20  C   UNL     1     -10.361  11.363  68.353  1.00  0.00    -0.209 A  
BRANCH  20  21
HETATM   21  C   UNL     1      -9.725  12.192  67.221  1.00  0.00    -0.193 C  
HETATM   22  C   UNL     1     -10.298  11.850  65.825  1.00  0.00    -0.285 C  
HETATM   23  C   UNL     1      -9.961  13.697  67.460  1.00  0.00    -0.230 C  
HETATM   24  C   UNL     1      -8.205  11.928  67.160  1.00  0.00    -0.171 C  
ENDBRANCH  20  21
ENDBRANCH  14  15
ENDBRANCH   2  14
TORSDOF 5
ENDMDL
MODEL      124
REMARK 921   NORMALIZED FREE ENERGY PREDICTED BY IDOCK:   -4.12 KCAL/MOL
REMARK 922        TOTAL FREE ENERGY PREDICTED BY IDOCK:   -7.10 KCAL/MOL
REMARK 923 INTER-LIGAND FREE ENERGY PREDICTED BY IDOCK:   -6.08 KCAL/MOL
REMARK 924 INTRA-LIGAND FREE ENERGY PREDICTED BY IDOCK:   -1.02 KCAL/MOL
REMARK 927      BINDING AFFINITY PREDICTED BY RF-SCORE:    0.00 PKD
ROOT
HETATM    1  C   UNL     1     -11.402  11.657  65.457  1.00  0.00    -0.160 C  
HETATM    2  N   UNL     1     -11.187  12.580  66.577  1.00  0.00    -0.291 NA 
ENDROOT
BRANCH   2   3
HETATM    3  C   UNL     1     -11.393  11.899  67.873  1.00  0.00    -0.291 C  
BRANCH   3   4
HETATM    4  C   UNL     1     -10.159  11.185  68.407  1.00  0.00    -0.193 A  
HETATM    5  C   UNL     1      -8.894  11.828  68.521  1.00  0.00    -0.122 A  
HETATM    6  C   UNL     1     -10.289   9.832  68.774  1.00  0.00    -0.227 A  
HETATM    7  C   UNL     1      -8.664  13.178  68.179  1.00  0.00    -0.193 A  
HETATM    8  C   UNL     1      -9.197   9.110  69.242  1.00  0.00    -0.146 A  
HETATM    9  C   UNL     1      -7.395  13.755  68.259  1.00  0.00    -0.118 A  
HETATM   10  C   UNL     1      -7.955   9.728  69.347  1.00  0.00    -0.125 A  
HETATM   11  C   UNL     1      -6.320  12.998  68.704  1.00  0.00    -0.083 A  
HETATM   12  C   UNL     1      -7.786  11.074  68.988  1.00  0.00    -0.126 A  
HETATM   13  C   UNL     1      -6.517  11.670  69.075  1.00  0.00    -0.082 A  
ENDBRANCH   3   4
ENDBRANCH   2   3
BRANCH   2  14
HETATM   14  C   UNL     1     -12.063  13.763  66.497  1.00  0.00    -0.443 C  
BRANCH  14  15
HETATM   15  C   UNL     1     -11.339  15.078  66.698  1.00  0.00    -0.289 A  
HETATM   16  C   UNL     1     -10.043  16.956  65.849  1.00  0.00    -0.302 A  
HETATM   17  C   UNL     1     -11.378  15.709  67.942  1.00  0.00    -0.302 A  
HETATM   18  C   UNL     1     -10.774  16.956  68.133  1.00  0.00    -0.375 A  
HETATM   19  C   UNL     1     -10.646  15.704  65.656  1.00  0.00    -0.393 A  
HETATM   20  C   UNL     1     -10.111  17.620  67.088  1.00  0.00    -0.328 A  
BRANCH  20  21
HETATM   21  C   UNL     1      -9.507  19.026  67.269  1.00  0.00    -0.353 C  
HETATM   22  C   UNL     1      -8.693  19.172  68.576  1.00  0.00    -0.401 C  
HETATM   23  C   UNL     1      -8.561  19.358  66.097  1.00  0.00    -0.297 C  
HETATM   24  C   UNL     1     -10.631  20.083  67.319  1.00  0.00    -0.442 C  
ENDBRANCH  20  21
ENDBRANCH  14  15
ENDBRANCH   2  14
TORSDOF 5
ENDMDL
MODEL      125
REMARK 921   NORMALIZED FREE ENERGY PREDICTED BY IDOCK:   -4.12 KCAL/MOL
REMARK 922        TOTAL FREE ENERGY PREDICTED BY IDOCK:   -7.10 KCAL/MOL
REMARK 923 INTER-LIGAND FREE ENERGY PREDICTED BY IDOCK:   -6.10 KCAL/MOL
REMARK 924 INTRA-LIGAND FREE ENERGY PREDICTED BY IDOCK:   -1.01 KCAL/MOL
REMARK 927      BINDING AFFINITY PREDICTED BY RF-SCORE:    0.00 PKD
ROOT
HETATM    1  C   UNL     1     -12.137   8.627  71.066  1.00  0.00    -0.215 C  
HETATM    2  N   UNL     1     -11.053   8.591  70.079  1.00  0.00    -0.202 NA 
ENDROOT
BRANCH   2   3
HETATM    3  C   UNL     1     -10.135   7.461  70.340  1.00  0.00    -0.192 C  
BRANCH   3   4
HETATM    4  C   UNL     1      -9.994   6.489  69.177  1.00  0.00    -0.163 A  
HETATM    5  C   UNL     1      -9.052   5.421  69.184  1.00  0.00    -0.131 A  
HETATM    6  C   UNL     1     -10.819   6.684  68.052  1.00  0.00    -0.345 A  
HETATM    7  C   UNL     1      -8.183   5.145  70.263  1.00  0.00    -0.090 A  
HETATM    8  C   UNL     1     -10.721   5.852  66.943  1.00  0.00    -0.395 A  
HETATM    9  C   UNL     1      -7.240   4.119  70.207  1.00  0.00    -0.042 A  
HETATM   10  C   UNL     1      -9.797   4.812  66.937  1.00  0.00    -0.225 A  
HETATM   11  C   UNL     1      -7.151   3.324  69.073  1.00  0.00    -0.049 A  
HETATM   12  C   UNL     1      -8.957   4.589  68.039  1.00  0.00    -0.136 A  
HETATM   13  C   UNL     1      -8.010   3.552  68.000  1.00  0.00    -0.075 A  
ENDBRANCH   3   4
ENDBRANCH   2   3
BRANCH   2  14
HETATM   14  C   UNL     1     -10.287   9.849  70.049  1.00  0.00    -0.272 C  
BRANCH  14  15
HETATM   15  C   UNL     1     -10.553  10.701  68.826  1.00  0.00    -0.234 A  
HETATM   16  C   UNL     1     -10.197  11.241  66.478  1.00  0.00    -0.269 A  
HETATM   17  C   UNL     1     -11.510  11.716  68.880  1.00  0.00    -0.349 A  
HETATM   18  C   UNL     1     -11.820  12.471  67.745  1.00  0.00    -0.375 A  
HETATM   19  C   UNL     1      -9.883  10.484  67.616  1.00  0.00    -0.192 A  
HETATM   20  C   UNL     1     -11.189  12.239  66.512  1.00  0.00    -0.373 A  
BRANCH  20  21
HETATM   21  C   UNL     1     -11.577  13.015  65.238  1.00  0.00    -0.361 C  
HETATM   22  C   UNL     1     -12.247  12.123  64.167  1.00  0.00    -0.509 C  
HETATM   23  C   UNL     1     -12.567  14.147  65.580  1.00  0.00    -0.495 C  
HETATM   24  C   UNL     1     -10.320  13.631  64.589  1.00  0.00    -0.407 C  
ENDBRANCH  20  21
ENDBRANCH  14  15
ENDBRANCH   2  14
TORSDOF 5
ENDMDL
MODEL      126
REMARK 921   NORMALIZED FREE ENERGY PREDICTED BY IDOCK:   -4.11 KCAL/MOL
REMARK 922        TOTAL FREE ENERGY PREDICTED BY IDOCK:   -7.09 KCAL/MOL
REMARK 923 INTER-LIGAND FREE ENERGY PREDICTED BY IDOCK:   -6.16 KCAL/MOL
REMARK 924 INTRA-LIGAND FREE ENERGY PREDICTED BY IDOCK:   -0.93 KCAL/MOL
REMARK 927      BINDING AFFINITY PREDICTED BY RF-SCORE:    0.00 PKD
ROOT
HETATM    1  C   UNL     1     -10.586   8.068  67.595  1.00  0.00    -0.194 C  
HETATM    2  N   UNL     1     -10.333   9.484  67.882  1.00  0.00    -0.213 NA 
ENDROOT
BRANCH   2   3
HETATM    3  C   UNL     1     -10.600   9.794  69.302  1.00  0.00    -0.221 C  
BRANCH   3   4
HETATM    4  C   UNL     1      -9.483   9.384  70.253  1.00  0.00    -0.294 A  
HETATM    5  C   UNL     1      -9.720   8.596  71.414  1.00  0.00    -0.314 A  
HETATM    6  C   UNL     1      -8.179   9.831  69.966  1.00  0.00    -0.207 A  
HETATM    7  C   UNL     1     -10.990   8.102  71.785  1.00  0.00    -0.322 A  
HETATM    8  C   UNL     1      -7.117   9.519  70.808  1.00  0.00    -0.106 A  
HETATM    9  C   UNL     1     -11.186   7.375  72.960  1.00  0.00    -0.345 A  
HETATM   10  C   UNL     1      -7.341   8.757  71.950  1.00  0.00    -0.050 A  
HETATM   11  C   UNL     1     -10.108   7.104  73.791  1.00  0.00    -0.391 A  
HETATM   12  C   UNL     1      -8.627   8.297  72.269  1.00  0.00    -0.257 A  
HETATM   13  C   UNL     1      -8.836   7.554  73.443  1.00  0.00    -0.241 A  
ENDBRANCH   3   4
ENDBRANCH   2   3
BRANCH   2  14
HETATM   14  C   UNL     1     -11.133  10.375  67.024  1.00  0.00    -0.067 C  
BRANCH  14  15
HETATM   15  C   UNL     1     -10.789  11.843  67.172  1.00  0.00    -0.301 A  
HETATM   16  C   UNL     1      -9.269  13.722  66.876  1.00  0.00    -0.263 A  
HETATM   17  C   UNL     1     -11.741  12.733  67.670  1.00  0.00    -0.422 A  
HETATM   18  C   UNL     1     -11.469  14.102  67.753  1.00  0.00    -0.352 A  
HETATM   19  C   UNL     1      -9.539  12.348  66.794  1.00  0.00    -0.224 A  
HETATM   20  C   UNL     1     -10.237  14.634  67.339  1.00  0.00    -0.240 A  
BRANCH  20  21
HETATM   21  C   UNL     1      -9.955  16.149  67.356  1.00  0.00    -0.247 C  
HETATM   22  C   UNL     1      -8.498  16.489  67.746  1.00  0.00    -0.180 C  
HETATM   23  C   UNL     1     -10.213  16.759  65.963  1.00  0.00    -0.361 C  
HETATM   24  C   UNL     1     -10.870  16.847  68.384  1.00  0.00    -0.347 C  
ENDBRANCH  20  21
ENDBRANCH  14  15
ENDBRANCH   2  14
TORSDOF 5
ENDMDL
MODEL      127
REMARK 921   NORMALIZED FREE ENERGY PREDICTED BY IDOCK:   -4.10 KCAL/MOL
REMARK 922        TOTAL FREE ENERGY PREDICTED BY IDOCK:   -7.07 KCAL/MOL
REMARK 923 INTER-LIGAND FREE ENERGY PREDICTED BY IDOCK:   -6.32 KCAL/MOL
REMARK 924 INTRA-LIGAND FREE ENERGY PREDICTED BY IDOCK:   -0.75 KCAL/MOL
REMARK 927      BINDING AFFINITY PREDICTED BY RF-SCORE:    0.00 PKD
ROOT
HETATM    1  C   UNL     1     -12.629   9.673  71.641  1.00  0.00    -0.402 C  
HETATM    2  N   UNL     1     -11.811  10.308  70.602  1.00  0.00    -0.320 NA 
ENDROOT
BRANCH   2   3
HETATM    3  C   UNL     1     -10.371  10.200  70.922  1.00  0.00     0.346 C  
BRANCH   3   4
HETATM    4  C   UNL     1      -9.550   9.472  69.866  1.00  0.00    -0.250 A  
HETATM    5  C   UNL     1      -9.807   8.122  69.495  1.00  0.00    -0.181 A  
HETATM    6  C   UNL     1      -8.486  10.171  69.263  1.00  0.00    -0.167 A  
HETATM    7  C   UNL     1     -10.848   7.340  70.042  1.00  0.00    -0.271 A  
HETATM    8  C   UNL     1      -7.677   9.558  68.313  1.00  0.00    -0.086 A  
HETATM    9  C   UNL     1     -11.033   6.004  69.686  1.00  0.00    -0.470 A  
HETATM   10  C   UNL     1      -7.915   8.236  67.952  1.00  0.00    -0.123 A  
HETATM   11  C   UNL     1     -10.190   5.415  68.754  1.00  0.00    -0.252 A  
HETATM   12  C   UNL     1      -8.964   7.508  68.533  1.00  0.00    -0.128 A  
HETATM   13  C   UNL     1      -9.169   6.165  68.175  1.00  0.00    -0.117 A  
ENDBRANCH   3   4
ENDBRANCH   2   3
BRANCH   2  14
HETATM   14  C   UNL     1     -12.166  11.725  70.405  1.00  0.00    -0.330 C  
BRANCH  14  15
HETATM   15  C   UNL     1     -11.974  12.214  68.985  1.00  0.00    -0.302 A  
HETATM   16  C   UNL     1     -11.809  14.007  67.346  1.00  0.00    -0.445 A  
HETATM   17  C   UNL     1     -11.675  11.303  67.971  1.00  0.00    -0.305 A  
HETATM   18  C   UNL     1     -11.428  11.739  66.665  1.00  0.00    -0.337 A  
HETATM   19  C   UNL     1     -12.059  13.572  68.655  1.00  0.00    -0.303 A  
HETATM   20  C   UNL     1     -11.467  13.101  66.324  1.00  0.00    -0.372 A  
BRANCH  20  21
HETATM   21  C   UNL     1     -11.123  13.597  64.906  1.00  0.00    -0.356 C  
HETATM   22  C   UNL     1     -10.232  12.609  64.118  1.00  0.00    -0.366 C  
HETATM   23  C   UNL     1     -12.411  13.811  64.086  1.00  0.00    -0.382 C  
HETATM   24  C   UNL     1     -10.353  14.933  64.984  1.00  0.00    -0.401 C  
ENDBRANCH  20  21
ENDBRANCH  14  15
ENDBRANCH   2  14
TORSDOF 5
ENDMDL
MODEL      128
REMARK 921   NORMALIZED FREE ENERGY PREDICTED BY IDOCK:   -4.08 KCAL/MOL
REMARK 922        TOTAL FREE ENERGY PREDICTED BY IDOCK:   -7.06 KCAL/MOL
REMARK 923 INTER-LIGAND FREE ENERGY PREDICTED BY IDOCK:   -7.03 KCAL/MOL
REMARK 924 INTRA-LIGAND FREE ENERGY PREDICTED BY IDOCK:   -0.03 KCAL/MOL
REMARK 927      BINDING AFFINITY PREDICTED BY RF-SCORE:    0.00 PKD
ROOT
HETATM    1  C   UNL     1     -10.291   9.314  71.524  1.00  0.00    -0.294 C  
HETATM    2  N   UNL     1     -10.770   9.907  70.271  1.00  0.00    -0.290 NA 
ENDROOT
BRANCH   2   3
HETATM    3  C   UNL     1     -12.209  10.239  70.357  1.00  0.00    -0.261 C  
BRANCH   3   4
HETATM    4  C   UNL     1     -12.495  11.680  70.755  1.00  0.00    -0.425 A  
HETATM    5  C   UNL     1     -12.095  12.788  69.956  1.00  0.00    -0.355 A  
HETATM    6  C   UNL     1     -13.162  11.905  71.975  1.00  0.00    -0.461 A  
HETATM    7  C   UNL     1     -11.422  12.664  68.720  1.00  0.00    -0.349 A  
HETATM    8  C   UNL     1     -13.430  13.197  72.415  1.00  0.00    -0.643 A  
HETATM    9  C   UNL     1     -11.003  13.778  67.993  1.00  0.00    -0.268 A  
HETATM   10  C   UNL     1     -13.033  14.285  71.644  1.00  0.00    -0.420 A  
HETATM   11  C   UNL     1     -11.262  15.054  68.474  1.00  0.00    -0.298 A  
HETATM   12  C   UNL     1     -12.364  14.099  70.425  1.00  0.00    -0.428 A  
HETATM   13  C   UNL     1     -11.946  15.213  69.677  1.00  0.00    -0.359 A  
ENDBRANCH   3   4
ENDBRANCH   2   3
BRANCH   2  14
HETATM   14  C   UNL     1     -10.537   9.023  69.115  1.00  0.00    -0.203 C  
BRANCH  14  15
HETATM   15  C   UNL     1     -10.148   7.609  69.491  1.00  0.00    -0.192 A  
HETATM   16  C   UNL     1      -8.480   5.866  69.818  1.00  0.00    -0.125 A  
HETATM   17  C   UNL     1     -11.117   6.728  69.975  1.00  0.00    -0.366 A  
HETATM   18  C   UNL     1     -10.770   5.439  70.391  1.00  0.00    -0.276 A  
HETATM   19  C   UNL     1      -8.826   7.158  69.397  1.00  0.00    -0.136 A  
HETATM   20  C   UNL     1      -9.442   4.982  70.344  1.00  0.00    -0.233 A  
BRANCH  20  21
HETATM   21  C   UNL     1      -9.038   3.592  70.870  1.00  0.00    -0.182 C  
HETATM   22  C   UNL     1      -9.056   2.501  69.773  1.00  0.00    -0.183 C  
HETATM   23  C   UNL     1      -7.612   3.633  71.455  1.00  0.00    -0.056 C  
HETATM   24  C   UNL     1     -10.018   3.137  71.973  1.00  0.00    -0.223 C  
ENDBRANCH  20  21
ENDBRANCH  14  15
ENDBRANCH   2  14
TORSDOF 5
ENDMDL
MODEL      129
REMARK 921   NORMALIZED FREE ENERGY PREDICTED BY IDOCK:   -4.07 KCAL/MOL
REMARK 922        TOTAL FREE ENERGY PREDICTED BY IDOCK:   -7.04 KCAL/MOL
REMARK 923 INTER-LIGAND FREE ENERGY PREDICTED BY IDOCK:   -6.12 KCAL/MOL
REMARK 924 INTRA-LIGAND FREE ENERGY PREDICTED BY IDOCK:   -0.92 KCAL/MOL
REMARK 927      BINDING AFFINITY PREDICTED BY RF-SCORE:    0.00 PKD
ROOT
HETATM    1  C   UNL     1     -11.352  14.523  71.141  1.00  0.00     0.090 C  
HETATM    2  N   UNL     1     -11.554  13.492  70.117  1.00  0.00    -0.183 NA 
ENDROOT
BRANCH   2   3
HETATM    3  C   UNL     1     -12.287  14.036  68.954  1.00  0.00    -0.071 C  
BRANCH   3   4
HETATM    4  C   UNL     1     -11.400  14.405  67.772  1.00  0.00    -0.331 A  
HETATM    5  C   UNL     1     -11.547  13.804  66.490  1.00  0.00    -0.386 A  
HETATM    6  C   UNL     1     -10.389  15.362  67.983  1.00  0.00    -0.249 A  
HETATM    7  C   UNL     1     -12.528  12.837  66.182  1.00  0.00     0.010 A  
HETATM    8  C   UNL     1      -9.524  15.725  66.956  1.00  0.00    -0.235 A  
HETATM    9  C   UNL     1     -12.604  12.236  64.925  1.00  0.00    -0.242 A  
HETATM   10  C   UNL     1      -9.654  15.135  65.703  1.00  0.00    -0.295 A  
HETATM   11  C   UNL     1     -11.707  12.602  63.930  1.00  0.00    -0.532 A  
HETATM   12  C   UNL     1     -10.648  14.176  65.457  1.00  0.00    -0.335 A  
HETATM   13  C   UNL     1     -10.743  13.572  64.192  1.00  0.00    -0.220 A  
ENDBRANCH   3   4
ENDBRANCH   2   3
BRANCH   2  14
HETATM   14  C   UNL     1     -12.270  12.318  70.646  1.00  0.00    -0.287 C  
BRANCH  14  15
HETATM   15  C   UNL     1     -11.750  10.994  70.124  1.00  0.00    -0.442 A  
HETATM   16  C   UNL     1     -10.791   9.622  68.356  1.00  0.00    -0.212 A  
HETATM   17  C   UNL     1     -11.650   9.900  70.984  1.00  0.00    -0.470 A  
HETATM   18  C   UNL     1     -11.111   8.687  70.542  1.00  0.00    -0.268 A  
HETATM   19  C   UNL     1     -11.334  10.838  68.797  1.00  0.00    -0.352 A  
HETATM   20  C   UNL     1     -10.648   8.524  69.226  1.00  0.00    -0.193 A  
BRANCH  20  21
HETATM   21  C   UNL     1      -9.985   7.217  68.751  1.00  0.00    -0.167 C  
HETATM   22  C   UNL     1      -8.553   7.428  68.207  1.00  0.00    -0.124 C  
HETATM   23  C   UNL     1      -9.891   6.209  69.915  1.00  0.00    -0.205 C  
HETATM   24  C   UNL     1     -10.811   6.587  67.610  1.00  0.00    -0.419 C  
ENDBRANCH  20  21
ENDBRANCH  14  15
ENDBRANCH   2  14
TORSDOF 5
ENDMDL
MODEL      130
REMARK 921   NORMALIZED FREE ENERGY PREDICTED BY IDOCK:   -4.06 KCAL/MOL
REMARK 922        TOTAL FREE ENERGY PREDICTED BY IDOCK:   -7.03 KCAL/MOL
REMARK 923 INTER-LIGAND FREE ENERGY PREDICTED BY IDOCK:   -7.04 KCAL/MOL
REMARK 924 INTRA-LIGAND FREE ENERGY PREDICTED BY IDOCK:    0.01 KCAL/MOL
REMARK 927      BINDING AFFINITY PREDICTED BY RF-SCORE:    0.00 PKD
ROOT
HETATM    1  C   UNL     1      -8.767  12.546  67.285  1.00  0.00    -0.193 C  
HETATM    2  N   UNL     1     -10.051  12.668  66.586  1.00  0.00    -0.236 NA 
ENDROOT
BRANCH   2   3
HETATM    3  C   UNL     1     -11.179  12.366  67.493  1.00  0.00    -0.294 C  
BRANCH   3   4
HETATM    4  C   UNL     1     -11.473  13.461  68.510  1.00  0.00    -0.345 A  
HETATM    5  C   UNL     1     -12.032  13.183  69.790  1.00  0.00    -0.382 A  
HETATM    6  C   UNL     1     -11.195  14.792  68.143  1.00  0.00    -0.307 A  
HETATM    7  C   UNL     1     -12.345  11.885  70.247  1.00  0.00    -0.287 A  
HETATM    8  C   UNL     1     -11.467  15.843  69.012  1.00  0.00    -0.380 A  
HETATM    9  C   UNL     1     -12.939  11.663  71.490  1.00  0.00    -0.463 A  
HETATM   10  C   UNL     1     -12.022  15.582  70.261  1.00  0.00    -0.401 A  
HETATM   11  C   UNL     1     -13.222  12.737  72.321  1.00  0.00    -0.491 A  
HETATM   12  C   UNL     1     -12.315  14.269  70.659  1.00  0.00    -0.431 A  
HETATM   13  C   UNL     1     -12.903  14.030  71.912  1.00  0.00    -0.421 A  
ENDBRANCH   3   4
ENDBRANCH   2   3
BRANCH   2  14
HETATM   14  C   UNL     1     -10.123  11.793  65.402  1.00  0.00    -0.254 C  
BRANCH  14  15
HETATM   15  C   UNL     1      -9.851  10.333  65.699  1.00  0.00    -0.332 A  
HETATM   16  C   UNL     1      -8.529   8.307  65.425  1.00  0.00    -0.189 A  
HETATM   17  C   UNL     1     -10.636   9.656  66.633  1.00  0.00    -0.173 A  
HETATM   18  C   UNL     1     -10.362   8.328  66.973  1.00  0.00    -0.393 A  
HETATM   19  C   UNL     1      -8.804   9.639  65.081  1.00  0.00    -0.215 A  
HETATM   20  C   UNL     1      -9.290   7.627  66.396  1.00  0.00    -0.228 A  
BRANCH  20  21
HETATM   21  C   UNL     1      -8.934   6.189  66.818  1.00  0.00    -0.125 C  
HETATM   22  C   UNL     1      -8.365   6.102  68.253  1.00  0.00    -0.114 C  
HETATM   23  C   UNL     1     -10.184   5.288  66.763  1.00  0.00    -0.287 C  
HETATM   24  C   UNL     1      -7.859   5.609  65.873  1.00  0.00    -0.101 C  
ENDBRANCH  20  21
ENDBRANCH  14  15
ENDBRANCH   2  14
TORSDOF 5
ENDMDL
MODEL      131
REMARK 921   NORMALIZED FREE ENERGY PREDICTED BY IDOCK:   -4.06 KCAL/MOL
REMARK 922        TOTAL FREE ENERGY PREDICTED BY IDOCK:   -7.03 KCAL/MOL
REMARK 923 INTER-LIGAND FREE ENERGY PREDICTED BY IDOCK:   -6.88 KCAL/MOL
REMARK 924 INTRA-LIGAND FREE ENERGY PREDICTED BY IDOCK:   -0.15 KCAL/MOL
REMARK 927      BINDING AFFINITY PREDICTED BY RF-SCORE:    0.00 PKD
ROOT
HETATM    1  C   UNL     1     -11.086   6.694  68.763  1.00  0.00    -0.227 C  
HETATM    2  N   UNL     1     -10.043   7.697  69.004  1.00  0.00    -0.192 NA 
ENDROOT
BRANCH   2   3
HETATM    3  C   UNL     1      -9.022   7.185  69.943  1.00  0.00    -0.142 C  
BRANCH   3   4
HETATM    4  C   UNL     1      -9.593   6.552  71.204  1.00  0.00    -0.181 A  
HETATM    5  C   UNL     1      -9.655   5.142  71.390  1.00  0.00    -0.215 A  
HETATM    6  C   UNL     1     -10.093   7.410  72.202  1.00  0.00    -0.223 A  
HETATM    7  C   UNL     1      -9.181   4.202  70.449  1.00  0.00    -0.196 A  
HETATM    8  C   UNL     1     -10.656   6.899  73.367  1.00  0.00    -0.372 A  
HETATM    9  C   UNL     1      -9.308   2.827  70.650  1.00  0.00    -0.218 A  
HETATM   10  C   UNL     1     -10.729   5.523  73.552  1.00  0.00    -0.322 A  
HETATM   11  C   UNL     1      -9.899   2.351  71.812  1.00  0.00    -0.228 A  
HETATM   12  C   UNL     1     -10.244   4.637  72.579  1.00  0.00    -0.243 A  
HETATM   13  C   UNL     1     -10.355   3.250  72.773  1.00  0.00    -0.237 A  
ENDBRANCH   3   4
ENDBRANCH   2   3
BRANCH   2  14
HETATM   14  C   UNL     1     -10.597   8.961  69.522  1.00  0.00    -0.228 C  
BRANCH  14  15
HETATM   15  C   UNL     1     -10.839  10.008  68.454  1.00  0.00    -0.277 A  
HETATM   16  C   UNL     1     -11.731  12.154  67.729  1.00  0.00    -0.390 A  
HETATM   17  C   UNL     1     -10.289   9.843  67.182  1.00  0.00    -0.304 A  
HETATM   18  C   UNL     1     -10.442  10.827  66.201  1.00  0.00    -0.278 A  
HETATM   19  C   UNL     1     -11.581  11.166  68.713  1.00  0.00    -0.389 A  
HETATM   20  C   UNL     1     -11.147  12.016  66.455  1.00  0.00    -0.365 A  
BRANCH  20  21
HETATM   21  C   UNL     1     -11.257  13.139  65.406  1.00  0.00    -0.315 C  
HETATM   22  C   UNL     1     -12.652  13.807  65.379  1.00  0.00    -0.534 C  
HETATM   23  C   UNL     1     -10.222  14.245  65.693  1.00  0.00    -0.366 C  
HETATM   24  C   UNL     1     -11.003  12.571  63.993  1.00  0.00    -0.443 C  
ENDBRANCH  20  21
ENDBRANCH  14  15
ENDBRANCH   2  14
TORSDOF 5
ENDMDL
MODEL      132
REMARK 921   NORMALIZED FREE ENERGY PREDICTED BY IDOCK:   -4.06 KCAL/MOL
REMARK 922        TOTAL FREE ENERGY PREDICTED BY IDOCK:   -7.03 KCAL/MOL
REMARK 923 INTER-LIGAND FREE ENERGY PREDICTED BY IDOCK:   -6.45 KCAL/MOL
REMARK 924 INTRA-LIGAND FREE ENERGY PREDICTED BY IDOCK:   -0.58 KCAL/MOL
REMARK 927      BINDING AFFINITY PREDICTED BY RF-SCORE:    0.00 PKD
ROOT
HETATM    1  C   UNL     1     -11.352  14.519  71.143  1.00  0.00     0.090 C  
HETATM    2  N   UNL     1     -11.572  13.472  70.140  1.00  0.00    -0.183 NA 
ENDROOT
BRANCH   2   3
HETATM    3  C   UNL     1     -12.324  13.998  68.980  1.00  0.00    -0.104 C  
BRANCH   3   4
HETATM    4  C   UNL     1     -11.458  14.334  67.774  1.00  0.00    -0.354 A  
HETATM    5  C   UNL     1     -10.927  15.636  67.553  1.00  0.00    -0.309 A  
HETATM    6  C   UNL     1     -11.204  13.309  66.841  1.00  0.00    -0.332 A  
HETATM    7  C   UNL     1     -11.128  16.726  68.428  1.00  0.00    -0.266 A  
HETATM    8  C   UNL     1     -10.446  13.554  65.702  1.00  0.00    -0.296 A  
HETATM    9  C   UNL     1     -10.631  17.999  68.147  1.00  0.00    -0.334 A  
HETATM   10  C   UNL     1      -9.932  14.826  65.473  1.00  0.00    -0.390 A  
HETATM   11  C   UNL     1      -9.901  18.215  66.987  1.00  0.00    -0.324 A  
HETATM   12  C   UNL     1     -10.167  15.872  66.379  1.00  0.00    -0.311 A  
HETATM   13  C   UNL     1      -9.663  17.156  66.114  1.00  0.00    -0.263 A  
ENDBRANCH   3   4
ENDBRANCH   2   3
BRANCH   2  14
HETATM   14  C   UNL     1     -12.281  12.308  70.699  1.00  0.00    -0.287 C  
BRANCH  14  15
HETATM   15  C   UNL     1     -11.773  10.976  70.188  1.00  0.00    -0.442 A  
HETATM   16  C   UNL     1     -10.849   9.575  68.424  1.00  0.00    -0.183 A  
HETATM   17  C   UNL     1     -11.658   9.894  71.063  1.00  0.00    -0.470 A  
HETATM   18  C   UNL     1     -11.130   8.674  70.629  1.00  0.00    -0.282 A  
HETATM   19  C   UNL     1     -11.382  10.798  68.856  1.00  0.00    -0.349 A  
HETATM   20  C   UNL     1     -10.691   8.490  69.308  1.00  0.00    -0.147 A  
BRANCH  20  21
HETATM   21  C   UNL     1     -10.039   7.175  68.841  1.00  0.00    -0.177 C  
HETATM   22  C   UNL     1      -8.617   7.375  68.267  1.00  0.00    -0.124 C  
HETATM   23  C   UNL     1      -9.925   6.185  70.018  1.00  0.00    -0.217 C  
HETATM   24  C   UNL     1     -10.887   6.529  67.725  1.00  0.00    -0.395 C  
ENDBRANCH  20  21
ENDBRANCH  14  15
ENDBRANCH   2  14
TORSDOF 5
ENDMDL
MODEL      133
REMARK 921   NORMALIZED FREE ENERGY PREDICTED BY IDOCK:   -4.05 KCAL/MOL
REMARK 922        TOTAL FREE ENERGY PREDICTED BY IDOCK:   -7.02 KCAL/MOL
REMARK 923 INTER-LIGAND FREE ENERGY PREDICTED BY IDOCK:   -6.75 KCAL/MOL
REMARK 924 INTRA-LIGAND FREE ENERGY PREDICTED BY IDOCK:   -0.27 KCAL/MOL
REMARK 927      BINDING AFFINITY PREDICTED BY RF-SCORE:    0.00 PKD
ROOT
HETATM    1  C   UNL     1      -8.838  11.450  68.266  1.00  0.00    -0.167 C  
HETATM    2  N   UNL     1      -9.470  10.734  67.153  1.00  0.00    -0.159 NA 
ENDROOT
BRANCH   2   3
HETATM    3  C   UNL     1     -10.944  10.801  67.248  1.00  0.00    -0.297 C  
BRANCH   3   4
HETATM    4  C   UNL     1     -11.458  11.574  68.454  1.00  0.00    -0.364 A  
HETATM    5  C   UNL     1     -11.539  12.995  68.473  1.00  0.00    -0.363 A  
HETATM    6  C   UNL     1     -11.842  10.839  69.592  1.00  0.00    -0.392 A  
HETATM    7  C   UNL     1     -11.177  13.818  67.383  1.00  0.00    -0.330 A  
HETATM    8  C   UNL     1     -12.293  11.482  70.739  1.00  0.00    -0.472 A  
HETATM    9  C   UNL     1     -11.224  15.211  67.462  1.00  0.00    -0.331 A  
HETATM   10  C   UNL     1     -12.366  12.871  70.769  1.00  0.00    -0.385 A  
HETATM   11  C   UNL     1     -11.654  15.821  68.632  1.00  0.00    -0.392 A  
HETATM   12  C   UNL     1     -11.989  13.636  69.656  1.00  0.00    -0.402 A  
HETATM   13  C   UNL     1     -12.042  15.039  69.718  1.00  0.00    -0.354 A  
ENDBRANCH   3   4
ENDBRANCH   2   3
BRANCH   2  14
HETATM   14  C   UNL     1      -9.044   9.325  67.086  1.00  0.00    -0.130 C  
BRANCH  14  15
HETATM   15  C   UNL     1      -9.426   8.510  68.304  1.00  0.00    -0.143 A  
HETATM   16  C   UNL     1      -9.165   7.926  70.654  1.00  0.00    -0.157 A  
HETATM   17  C   UNL     1     -10.500   7.621  68.236  1.00  0.00    -0.219 A  
HETATM   18  C   UNL     1     -10.913   6.907  69.365  1.00  0.00    -0.274 A  
HETATM   19  C   UNL     1      -8.747   8.641  69.521  1.00  0.00    -0.139 A  
HETATM   20  C   UNL     1     -10.272   7.057  70.606  1.00  0.00    -0.205 A  
BRANCH  20  21
HETATM   21  C   UNL     1     -10.767   6.333  71.873  1.00  0.00    -0.271 C  
HETATM   22  C   UNL     1     -10.381   4.835  71.903  1.00  0.00    -0.242 C  
HETATM   23  C   UNL     1     -10.168   6.988  73.134  1.00  0.00    -0.288 C  
HETATM   24  C   UNL     1     -12.306   6.402  71.957  1.00  0.00    -0.268 C  
ENDBRANCH  20  21
ENDBRANCH  14  15
ENDBRANCH   2  14
TORSDOF 5
ENDMDL
MODEL      134
REMARK 921   NORMALIZED FREE ENERGY PREDICTED BY IDOCK:   -4.03 KCAL/MOL
REMARK 922        TOTAL FREE ENERGY PREDICTED BY IDOCK:   -6.99 KCAL/MOL
REMARK 923 INTER-LIGAND FREE ENERGY PREDICTED BY IDOCK:   -5.62 KCAL/MOL
REMARK 924 INTRA-LIGAND FREE ENERGY PREDICTED BY IDOCK:   -1.37 KCAL/MOL
REMARK 927      BINDING AFFINITY PREDICTED BY RF-SCORE:    0.00 PKD
ROOT
HETATM    1  C   UNL     1      -5.839  10.964  70.405  1.00  0.00    -0.128 C  
HETATM    2  N   UNL     1      -6.917  10.246  69.715  1.00  0.00    -0.111 NA 
ENDROOT
BRANCH   2   3
HETATM    3  C   UNL     1      -7.052   8.868  70.233  1.00  0.00    -0.049 C  
BRANCH   3   4
HETATM    4  C   UNL     1      -8.487   8.448  70.525  1.00  0.00    -0.133 A  
HETATM    5  C   UNL     1      -9.228   7.604  69.652  1.00  0.00    -0.146 A  
HETATM    6  C   UNL     1      -9.091   8.943  71.697  1.00  0.00    -0.280 A  
HETATM    7  C   UNL     1      -8.710   7.060  68.456  1.00  0.00    -0.122 A  
HETATM    8  C   UNL     1     -10.408   8.624  72.010  1.00  0.00    -0.416 A  
HETATM    9  C   UNL     1      -9.489   6.277  67.603  1.00  0.00    -0.115 A  
HETATM   10  C   UNL     1     -11.143   7.807  71.157  1.00  0.00    -0.269 A  
HETATM   11  C   UNL     1     -10.808   6.000  67.932  1.00  0.00    -0.378 A  
HETATM   12  C   UNL     1     -10.574   7.298  69.980  1.00  0.00    -0.247 A  
HETATM   13  C   UNL     1     -11.344   6.499  69.117  1.00  0.00    -0.330 A  
ENDBRANCH   3   4
ENDBRANCH   2   3
BRANCH   2  14
HETATM   14  C   UNL     1      -6.712  10.206  68.257  1.00  0.00    -0.054 C  
BRANCH  14  15
HETATM   15  C   UNL     1      -7.794  10.911  67.465  1.00  0.00    -0.114 A  
HETATM   16  C   UNL     1      -9.105  12.891  66.930  1.00  0.00    -0.224 A  
HETATM   17  C   UNL     1      -8.444  10.240  66.428  1.00  0.00    -0.132 A  
HETATM   18  C   UNL     1      -9.399  10.891  65.640  1.00  0.00    -0.236 A  
HETATM   19  C   UNL     1      -8.149  12.240  67.723  1.00  0.00    -0.155 A  
HETATM   20  C   UNL     1      -9.737  12.237  65.856  1.00  0.00    -0.247 A  
BRANCH  20  21
HETATM   21  C   UNL     1     -10.732  12.984  64.947  1.00  0.00    -0.349 C  
HETATM   22  C   UNL     1     -10.632  12.559  63.463  1.00  0.00    -0.394 C  
HETATM   23  C   UNL     1     -12.180  12.719  65.405  1.00  0.00    -0.532 C  
HETATM   24  C   UNL     1     -10.461  14.502  64.999  1.00  0.00    -0.454 C  
ENDBRANCH  20  21
ENDBRANCH  14  15
ENDBRANCH   2  14
TORSDOF 5
ENDMDL
MODEL      135
REMARK 921   NORMALIZED FREE ENERGY PREDICTED BY IDOCK:   -3.99 KCAL/MOL
REMARK 922        TOTAL FREE ENERGY PREDICTED BY IDOCK:   -6.94 KCAL/MOL
REMARK 923 INTER-LIGAND FREE ENERGY PREDICTED BY IDOCK:   -6.68 KCAL/MOL
REMARK 924 INTRA-LIGAND FREE ENERGY PREDICTED BY IDOCK:   -0.26 KCAL/MOL
REMARK 927      BINDING AFFINITY PREDICTED BY RF-SCORE:    0.00 PKD
ROOT
HETATM    1  C   UNL     1     -11.593  10.022  70.791  1.00  0.00    -0.360 C  
HETATM    2  N   UNL     1     -10.587  10.377  69.784  1.00  0.00    -0.260 NA 
ENDROOT
BRANCH   2   3
HETATM    3  C   UNL     1     -11.078  10.093  68.419  1.00  0.00    -0.218 C  
BRANCH   3   4
HETATM    4  C   UNL     1     -11.206  11.323  67.532  1.00  0.00    -0.357 A  
HETATM    5  C   UNL     1     -10.724  11.352  66.192  1.00  0.00    -0.320 A  
HETATM    6  C   UNL     1     -11.806  12.472  68.083  1.00  0.00    -0.371 A  
HETATM    7  C   UNL     1     -10.109  10.254  65.553  1.00  0.00    -0.351 A  
HETATM    8  C   UNL     1     -11.928  13.640  67.338  1.00  0.00    -0.413 A  
HETATM    9  C   UNL     1      -9.605  10.342  64.255  1.00  0.00    -0.375 A  
HETATM   10  C   UNL     1     -11.450  13.680  66.032  1.00  0.00    -0.340 A  
HETATM   11  C   UNL     1      -9.719  11.532  63.550  1.00  0.00    -0.354 A  
HETATM   12  C   UNL     1     -10.845  12.556  65.451  1.00  0.00    -0.316 A  
HETATM   13  C   UNL     1     -10.343  12.628  64.141  1.00  0.00    -0.412 A  
ENDBRANCH   3   4
ENDBRANCH   2   3
BRANCH   2  14
HETATM   14  C   UNL     1      -9.310   9.674  70.004  1.00  0.00    -0.241 C  
BRANCH  14  15
HETATM   15  C   UNL     1      -9.457   8.338  70.702  1.00  0.00    -0.181 A  
HETATM   16  C   UNL     1      -9.726   5.918  70.652  1.00  0.00    -0.217 A  
HETATM   17  C   UNL     1      -9.358   8.265  72.092  1.00  0.00    -0.303 A  
HETATM   18  C   UNL     1      -9.424   7.034  72.753  1.00  0.00    -0.170 A  
HETATM   19  C   UNL     1      -9.663   7.152  69.987  1.00  0.00    -0.171 A  
HETATM   20  C   UNL     1      -9.587   5.829  72.050  1.00  0.00    -0.170 A  
BRANCH  20  21
HETATM   21  C   UNL     1      -9.586   4.463  72.762  1.00  0.00    -0.171 C  
HETATM   22  C   UNL     1     -10.581   4.394  73.943  1.00  0.00    -0.326 C  
HETATM   23  C   UNL     1      -9.966   3.343  71.773  1.00  0.00    -0.194 C  
HETATM   24  C   UNL     1      -8.184   4.167  73.337  1.00  0.00    -0.090 C  
ENDBRANCH  20  21
ENDBRANCH  14  15
ENDBRANCH   2  14
TORSDOF 5
ENDMDL
MODEL      136
REMARK 921   NORMALIZED FREE ENERGY PREDICTED BY IDOCK:   -3.96 KCAL/MOL
REMARK 922        TOTAL FREE ENERGY PREDICTED BY IDOCK:   -6.89 KCAL/MOL
REMARK 923 INTER-LIGAND FREE ENERGY PREDICTED BY IDOCK:   -6.13 KCAL/MOL
REMARK 924 INTRA-LIGAND FREE ENERGY PREDICTED BY IDOCK:   -0.76 KCAL/MOL
REMARK 927      BINDING AFFINITY PREDICTED BY RF-SCORE:    0.00 PKD
ROOT
HETATM    1  C   UNL     1     -12.208   6.963  71.874  1.00  0.00    -0.332 C  
HETATM    2  N   UNL     1     -11.593   8.269  71.619  1.00  0.00    -0.270 NA 
ENDROOT
BRANCH   2   3
HETATM    3  C   UNL     1     -10.291   8.387  72.310  1.00  0.00    -0.333 C  
BRANCH   3   4
HETATM    4  C   UNL     1      -9.294   7.291  71.957  1.00  0.00    -0.150 A  
HETATM    5  C   UNL     1      -8.756   7.142  70.647  1.00  0.00    -0.148 A  
HETATM    6  C   UNL     1      -8.921   6.389  72.972  1.00  0.00    -0.133 A  
HETATM    7  C   UNL     1      -9.069   7.994  69.566  1.00  0.00    -0.152 A  
HETATM    8  C   UNL     1      -8.038   5.347  72.711  1.00  0.00    -0.109 A  
HETATM    9  C   UNL     1      -8.558   7.780  68.285  1.00  0.00    -0.124 A  
HETATM   10  C   UNL     1      -7.516   5.187  71.432  1.00  0.00    -0.091 A  
HETATM   11  C   UNL     1      -7.700   6.714  68.054  1.00  0.00    -0.108 A  
HETATM   12  C   UNL     1      -7.867   6.065  70.395  1.00  0.00    -0.106 A  
HETATM   13  C   UNL     1      -7.350   5.868  69.104  1.00  0.00    -0.083 A  
ENDBRANCH   3   4
ENDBRANCH   2   3
BRANCH   2  14
HETATM   14  C   UNL     1     -12.468   9.383  72.024  1.00  0.00    -0.365 C  
BRANCH  14  15
HETATM   15  C   UNL     1     -12.300  10.633  71.185  1.00  0.00    -0.505 A  
HETATM   16  C   UNL     1     -12.454  13.045  70.888  1.00  0.00    -0.396 A  
HETATM   17  C   UNL     1     -11.723  10.546  69.918  1.00  0.00    -0.372 A  
HETATM   18  C   UNL     1     -11.498  11.695  69.152  1.00  0.00    -0.364 A  
HETATM   19  C   UNL     1     -12.684  11.894  71.657  1.00  0.00    -0.340 A  
HETATM   20  C   UNL     1     -11.836  12.973  69.625  1.00  0.00    -0.385 A  
BRANCH  20  21
HETATM   21  C   UNL     1     -11.524  14.250  68.822  1.00  0.00    -0.327 C  
HETATM   22  C   UNL     1     -10.007  14.499  68.647  1.00  0.00    -0.237 C  
HETATM   23  C   UNL     1     -12.142  14.161  67.412  1.00  0.00    -0.379 C  
HETATM   24  C   UNL     1     -12.102  15.486  69.543  1.00  0.00    -0.326 C  
ENDBRANCH  20  21
ENDBRANCH  14  15
ENDBRANCH   2  14
TORSDOF 5
ENDMDL
MODEL      137
REMARK 921   NORMALIZED FREE ENERGY PREDICTED BY IDOCK:   -3.95 KCAL/MOL
REMARK 922        TOTAL FREE ENERGY PREDICTED BY IDOCK:   -6.89 KCAL/MOL
REMARK 923 INTER-LIGAND FREE ENERGY PREDICTED BY IDOCK:   -4.94 KCAL/MOL
REMARK 924 INTRA-LIGAND FREE ENERGY PREDICTED BY IDOCK:   -1.95 KCAL/MOL
REMARK 927      BINDING AFFINITY PREDICTED BY RF-SCORE:    0.00 PKD
ROOT
HETATM    1  C   UNL     1      -8.780   5.161  64.712  1.00  0.00    -0.133 C  
HETATM    2  N   UNL     1      -8.775   5.731  66.064  1.00  0.00    -0.142 NA 
ENDROOT
BRANCH   2   3
HETATM    3  C   UNL     1      -7.617   6.630  66.256  1.00  0.00    -0.090 C  
BRANCH   3   4
HETATM    4  C   UNL     1      -7.698   7.495  67.507  1.00  0.00    -0.118 A  
HETATM    5  C   UNL     1      -8.739   8.443  67.714  1.00  0.00    -0.137 A  
HETATM    6  C   UNL     1      -6.682   7.352  68.472  1.00  0.00    -0.054 A  
HETATM    7  C   UNL     1      -9.799   8.658  66.806  1.00  0.00    -0.322 A  
HETATM    8  C   UNL     1      -6.677   8.131  69.624  1.00  0.00    -0.038 A  
HETATM    9  C   UNL     1     -10.772   9.635  67.025  1.00  0.00    -0.225 A  
HETATM   10  C   UNL     1      -7.686   9.067  69.829  1.00  0.00    -0.077 A  
HETATM   11  C   UNL     1     -10.722  10.414  68.172  1.00  0.00    -0.277 A  
HETATM   12  C   UNL     1      -8.712   9.238  68.888  1.00  0.00    -0.131 A  
HETATM   13  C   UNL     1      -9.704  10.210  69.102  1.00  0.00    -0.225 A  
ENDBRANCH   3   4
ENDBRANCH   2   3
BRANCH   2  14
HETATM   14  C   UNL     1      -8.767   4.688  67.105  1.00  0.00    -0.104 C  
BRANCH  14  15
HETATM   15  C   UNL     1      -9.433   5.108  68.400  1.00  0.00    -0.168 A  
HETATM   16  C   UNL     1      -9.433   5.350  70.822  1.00  0.00    -0.215 A  
HETATM   17  C   UNL     1     -10.668   5.757  68.367  1.00  0.00    -0.283 A  
HETATM   18  C   UNL     1     -11.270   6.213  69.544  1.00  0.00    -0.482 A  
HETATM   19  C   UNL     1      -8.829   4.890  69.643  1.00  0.00    -0.117 A  
HETATM   20  C   UNL     1     -10.660   6.041  70.797  1.00  0.00    -0.316 A  
BRANCH  20  21
HETATM   21  C   UNL     1     -11.279   6.606  72.090  1.00  0.00    -0.299 C  
HETATM   22  C   UNL     1     -10.717   7.994  72.475  1.00  0.00    -0.407 C  
HETATM   23  C   UNL     1     -12.806   6.754  71.933  1.00  0.00    -0.264 C  
HETATM   24  C   UNL     1     -10.988   5.659  73.274  1.00  0.00    -0.316 C  
ENDBRANCH  20  21
ENDBRANCH  14  15
ENDBRANCH   2  14
TORSDOF 5
ENDMDL
MODEL      138
REMARK 921   NORMALIZED FREE ENERGY PREDICTED BY IDOCK:   -3.95 KCAL/MOL
REMARK 922        TOTAL FREE ENERGY PREDICTED BY IDOCK:   -6.88 KCAL/MOL
REMARK 923 INTER-LIGAND FREE ENERGY PREDICTED BY IDOCK:   -6.64 KCAL/MOL
REMARK 924 INTRA-LIGAND FREE ENERGY PREDICTED BY IDOCK:   -0.24 KCAL/MOL
REMARK 927      BINDING AFFINITY PREDICTED BY RF-SCORE:    0.00 PKD
ROOT
HETATM    1  C   UNL     1     -11.725  11.306  68.982  1.00  0.00    -0.342 C  
HETATM    2  N   UNL     1     -10.458  10.637  68.666  1.00  0.00    -0.180 NA 
ENDROOT
BRANCH   2   3
HETATM    3  C   UNL     1      -9.610  11.486  67.804  1.00  0.00    -0.175 C  
BRANCH   3   4
HETATM    4  C   UNL     1      -9.781  11.231  66.312  1.00  0.00    -0.246 A  
HETATM    5  C   UNL     1     -10.715  11.953  65.517  1.00  0.00    -0.329 A  
HETATM    6  C   UNL     1      -8.992  10.225  65.722  1.00  0.00    -0.185 A  
HETATM    7  C   UNL     1     -11.548  12.977  66.017  1.00  0.00    -0.409 A  
HETATM    8  C   UNL     1      -9.118   9.919  64.372  1.00  0.00    -0.299 A  
HETATM    9  C   UNL     1     -12.487  13.624  65.212  1.00  0.00    -0.517 A  
HETATM   10  C   UNL     1     -10.036  10.613  63.589  1.00  0.00    -0.364 A  
HETATM   11  C   UNL     1     -12.605  13.276  63.874  1.00  0.00    -0.211 A  
HETATM   12  C   UNL     1     -10.840  11.620  64.143  1.00  0.00    -0.433 A  
HETATM   13  C   UNL     1     -11.781  12.287  63.341  1.00  0.00    -0.542 A  
ENDBRANCH   3   4
ENDBRANCH   2   3
BRANCH   2  14
HETATM   14  C   UNL     1     -10.668   9.330  68.018  1.00  0.00    -0.174 C  
BRANCH  14  15
HETATM   15  C   UNL     1     -10.457   8.146  68.938  1.00  0.00    -0.202 A  
HETATM   16  C   UNL     1     -10.555   5.759  69.406  1.00  0.00    -0.383 A  
HETATM   17  C   UNL     1      -9.855   8.333  70.183  1.00  0.00    -0.184 A  
HETATM   18  C   UNL     1      -9.590   7.246  71.022  1.00  0.00    -0.158 A  
HETATM   19  C   UNL     1     -10.824   6.848  68.565  1.00  0.00    -0.234 A  
HETATM   20  C   UNL     1      -9.912   5.931  70.647  1.00  0.00    -0.242 A  
BRANCH  20  21
HETATM   21  C   UNL     1      -9.556   4.721  71.531  1.00  0.00    -0.220 C  
HETATM   22  C   UNL     1     -10.516   4.543  72.730  1.00  0.00    -0.261 C  
HETATM   23  C   UNL     1      -9.607   3.420  70.704  1.00  0.00    -0.238 C  
HETATM   24  C   UNL     1      -8.136   4.888  72.112  1.00  0.00    -0.111 C  
ENDBRANCH  20  21
ENDBRANCH  14  15
ENDBRANCH   2  14
TORSDOF 5
ENDMDL
MODEL      139
REMARK 921   NORMALIZED FREE ENERGY PREDICTED BY IDOCK:   -3.94 KCAL/MOL
REMARK 922        TOTAL FREE ENERGY PREDICTED BY IDOCK:   -6.87 KCAL/MOL
REMARK 923 INTER-LIGAND FREE ENERGY PREDICTED BY IDOCK:   -6.10 KCAL/MOL
REMARK 924 INTRA-LIGAND FREE ENERGY PREDICTED BY IDOCK:   -0.77 KCAL/MOL
REMARK 927      BINDING AFFINITY PREDICTED BY RF-SCORE:    0.00 PKD
ROOT
HETATM    1  C   UNL     1      -8.354  12.256  68.471  1.00  0.00    -0.084 C  
HETATM    2  N   UNL     1      -9.802  12.063  68.350  1.00  0.00    -0.211 NA 
ENDROOT
BRANCH   2   3
HETATM    3  C   UNL     1     -10.534  13.298  68.704  1.00  0.00    -0.228 C  
BRANCH   3   4
HETATM    4  C   UNL     1     -10.637  14.310  67.571  1.00  0.00    -0.261 A  
HETATM    5  C   UNL     1     -11.252  14.002  66.325  1.00  0.00    -0.320 A  
HETATM    6  C   UNL     1     -10.078  15.586  67.776  1.00  0.00    -0.232 A  
HETATM    7  C   UNL     1     -11.839  12.753  66.025  1.00  0.00    -0.495 A  
HETATM    8  C   UNL     1     -10.110  16.549  66.774  1.00  0.00    -0.290 A  
HETATM    9  C   UNL     1     -12.386  12.476  64.772  1.00  0.00    -0.544 A  
HETATM   10  C   UNL     1     -10.700  16.253  65.549  1.00  0.00    -0.326 A  
HETATM   11  C   UNL     1     -12.377  13.451  63.784  1.00  0.00    -0.418 A  
HETATM   12  C   UNL     1     -11.265  14.991  65.308  1.00  0.00    -0.368 A  
HETATM   13  C   UNL     1     -11.830  14.703  64.054  1.00  0.00    -0.135 A  
ENDBRANCH   3   4
ENDBRANCH   2   3
BRANCH   2  14
HETATM   14  C   UNL     1     -10.286  10.948  69.184  1.00  0.00    -0.195 C  
BRANCH  14  15
HETATM   15  C   UNL     1     -10.121   9.586  68.543  1.00  0.00    -0.198 A  
HETATM   16  C   UNL     1     -10.097   8.131  66.591  1.00  0.00    -0.344 A  
HETATM   17  C   UNL     1      -9.731   8.495  69.321  1.00  0.00    -0.173 A  
HETATM   18  C   UNL     1      -9.509   7.242  68.739  1.00  0.00    -0.142 A  
HETATM   19  C   UNL     1     -10.323   9.387  67.172  1.00  0.00    -0.326 A  
HETATM   20  C   UNL     1      -9.664   7.033  67.359  1.00  0.00    -0.177 A  
BRANCH  20  21
HETATM   21  C   UNL     1      -9.349   5.677  66.699  1.00  0.00    -0.151 C  
HETATM   22  C   UNL     1      -8.222   5.765  65.644  1.00  0.00    -0.128 C  
HETATM   23  C   UNL     1      -8.906   4.653  67.763  1.00  0.00    -0.115 C  
HETATM   24  C   UNL     1     -10.601   5.137  65.975  1.00  0.00    -0.236 C  
ENDBRANCH  20  21
ENDBRANCH  14  15
ENDBRANCH   2  14
TORSDOF 5
ENDMDL
MODEL      140
REMARK 921   NORMALIZED FREE ENERGY PREDICTED BY IDOCK:   -3.88 KCAL/MOL
REMARK 922        TOTAL FREE ENERGY PREDICTED BY IDOCK:   -6.79 KCAL/MOL
REMARK 923 INTER-LIGAND FREE ENERGY PREDICTED BY IDOCK:   -6.29 KCAL/MOL
REMARK 924 INTRA-LIGAND FREE ENERGY PREDICTED BY IDOCK:   -0.50 KCAL/MOL
REMARK 927      BINDING AFFINITY PREDICTED BY RF-SCORE:    0.00 PKD
ROOT
HETATM    1  C   UNL     1      -6.663  12.292  67.681  1.00  0.00    -0.126 C  
HETATM    2  N   UNL     1      -7.938  12.942  67.361  1.00  0.00    -0.177 NA 
ENDROOT
BRANCH   2   3
HETATM    3  C   UNL     1      -7.812  14.414  67.421  1.00  0.00    -0.190 C  
BRANCH   3   4
HETATM    4  C   UNL     1      -8.919  15.166  66.694  1.00  0.00    -0.319 A  
HETATM    5  C   UNL     1      -9.212  16.534  66.955  1.00  0.00    -0.233 A  
HETATM    6  C   UNL     1      -9.684  14.457  65.748  1.00  0.00    -0.283 A  
HETATM    7  C   UNL     1      -8.502  17.327  67.884  1.00  0.00    -0.218 A  
HETATM    8  C   UNL     1     -10.729  15.073  65.069  1.00  0.00    -0.448 A  
HETATM    9  C   UNL     1      -8.856  18.651  68.146  1.00  0.00    -0.335 A  
HETATM   10  C   UNL     1     -11.029  16.407  65.326  1.00  0.00    -0.203 A  
HETATM   11  C   UNL     1      -9.922  19.228  67.470  1.00  0.00    -0.460 A  
HETATM   12  C   UNL     1     -10.290  17.144  66.263  1.00  0.00    -0.315 A  
HETATM   13  C   UNL     1     -10.628  18.482  66.529  1.00  0.00    -0.375 A  
ENDBRANCH   3   4
ENDBRANCH   2   3
BRANCH   2  14
HETATM   14  C   UNL     1      -9.024  12.504  68.256  1.00  0.00    -0.178 C  
BRANCH  14  15
HETATM   15  C   UNL     1      -9.284  11.012  68.222  1.00  0.00    -0.165 A  
HETATM   16  C   UNL     1      -9.307   8.822  69.285  1.00  0.00    -0.149 A  
HETATM   17  C   UNL     1      -9.856  10.433  67.089  1.00  0.00    -0.221 A  
HETATM   18  C   UNL     1     -10.167   9.070  67.060  1.00  0.00    -0.336 A  
HETATM   19  C   UNL     1      -8.992  10.189  69.316  1.00  0.00    -0.193 A  
HETATM   20  C   UNL     1      -9.921   8.235  68.163  1.00  0.00    -0.224 A  
BRANCH  20  21
HETATM   21  C   UNL     1     -10.328   6.749  68.168  1.00  0.00    -0.219 C  
HETATM   22  C   UNL     1      -9.117   5.790  68.237  1.00  0.00    -0.117 C  
HETATM   23  C   UNL     1     -11.227   6.444  69.383  1.00  0.00    -0.459 C  
HETATM   24  C   UNL     1     -11.100   6.406  66.876  1.00  0.00    -0.346 C  
ENDBRANCH  20  21
ENDBRANCH  14  15
ENDBRANCH   2  14
TORSDOF 5
ENDMDL
MODEL      141
REMARK 921   NORMALIZED FREE ENERGY PREDICTED BY IDOCK:   -3.87 KCAL/MOL
REMARK 922        TOTAL FREE ENERGY PREDICTED BY IDOCK:   -6.78 KCAL/MOL
REMARK 923 INTER-LIGAND FREE ENERGY PREDICTED BY IDOCK:   -5.91 KCAL/MOL
REMARK 924 INTRA-LIGAND FREE ENERGY PREDICTED BY IDOCK:   -0.87 KCAL/MOL
REMARK 927      BINDING AFFINITY PREDICTED BY RF-SCORE:    0.00 PKD
ROOT
HETATM    1  C   UNL     1     -12.939  10.993  71.185  1.00  0.00    -0.324 C  
HETATM    2  N   UNL     1     -12.457  11.919  70.155  1.00  0.00    -0.136 NA 
ENDROOT
BRANCH   2   3
HETATM    3  C   UNL     1     -11.021  11.700  69.875  1.00  0.00     0.176 C  
BRANCH   3   4
HETATM    4  C   UNL     1     -10.742  10.592  68.869  1.00  0.00    -0.253 A  
HETATM    5  C   UNL     1     -10.437  10.858  67.504  1.00  0.00    -0.252 A  
HETATM    6  C   UNL     1     -10.815   9.260  69.320  1.00  0.00    -0.170 A  
HETATM    7  C   UNL     1     -10.342  12.157  66.959  1.00  0.00    -0.232 A  
HETATM    8  C   UNL     1     -10.600   8.198  68.449  1.00  0.00    -0.148 A  
HETATM    9  C   UNL     1     -10.091  12.372  65.603  1.00  0.00    -0.277 A  
HETATM   10  C   UNL     1     -10.312   8.449  67.111  1.00  0.00    -0.381 A  
HETATM   11  C   UNL     1      -9.909  11.288  64.755  1.00  0.00    -0.312 A  
HETATM   12  C   UNL     1     -10.234   9.763  66.625  1.00  0.00    -0.296 A  
HETATM   13  C   UNL     1      -9.970   9.994  65.265  1.00  0.00    -0.368 A  
ENDBRANCH   3   4
ENDBRANCH   2   3
BRANCH   2  14
HETATM   14  C   UNL     1     -12.677  13.327  70.527  1.00  0.00    -0.099 C  
BRANCH  14  15
HETATM   15  C   UNL     1     -11.854  14.311  69.722  1.00  0.00    -0.380 A  
HETATM   16  C   UNL     1     -11.403  15.548  67.674  1.00  0.00    -0.260 A  
HETATM   17  C   UNL     1     -10.802  14.997  70.330  1.00  0.00    -0.202 A  
HETATM   18  C   UNL     1     -10.071  15.959  69.625  1.00  0.00    -0.271 A  
HETATM   19  C   UNL     1     -12.136  14.581  68.378  1.00  0.00    -0.249 A  
HETATM   20  C   UNL     1     -10.366  16.275  68.289  1.00  0.00    -0.272 A  
BRANCH  20  21
HETATM   21  C   UNL     1      -9.616  17.385  67.528  1.00  0.00    -0.257 C  
HETATM   22  C   UNL     1      -8.243  17.725  68.153  1.00  0.00    -0.260 C  
HETATM   23  C   UNL     1      -9.364  16.958  66.067  1.00  0.00    -0.214 C  
HETATM   24  C   UNL     1     -10.447  18.685  67.532  1.00  0.00    -0.473 C  
ENDBRANCH  20  21
ENDBRANCH  14  15
ENDBRANCH   2  14
TORSDOF 5
ENDMDL
MODEL      142
REMARK 921   NORMALIZED FREE ENERGY PREDICTED BY IDOCK:   -3.85 KCAL/MOL
REMARK 922        TOTAL FREE ENERGY PREDICTED BY IDOCK:   -6.76 KCAL/MOL
REMARK 923 INTER-LIGAND FREE ENERGY PREDICTED BY IDOCK:   -5.98 KCAL/MOL
REMARK 924 INTRA-LIGAND FREE ENERGY PREDICTED BY IDOCK:   -0.78 KCAL/MOL
REMARK 927      BINDING AFFINITY PREDICTED BY RF-SCORE:    0.00 PKD
ROOT
HETATM    1  C   UNL     1     -13.424   7.720  71.486  1.00  0.00    -0.327 C  
HETATM    2  N   UNL     1     -12.068   7.866  70.947  1.00  0.00    -0.225 NA 
ENDROOT
BRANCH   2   3
HETATM    3  C   UNL     1     -11.181   6.791  71.441  1.00  0.00    -0.268 C  
BRANCH   3   4
HETATM    4  C   UNL     1      -9.872   7.287  72.042  1.00  0.00    -0.183 A  
HETATM    5  C   UNL     1      -8.709   7.516  71.253  1.00  0.00    -0.127 A  
HETATM    6  C   UNL     1      -9.825   7.499  73.433  1.00  0.00    -0.365 A  
HETATM    7  C   UNL     1      -8.658   7.331  69.854  1.00  0.00    -0.141 A  
HETATM    8  C   UNL     1      -8.654   7.923  74.051  1.00  0.00    -0.322 A  
HETATM    9  C   UNL     1      -7.482   7.518  69.128  1.00  0.00    -0.098 A  
HETATM   10  C   UNL     1      -7.510   8.139  73.290  1.00  0.00    -0.189 A  
HETATM   11  C   UNL     1      -6.323   7.915  69.780  1.00  0.00    -0.030 A  
HETATM   12  C   UNL     1      -7.519   7.935  71.902  1.00  0.00    -0.087 A  
HETATM   13  C   UNL     1      -6.344   8.132  71.156  1.00  0.00    -0.035 A  
ENDBRANCH   3   4
ENDBRANCH   2   3
BRANCH   2  14
HETATM   14  C   UNL     1     -11.480   9.178  71.272  1.00  0.00    -0.335 C  
BRANCH  14  15
HETATM   15  C   UNL     1     -11.460  10.148  70.109  1.00  0.00    -0.368 A  
HETATM   16  C   UNL     1     -11.792  12.371  69.173  1.00  0.00    -0.352 A  
HETATM   17  C   UNL     1     -10.979   9.732  68.866  1.00  0.00    -0.183 A  
HETATM   18  C   UNL     1     -10.889  10.627  67.796  1.00  0.00    -0.338 A  
HETATM   19  C   UNL     1     -11.886  11.474  70.247  1.00  0.00    -0.431 A  
HETATM   20  C   UNL     1     -11.271  11.972  67.927  1.00  0.00    -0.323 A  
BRANCH  20  21
HETATM   21  C   UNL     1     -11.105  12.983  66.777  1.00  0.00    -0.316 C  
HETATM   22  C   UNL     1     -10.386  12.386  65.545  1.00  0.00    -0.298 C  
HETATM   23  C   UNL     1     -12.483  13.490  66.305  1.00  0.00    -0.384 C  
HETATM   24  C   UNL     1     -10.264  14.189  67.248  1.00  0.00    -0.256 C  
ENDBRANCH  20  21
ENDBRANCH  14  15
ENDBRANCH   2  14
TORSDOF 5
ENDMDL
MODEL      143
REMARK 921   NORMALIZED FREE ENERGY PREDICTED BY IDOCK:   -3.85 KCAL/MOL
REMARK 922        TOTAL FREE ENERGY PREDICTED BY IDOCK:   -6.75 KCAL/MOL
REMARK 923 INTER-LIGAND FREE ENERGY PREDICTED BY IDOCK:   -5.90 KCAL/MOL
REMARK 924 INTRA-LIGAND FREE ENERGY PREDICTED BY IDOCK:   -0.86 KCAL/MOL
REMARK 927      BINDING AFFINITY PREDICTED BY RF-SCORE:    0.00 PKD
ROOT
HETATM    1  C   UNL     1      -7.344   4.910  68.363  1.00  0.00    -0.066 C  
HETATM    2  N   UNL     1      -8.698   5.472  68.300  1.00  0.00    -0.099 NA 
ENDROOT
BRANCH   2   3
HETATM    3  C   UNL     1      -9.667   4.601  68.999  1.00  0.00    -0.172 C  
BRANCH   3   4
HETATM    4  C   UNL     1     -10.415   5.284  70.136  1.00  0.00    -0.338 A  
HETATM    5  C   UNL     1     -10.178   4.968  71.504  1.00  0.00    -0.273 A  
HETATM    6  C   UNL     1     -11.388   6.244  69.800  1.00  0.00    -0.506 A  
HETATM    7  C   UNL     1      -9.226   4.021  71.939  1.00  0.00    -0.179 A  
HETATM    8  C   UNL     1     -12.129   6.885  70.786  1.00  0.00    -0.400 A  
HETATM    9  C   UNL     1      -9.062   3.705  73.288  1.00  0.00    -0.111 A  
HETATM   10  C   UNL     1     -11.912   6.575  72.125  1.00  0.00    -0.334 A  
HETATM   11  C   UNL     1      -9.837   4.344  74.246  1.00  0.00    -0.176 A  
HETATM   12  C   UNL     1     -10.952   5.622  72.497  1.00  0.00    -0.313 A  
HETATM   13  C   UNL     1     -10.769   5.303  73.853  1.00  0.00    -0.320 A  
ENDBRANCH   3   4
ENDBRANCH   2   3
BRANCH   2  14
HETATM   14  C   UNL     1      -9.143   5.690  66.912  1.00  0.00    -0.116 C  
BRANCH  14  15
HETATM   15  C   UNL     1      -9.465   7.135  66.591  1.00  0.00    -0.219 A  
HETATM   16  C   UNL     1     -10.848   9.123  66.841  1.00  0.00    -0.014 A  
HETATM   17  C   UNL     1      -8.594   7.880  65.794  1.00  0.00    -0.167 A  
HETATM   18  C   UNL     1      -8.836   9.233  65.539  1.00  0.00    -0.224 A  
HETATM   19  C   UNL     1     -10.609   7.765  67.096  1.00  0.00    -0.401 A  
HETATM   20  C   UNL     1      -9.955   9.895  66.072  1.00  0.00    -0.338 A  
BRANCH  20  21
HETATM   21  C   UNL     1     -10.190  11.402  65.858  1.00  0.00    -0.292 C  
HETATM   22  C   UNL     1      -9.060  12.280  66.445  1.00  0.00    -0.158 C  
HETATM   23  C   UNL     1     -10.288  11.721  64.353  1.00  0.00    -0.353 C  
HETATM   24  C   UNL     1     -11.501  11.837  66.547  1.00  0.00    -0.325 C  
ENDBRANCH  20  21
ENDBRANCH  14  15
ENDBRANCH   2  14
TORSDOF 5
ENDMDL
MODEL      144
REMARK 921   NORMALIZED FREE ENERGY PREDICTED BY IDOCK:   -3.85 KCAL/MOL
REMARK 922        TOTAL FREE ENERGY PREDICTED BY IDOCK:   -6.75 KCAL/MOL
REMARK 923 INTER-LIGAND FREE ENERGY PREDICTED BY IDOCK:   -5.20 KCAL/MOL
REMARK 924 INTRA-LIGAND FREE ENERGY PREDICTED BY IDOCK:   -1.55 KCAL/MOL
REMARK 927      BINDING AFFINITY PREDICTED BY RF-SCORE:    0.00 PKD
ROOT
HETATM    1  C   UNL     1      -5.818   9.459  66.308  1.00  0.00    -0.058 C  
HETATM    2  N   UNL     1      -7.057   9.116  67.014  1.00  0.00    -0.085 NA 
ENDROOT
BRANCH   2   3
HETATM    3  C   UNL     1      -8.165   8.890  66.062  1.00  0.00    -0.117 C  
BRANCH   3   4
HETATM    4  C   UNL     1      -8.987   7.639  66.345  1.00  0.00    -0.198 A  
HETATM    5  C   UNL     1      -8.521   6.332  66.030  1.00  0.00    -0.143 A  
HETATM    6  C   UNL     1     -10.262   7.806  66.918  1.00  0.00    -0.373 A  
HETATM    7  C   UNL     1      -7.260   6.063  65.454  1.00  0.00    -0.074 A  
HETATM    8  C   UNL     1     -11.078   6.710  67.176  1.00  0.00    -0.427 A  
HETATM    9  C   UNL     1      -6.863   4.769  65.115  1.00  0.00    -0.057 A  
HETATM   10  C   UNL     1     -10.634   5.429  66.862  1.00  0.00    -0.320 A  
HETATM   11  C   UNL     1      -7.714   3.700  65.361  1.00  0.00    -0.085 A  
HETATM   12  C   UNL     1      -9.371   5.225  66.287  1.00  0.00    -0.159 A  
HETATM   13  C   UNL     1      -8.955   3.926  65.951  1.00  0.00    -0.132 A  
ENDBRANCH   3   4
ENDBRANCH   2   3
BRANCH   2  14
HETATM   14  C   UNL     1      -7.447  10.153  67.986  1.00  0.00    -0.087 C  
BRANCH  14  15
HETATM   15  C   UNL     1      -8.465   9.687  69.007  1.00  0.00    -0.131 A  
HETATM   16  C   UNL     1     -10.635   9.864  70.095  1.00  0.00    -0.350 A  
HETATM   17  C   UNL     1      -8.212   8.545  69.768  1.00  0.00    -0.121 A  
HETATM   18  C   UNL     1      -9.165   8.059  70.669  1.00  0.00    -0.156 A  
HETATM   19  C   UNL     1      -9.680  10.356  69.194  1.00  0.00    -0.234 A  
HETATM   20  C   UNL     1     -10.407   8.691  70.839  1.00  0.00    -0.262 A  
BRANCH  20  21
HETATM   21  C   UNL     1     -11.492   8.120  71.773  1.00  0.00    -0.337 C  
HETATM   22  C   UNL     1     -12.635   9.123  72.057  1.00  0.00    -0.463 C  
HETATM   23  C   UNL     1     -12.128   6.862  71.149  1.00  0.00    -0.428 C  
HETATM   24  C   UNL     1     -10.874   7.744  73.136  1.00  0.00    -0.401 C  
ENDBRANCH  20  21
ENDBRANCH  14  15
ENDBRANCH   2  14
TORSDOF 5
ENDMDL
MODEL      145
REMARK 921   NORMALIZED FREE ENERGY PREDICTED BY IDOCK:   -3.84 KCAL/MOL
REMARK 922        TOTAL FREE ENERGY PREDICTED BY IDOCK:   -6.74 KCAL/MOL
REMARK 923 INTER-LIGAND FREE ENERGY PREDICTED BY IDOCK:   -5.35 KCAL/MOL
REMARK 924 INTRA-LIGAND FREE ENERGY PREDICTED BY IDOCK:   -1.39 KCAL/MOL
REMARK 927      BINDING AFFINITY PREDICTED BY RF-SCORE:    0.00 PKD
ROOT
HETATM    1  C   UNL     1      -8.313   6.690  64.880  1.00  0.00    -0.034 C  
HETATM    2  N   UNL     1      -8.571   7.899  65.670  1.00  0.00    -0.150 NA 
ENDROOT
BRANCH   2   3
HETATM    3  C   UNL     1      -8.074   9.104  64.972  1.00  0.00    -0.130 C  
BRANCH   3   4
HETATM    4  C   UNL     1      -7.873  10.312  65.877  1.00  0.00    -0.139 A  
HETATM    5  C   UNL     1      -8.956  11.122  66.322  1.00  0.00    -0.202 A  
HETATM    6  C   UNL     1      -6.556  10.636  66.258  1.00  0.00    -0.126 A  
HETATM    7  C   UNL     1     -10.307  10.878  65.994  1.00  0.00    -0.304 A  
HETATM    8  C   UNL     1      -6.297  11.743  67.058  1.00  0.00    -0.150 A  
HETATM    9  C   UNL     1     -11.333  11.727  66.410  1.00  0.00    -0.361 A  
HETATM   10  C   UNL     1      -7.349  12.546  67.490  1.00  0.00    -0.151 A  
HETATM   11  C   UNL     1     -11.036  12.839  67.186  1.00  0.00    -0.315 A  
HETATM   12  C   UNL     1      -8.673  12.255  67.128  1.00  0.00    -0.193 A  
HETATM   13  C   UNL     1      -9.717  13.095  67.550  1.00  0.00    -0.213 A  
ENDBRANCH   3   4
ENDBRANCH   2   3
BRANCH   2  14
HETATM   14  C   UNL     1      -7.969   7.824  67.012  1.00  0.00    -0.116 C  
BRANCH  14  15
HETATM   15  C   UNL     1      -8.970   7.940  68.143  1.00  0.00    -0.131 A  
HETATM   16  C   UNL     1     -10.919   7.139  69.362  1.00  0.00    -0.189 A  
HETATM   17  C   UNL     1      -8.814   8.934  69.109  1.00  0.00    -0.136 A  
HETATM   18  C   UNL     1      -9.688   9.020  70.198  1.00  0.00    -0.213 A  
HETATM   19  C   UNL     1     -10.046   7.053  68.268  1.00  0.00    -0.185 A  
HETATM   20  C   UNL     1     -10.748   8.113  70.364  1.00  0.00    -0.234 A  
BRANCH  20  21
HETATM   21  C   UNL     1     -11.669   8.152  71.598  1.00  0.00    -0.330 C  
HETATM   22  C   UNL     1     -10.915   7.903  72.925  1.00  0.00    -0.452 C  
HETATM   23  C   UNL     1     -12.356   9.528  71.711  1.00  0.00    -0.474 C  
HETATM   24  C   UNL     1     -12.754   7.060  71.485  1.00  0.00    -0.425 C  
ENDBRANCH  20  21
ENDBRANCH  14  15
ENDBRANCH   2  14
TORSDOF 5
ENDMDL
MODEL      146
REMARK 921   NORMALIZED FREE ENERGY PREDICTED BY IDOCK:   -3.81 KCAL/MOL
REMARK 922        TOTAL FREE ENERGY PREDICTED BY IDOCK:   -6.71 KCAL/MOL
REMARK 923 INTER-LIGAND FREE ENERGY PREDICTED BY IDOCK:   -4.45 KCAL/MOL
REMARK 924 INTRA-LIGAND FREE ENERGY PREDICTED BY IDOCK:   -2.25 KCAL/MOL
REMARK 927      BINDING AFFINITY PREDICTED BY RF-SCORE:    0.00 PKD
ROOT
HETATM    1  C   UNL     1     -11.234   5.234  72.770  1.00  0.00    -0.284 C  
HETATM    2  N   UNL     1     -10.625   6.289  71.953  1.00  0.00    -0.213 NA 
ENDROOT
BRANCH   2   3
HETATM    3  C   UNL     1      -9.234   6.553  72.379  1.00  0.00    -0.136 C  
BRANCH   3   4
HETATM    4  C   UNL     1      -8.199   6.381  71.275  1.00  0.00    -0.122 A  
HETATM    5  C   UNL     1      -7.570   7.488  70.638  1.00  0.00    -0.085 A  
HETATM    6  C   UNL     1      -7.882   5.070  70.869  1.00  0.00    -0.087 A  
HETATM    7  C   UNL     1      -7.821   8.836  70.975  1.00  0.00    -0.145 A  
HETATM    8  C   UNL     1      -6.968   4.840  69.846  1.00  0.00    -0.052 A  
HETATM    9  C   UNL     1      -7.220   9.892  70.289  1.00  0.00    -0.160 A  
HETATM   10  C   UNL     1      -6.357   5.917  69.212  1.00  0.00    -0.041 A  
HETATM   11  C   UNL     1      -6.333   9.628  69.255  1.00  0.00    -0.044 A  
HETATM   12  C   UNL     1      -6.650   7.236  69.588  1.00  0.00    -0.040 A  
HETATM   13  C   UNL     1      -6.043   8.309  68.914  1.00  0.00    -0.044 A  
ENDBRANCH   3   4
ENDBRANCH   2   3
BRANCH   2  14
HETATM   14  C   UNL     1     -11.399   7.542  71.998  1.00  0.00    -0.273 C  
BRANCH  14  15
HETATM   15  C   UNL     1     -11.183   8.441  70.799  1.00  0.00    -0.290 A  
HETATM   16  C   UNL     1     -11.020  10.648  69.784  1.00  0.00    -0.340 A  
HETATM   17  C   UNL     1     -10.835   7.885  69.567  1.00  0.00    -0.141 A  
HETATM   18  C   UNL     1     -10.566   8.699  68.462  1.00  0.00    -0.162 A  
HETATM   19  C   UNL     1     -11.293   9.834  70.892  1.00  0.00    -0.439 A  
HETATM   20  C   UNL     1     -10.629  10.100  68.548  1.00  0.00    -0.245 A  
BRANCH  20  21
HETATM   21  C   UNL     1     -10.261  11.007  67.358  1.00  0.00    -0.229 C  
HETATM   22  C   UNL     1      -9.000  11.863  67.617  1.00  0.00    -0.169 C  
HETATM   23  C   UNL     1      -9.991  10.158  66.099  1.00  0.00    -0.310 C  
HETATM   24  C   UNL     1     -11.416  11.987  67.061  1.00  0.00    -0.402 C  
ENDBRANCH  20  21
ENDBRANCH  14  15
ENDBRANCH   2  14
TORSDOF 5
ENDMDL
MODEL      147
REMARK 921   NORMALIZED FREE ENERGY PREDICTED BY IDOCK:   -3.81 KCAL/MOL
REMARK 922        TOTAL FREE ENERGY PREDICTED BY IDOCK:   -6.70 KCAL/MOL
REMARK 923 INTER-LIGAND FREE ENERGY PREDICTED BY IDOCK:   -6.51 KCAL/MOL
REMARK 924 INTRA-LIGAND FREE ENERGY PREDICTED BY IDOCK:   -0.19 KCAL/MOL
REMARK 927      BINDING AFFINITY PREDICTED BY RF-SCORE:    0.00 PKD
ROOT
HETATM    1  C   UNL     1     -10.639   6.129  67.750  1.00  0.00    -0.269 C  
HETATM    2  N   UNL     1      -9.813   7.256  68.198  1.00  0.00    -0.145 NA 
ENDROOT
BRANCH   2   3
HETATM    3  C   UNL     1      -8.791   6.811  69.168  1.00  0.00    -0.134 C  
BRANCH   3   4
HETATM    4  C   UNL     1      -9.101   5.479  69.837  1.00  0.00    -0.159 A  
HETATM    5  C   UNL     1      -9.755   5.392  71.098  1.00  0.00    -0.229 A  
HETATM    6  C   UNL     1      -8.697   4.302  69.178  1.00  0.00    -0.120 A  
HETATM    7  C   UNL     1     -10.196   6.513  71.835  1.00  0.00    -0.214 A  
HETATM    8  C   UNL     1      -8.922   3.053  69.746  1.00  0.00    -0.172 A  
HETATM    9  C   UNL     1     -10.788   6.384  73.092  1.00  0.00    -0.282 A  
HETATM   10  C   UNL     1      -9.551   2.959  70.983  1.00  0.00    -0.219 A  
HETATM   11  C   UNL     1     -10.973   5.123  73.642  1.00  0.00    -0.350 A  
HETATM   12  C   UNL     1      -9.965   4.110  71.670  1.00  0.00    -0.240 A  
HETATM   13  C   UNL     1     -10.573   3.994  72.931  1.00  0.00    -0.237 A  
ENDBRANCH   3   4
ENDBRANCH   2   3
BRANCH   2  14
HETATM   14  C   UNL     1     -10.622   8.334  68.793  1.00  0.00    -0.123 C  
BRANCH  14  15
HETATM   15  C   UNL     1     -10.750   9.562  67.916  1.00  0.00    -0.285 A  
HETATM   16  C   UNL     1     -10.343  10.751  65.830  1.00  0.00    -0.302 A  
HETATM   17  C   UNL     1     -11.506  10.651  68.352  1.00  0.00    -0.330 A  
HETATM   18  C   UNL     1     -11.693  11.768  67.531  1.00  0.00    -0.312 A  
HETATM   19  C   UNL     1     -10.151   9.630  66.652  1.00  0.00    -0.307 A  
HETATM   20  C   UNL     1     -11.136  11.838  66.244  1.00  0.00    -0.364 A  
BRANCH  20  21
HETATM   21  C   UNL     1     -11.399  13.031  65.305  1.00  0.00    -0.325 C  
HETATM   22  C   UNL     1     -12.705  13.788  65.639  1.00  0.00    -0.523 C  
HETATM   23  C   UNL     1     -10.242  14.047  65.392  1.00  0.00    -0.368 C  
HETATM   24  C   UNL     1     -11.524  12.540  63.847  1.00  0.00    -0.507 C  
ENDBRANCH  20  21
ENDBRANCH  14  15
ENDBRANCH   2  14
TORSDOF 5
ENDMDL
MODEL      148
REMARK 921   NORMALIZED FREE ENERGY PREDICTED BY IDOCK:   -3.79 KCAL/MOL
REMARK 922        TOTAL FREE ENERGY PREDICTED BY IDOCK:   -6.68 KCAL/MOL
REMARK 923 INTER-LIGAND FREE ENERGY PREDICTED BY IDOCK:   -6.45 KCAL/MOL
REMARK 924 INTRA-LIGAND FREE ENERGY PREDICTED BY IDOCK:   -0.23 KCAL/MOL
REMARK 927      BINDING AFFINITY PREDICTED BY RF-SCORE:    0.00 PKD
ROOT
HETATM    1  C   UNL     1     -10.994   6.532  67.705  1.00  0.00    -0.337 C  
HETATM    2  N   UNL     1      -9.914   7.512  67.867  1.00  0.00    -0.158 NA 
ENDROOT
BRANCH   2   3
HETATM    3  C   UNL     1      -8.778   6.930  68.613  1.00  0.00    -0.122 C  
BRANCH   3   4
HETATM    4  C   UNL     1      -9.165   5.809  69.568  1.00  0.00    -0.150 A  
HETATM    5  C   UNL     1      -9.038   4.434  69.224  1.00  0.00    -0.174 A  
HETATM    6  C   UNL     1      -9.687   6.168  70.826  1.00  0.00    -0.205 A  
HETATM    7  C   UNL     1      -8.528   3.976  67.990  1.00  0.00    -0.104 A  
HETATM    8  C   UNL     1     -10.088   5.197  71.736  1.00  0.00    -0.260 A  
HETATM    9  C   UNL     1      -8.469   2.618  67.673  1.00  0.00    -0.104 A  
HETATM   10  C   UNL     1      -9.978   3.851  71.403  1.00  0.00    -0.198 A  
HETATM   11  C   UNL     1      -8.903   1.675  68.594  1.00  0.00    -0.128 A  
HETATM   12  C   UNL     1      -9.465   3.456  70.159  1.00  0.00    -0.244 A  
HETATM   13  C   UNL     1      -9.389   2.091  69.832  1.00  0.00    -0.164 A  
ENDBRANCH   3   4
ENDBRANCH   2   3
BRANCH   2  14
HETATM   14  C   UNL     1     -10.373   8.737  68.545  1.00  0.00    -0.199 C  
BRANCH  14  15
HETATM   15  C   UNL     1     -10.582   9.913  67.614  1.00  0.00    -0.325 A  
HETATM   16  C   UNL     1     -10.296  11.011  65.460  1.00  0.00    -0.321 A  
HETATM   17  C   UNL     1     -11.367  10.992  68.023  1.00  0.00    -0.374 A  
HETATM   18  C   UNL     1     -11.628  12.058  67.157  1.00  0.00    -0.387 A  
HETATM   19  C   UNL     1     -10.030   9.942  66.328  1.00  0.00    -0.322 A  
HETATM   20  C   UNL     1     -11.119  12.085  65.848  1.00  0.00    -0.369 A  
BRANCH  20  21
HETATM   21  C   UNL     1     -11.463  13.217  64.862  1.00  0.00    -0.342 C  
HETATM   22  C   UNL     1     -12.716  14.023  65.278  1.00  0.00    -0.468 C  
HETATM   23  C   UNL     1     -10.289  14.212  64.758  1.00  0.00    -0.387 C  
HETATM   24  C   UNL     1     -11.748  12.633  63.462  1.00  0.00    -0.604 C  
ENDBRANCH  20  21
ENDBRANCH  14  15
ENDBRANCH   2  14
TORSDOF 5
ENDMDL
MODEL      149
REMARK 921   NORMALIZED FREE ENERGY PREDICTED BY IDOCK:   -3.73 KCAL/MOL
REMARK 922        TOTAL FREE ENERGY PREDICTED BY IDOCK:   -6.60 KCAL/MOL
REMARK 923 INTER-LIGAND FREE ENERGY PREDICTED BY IDOCK:   -5.01 KCAL/MOL
REMARK 924 INTRA-LIGAND FREE ENERGY PREDICTED BY IDOCK:   -1.58 KCAL/MOL
REMARK 927      BINDING AFFINITY PREDICTED BY RF-SCORE:    0.00 PKD
ROOT
HETATM    1  C   UNL     1      -7.255   6.982  65.122  1.00  0.00    -0.074 C  
HETATM    2  N   UNL     1      -7.915   8.083  65.831  1.00  0.00    -0.102 NA 
ENDROOT
BRANCH   2   3
HETATM    3  C   UNL     1      -7.718   9.365  65.120  1.00  0.00    -0.109 C  
BRANCH   3   4
HETATM    4  C   UNL     1      -8.788  10.410  65.408  1.00  0.00    -0.197 A  
HETATM    5  C   UNL     1      -8.593  11.465  66.342  1.00  0.00    -0.174 A  
HETATM    6  C   UNL     1     -10.017  10.297  64.729  1.00  0.00    -0.392 A  
HETATM    7  C   UNL     1      -7.398  11.661  67.070  1.00  0.00    -0.143 A  
HETATM    8  C   UNL     1     -11.048  11.199  64.965  1.00  0.00    -0.100 A  
HETATM    9  C   UNL     1      -7.268  12.680  68.015  1.00  0.00    -0.112 A  
HETATM   10  C   UNL     1     -10.869  12.228  65.885  1.00  0.00    -0.306 A  
HETATM   11  C   UNL     1      -8.327  13.547  68.246  1.00  0.00    -0.165 A  
HETATM   12  C   UNL     1      -9.660  12.370  66.581  1.00  0.00    -0.230 A  
HETATM   13  C   UNL     1      -9.511  13.398  67.527  1.00  0.00    -0.219 A  
ENDBRANCH   3   4
ENDBRANCH   2   3
BRANCH   2  14
HETATM   14  C   UNL     1      -7.441   8.212  67.220  1.00  0.00    -0.090 C  
BRANCH  14  15
HETATM   15  C   UNL     1      -8.553   8.258  68.247  1.00  0.00    -0.133 A  
HETATM   16  C   UNL     1     -10.705   7.505  69.102  1.00  0.00    -0.163 A  
HETATM   17  C   UNL     1      -8.414   9.050  69.388  1.00  0.00    -0.117 A  
HETATM   18  C   UNL     1      -9.398   9.057  70.381  1.00  0.00    -0.244 A  
HETATM   19  C   UNL     1      -9.721   7.499  68.103  1.00  0.00    -0.167 A  
HETATM   20  C   UNL     1     -10.556   8.270  70.275  1.00  0.00    -0.230 A  
BRANCH  20  21
HETATM   21  C   UNL     1     -11.609   8.213  71.398  1.00  0.00    -0.314 C  
HETATM   22  C   UNL     1     -11.019   7.781  72.761  1.00  0.00    -0.447 C  
HETATM   23  C   UNL     1     -12.258   9.598  71.595  1.00  0.00    -0.484 C  
HETATM   24  C   UNL     1     -12.710   7.192  71.041  1.00  0.00    -0.303 C  
ENDBRANCH  20  21
ENDBRANCH  14  15
ENDBRANCH   2  14
TORSDOF 5
ENDMDL
MODEL      150
REMARK 921   NORMALIZED FREE ENERGY PREDICTED BY IDOCK:   -3.71 KCAL/MOL
REMARK 922        TOTAL FREE ENERGY PREDICTED BY IDOCK:   -6.57 KCAL/MOL
REMARK 923 INTER-LIGAND FREE ENERGY PREDICTED BY IDOCK:   -6.12 KCAL/MOL
REMARK 924 INTRA-LIGAND FREE ENERGY PREDICTED BY IDOCK:   -0.46 KCAL/MOL
REMARK 927      BINDING AFFINITY PREDICTED BY RF-SCORE:    0.00 PKD
ROOT
HETATM    1  C   UNL     1      -9.622   8.376  72.626  1.00  0.00    -0.267 C  
HETATM    2  N   UNL     1     -10.196   7.220  71.929  1.00  0.00    -0.187 NA 
ENDROOT
BRANCH   2   3
HETATM    3  C   UNL     1      -9.269   6.708  70.898  1.00  0.00    -0.157 C  
BRANCH   3   4
HETATM    4  C   UNL     1      -9.299   5.196  70.725  1.00  0.00    -0.210 A  
HETATM    5  C   UNL     1      -9.236   4.572  69.447  1.00  0.00    -0.192 A  
HETATM    6  C   UNL     1      -9.419   4.403  71.883  1.00  0.00    -0.201 A  
HETATM    7  C   UNL     1      -9.116   5.280  68.231  1.00  0.00    -0.122 A  
HETATM    8  C   UNL     1      -9.482   3.017  71.796  1.00  0.00    -0.209 A  
HETATM    9  C   UNL     1      -9.108   4.630  66.996  1.00  0.00    -0.126 A  
HETATM   10  C   UNL     1      -9.431   2.400  70.550  1.00  0.00    -0.185 A  
HETATM   11  C   UNL     1      -9.201   3.246  66.943  1.00  0.00    -0.196 A  
HETATM   12  C   UNL     1      -9.315   3.157  69.375  1.00  0.00    -0.225 A  
HETATM   13  C   UNL     1      -9.294   2.515  68.125  1.00  0.00    -0.261 A  
ENDBRANCH   3   4
ENDBRANCH   2   3
BRANCH   2  14
HETATM   14  C   UNL     1     -11.496   7.535  71.310  1.00  0.00    -0.274 C  
BRANCH  14  15
HETATM   15  C   UNL     1     -11.520   8.855  70.569  1.00  0.00    -0.231 A  
HETATM   16  C   UNL     1     -12.089  11.219  70.432  1.00  0.00    -0.474 A  
HETATM   17  C   UNL     1     -10.887   8.969  69.331  1.00  0.00    -0.152 A  
HETATM   18  C   UNL     1     -10.839  10.195  68.660  1.00  0.00    -0.272 A  
HETATM   19  C   UNL     1     -12.141   9.990  71.106  1.00  0.00    -0.475 A  
HETATM   20  C   UNL     1     -11.418  11.354  69.201  1.00  0.00    -0.365 A  
BRANCH  20  21
HETATM   21  C   UNL     1     -11.306  12.724  68.505  1.00  0.00    -0.326 C  
HETATM   22  C   UNL     1     -11.874  12.721  67.067  1.00  0.00    -0.428 C  
HETATM   23  C   UNL     1     -12.076  13.795  69.303  1.00  0.00    -0.374 C  
HETATM   24  C   UNL     1      -9.825  13.146  68.403  1.00  0.00    -0.206 C  
ENDBRANCH  20  21
ENDBRANCH  14  15
ENDBRANCH   2  14
TORSDOF 5
ENDMDL
MODEL      151
REMARK 921   NORMALIZED FREE ENERGY PREDICTED BY IDOCK:   -3.71 KCAL/MOL
REMARK 922        TOTAL FREE ENERGY PREDICTED BY IDOCK:   -6.57 KCAL/MOL
REMARK 923 INTER-LIGAND FREE ENERGY PREDICTED BY IDOCK:   -5.40 KCAL/MOL
REMARK 924 INTRA-LIGAND FREE ENERGY PREDICTED BY IDOCK:   -1.16 KCAL/MOL
REMARK 927      BINDING AFFINITY PREDICTED BY RF-SCORE:    0.00 PKD
ROOT
HETATM    1  C   UNL     1      -7.982  15.198  69.468  1.00  0.00    -0.175 C  
HETATM    2  N   UNL     1      -7.986  14.578  68.138  1.00  0.00    -0.123 NA 
ENDROOT
BRANCH   2   3
HETATM    3  C   UNL     1      -9.262  13.875  67.885  1.00  0.00    -0.198 C  
BRANCH   3   4
HETATM    4  C   UNL     1     -10.027  14.385  66.671  1.00  0.00    -0.278 A  
HETATM    5  C   UNL     1     -10.529  13.514  65.663  1.00  0.00    -0.296 A  
HETATM    6  C   UNL     1     -10.214  15.775  66.548  1.00  0.00    -0.294 A  
HETATM    7  C   UNL     1     -10.391  12.109  65.698  1.00  0.00    -0.289 A  
HETATM    8  C   UNL     1     -10.877  16.312  65.450  1.00  0.00    -0.284 A  
HETATM    9  C   UNL     1     -10.855  11.296  64.663  1.00  0.00    -0.335 A  
HETATM   10  C   UNL     1     -11.362  15.468  64.456  1.00  0.00    -0.322 A  
HETATM   11  C   UNL     1     -11.489  11.867  63.568  1.00  0.00    -0.523 A  
HETATM   12  C   UNL     1     -11.192  14.079  64.543  1.00  0.00    -0.358 A  
HETATM   13  C   UNL     1     -11.664  13.247  63.514  1.00  0.00    -0.390 A  
ENDBRANCH   3   4
ENDBRANCH   2   3
BRANCH   2  14
HETATM   14  C   UNL     1      -6.863  13.641  67.960  1.00  0.00    -0.138 C  
BRANCH  14  15
HETATM   15  C   UNL     1      -7.288  12.197  67.794  1.00  0.00    -0.114 A  
HETATM   16  C   UNL     1      -8.405  10.191  68.604  1.00  0.00    -0.116 A  
HETATM   17  C   UNL     1      -7.037  11.533  66.592  1.00  0.00    -0.069 A  
HETATM   18  C   UNL     1      -7.479  10.221  66.391  1.00  0.00    -0.114 A  
HETATM   19  C   UNL     1      -7.960  11.505  68.808  1.00  0.00    -0.107 A  
HETATM   20  C   UNL     1      -8.192   9.525  67.381  1.00  0.00    -0.114 A  
BRANCH  20  21
HETATM   21  C   UNL     1      -8.748   8.109  67.142  1.00  0.00    -0.130 C  
HETATM   22  C   UNL     1      -8.112   7.407  65.920  1.00  0.00    -0.128 C  
HETATM   23  C   UNL     1      -8.489   7.216  68.372  1.00  0.00    -0.124 C  
HETATM   24  C   UNL     1     -10.269   8.172  66.882  1.00  0.00    -0.387 C  
ENDBRANCH  20  21
ENDBRANCH  14  15
ENDBRANCH   2  14
TORSDOF 5
ENDMDL
MODEL      152
REMARK 921   NORMALIZED FREE ENERGY PREDICTED BY IDOCK:   -3.69 KCAL/MOL
REMARK 922        TOTAL FREE ENERGY PREDICTED BY IDOCK:   -6.55 KCAL/MOL
REMARK 923 INTER-LIGAND FREE ENERGY PREDICTED BY IDOCK:   -6.40 KCAL/MOL
REMARK 924 INTRA-LIGAND FREE ENERGY PREDICTED BY IDOCK:   -0.15 KCAL/MOL
REMARK 927      BINDING AFFINITY PREDICTED BY RF-SCORE:    0.00 PKD
ROOT
HETATM    1  C   UNL     1      -9.320  13.845  68.822  1.00  0.00    -0.030 C  
HETATM    2  N   UNL     1      -9.845  12.786  67.954  1.00  0.00    -0.216 NA 
ENDROOT
BRANCH   2   3
HETATM    3  C   UNL     1     -11.322  12.750  67.995  1.00  0.00    -0.292 C  
BRANCH   3   4
HETATM    4  C   UNL     1     -11.901  12.332  69.341  1.00  0.00    -0.370 A  
HETATM    5  C   UNL     1     -12.357  13.277  70.302  1.00  0.00    -0.334 A  
HETATM    6  C   UNL     1     -11.956  10.956  69.634  1.00  0.00    -0.414 A  
HETATM    7  C   UNL     1     -12.342  14.675  70.101  1.00  0.00    -0.390 A  
HETATM    8  C   UNL     1     -12.445  10.505  70.855  1.00  0.00    -0.488 A  
HETATM    9  C   UNL     1     -12.752  15.568  71.091  1.00  0.00    -0.525 A  
HETATM   10  C   UNL     1     -12.884  11.423  71.805  1.00  0.00    -0.449 A  
HETATM   11  C   UNL     1     -13.209  15.085  72.310  1.00  0.00    -0.470 A  
HETATM   12  C   UNL     1     -12.841  12.801  71.549  1.00  0.00    -0.369 A  
HETATM   13  C   UNL     1     -13.262  13.711  72.533  1.00  0.00    -0.578 A  
ENDBRANCH   3   4
ENDBRANCH   2   3
BRANCH   2  14
HETATM   14  C   UNL     1      -9.310  11.460  68.311  1.00  0.00    -0.187 C  
BRANCH  14  15
HETATM   15  C   UNL     1      -9.001  10.580  67.118  1.00  0.00    -0.147 A  
HETATM   16  C   UNL     1      -8.554  10.279  64.744  1.00  0.00    -0.193 A  
HETATM   17  C   UNL     1      -8.767   9.217  67.302  1.00  0.00    -0.122 A  
HETATM   18  C   UNL     1      -8.415   8.398  66.225  1.00  0.00    -0.132 A  
HETATM   19  C   UNL     1      -8.911  11.102  65.822  1.00  0.00    -0.182 A  
HETATM   20  C   UNL     1      -8.277   8.910  64.924  1.00  0.00    -0.161 A  
BRANCH  20  21
HETATM   21  C   UNL     1      -7.816   8.032  63.745  1.00  0.00    -0.142 C  
HETATM   22  C   UNL     1      -8.283   6.563  63.866  1.00  0.00     0.051 C  
HETATM   23  C   UNL     1      -8.371   8.584  62.416  1.00  0.00    -0.192 C  
HETATM   24  C   UNL     1      -6.275   8.010  63.672  1.00  0.00    -0.067 C  
ENDBRANCH  20  21
ENDBRANCH  14  15
ENDBRANCH   2  14
TORSDOF 5
ENDMDL
MODEL      153
REMARK 921   NORMALIZED FREE ENERGY PREDICTED BY IDOCK:   -3.68 KCAL/MOL
REMARK 922        TOTAL FREE ENERGY PREDICTED BY IDOCK:   -6.54 KCAL/MOL
REMARK 923 INTER-LIGAND FREE ENERGY PREDICTED BY IDOCK:   -4.82 KCAL/MOL
REMARK 924 INTRA-LIGAND FREE ENERGY PREDICTED BY IDOCK:   -1.73 KCAL/MOL
REMARK 927      BINDING AFFINITY PREDICTED BY RF-SCORE:    0.00 PKD
ROOT
HETATM    1  C   UNL     1     -13.574   8.386  71.532  1.00  0.00    -0.297 C  
HETATM    2  N   UNL     1     -12.216   7.832  71.541  1.00  0.00    -0.308 NA 
ENDROOT
BRANCH   2   3
HETATM    3  C   UNL     1     -11.521   8.152  72.807  1.00  0.00    -0.329 C  
BRANCH   3   4
HETATM    4  C   UNL     1     -10.207   7.409  73.004  1.00  0.00    -0.335 A  
HETATM    5  C   UNL     1     -10.149   6.001  73.204  1.00  0.00    -0.198 A  
HETATM    6  C   UNL     1      -9.018   8.164  73.007  1.00  0.00    -0.335 A  
HETATM    7  C   UNL     1     -11.283   5.160  73.218  1.00  0.00    -0.389 A  
HETATM    8  C   UNL     1      -7.785   7.554  73.211  1.00  0.00    -0.125 A  
HETATM    9  C   UNL     1     -11.185   3.791  73.469  1.00  0.00    -0.299 A  
HETATM   10  C   UNL     1      -7.721   6.179  73.418  1.00  0.00    -0.099 A  
HETATM   11  C   UNL     1      -9.941   3.219  73.696  1.00  0.00    -0.170 A  
HETATM   12  C   UNL     1      -8.884   5.396  73.424  1.00  0.00    -0.113 A  
HETATM   13  C   UNL     1      -8.798   4.014  73.664  1.00  0.00    -0.093 A  
ENDBRANCH   3   4
ENDBRANCH   2   3
BRANCH   2  14
HETATM   14  C   UNL     1     -11.413   8.313  70.403  1.00  0.00    -0.122 C  
BRANCH  14  15
HETATM   15  C   UNL     1     -10.522   7.253  69.789  1.00  0.00    -0.236 A  
HETATM   16  C   UNL     1     -10.145   4.994  68.964  1.00  0.00    -0.238 A  
HETATM   17  C   UNL     1      -9.233   7.587  69.369  1.00  0.00    -0.149 A  
HETATM   18  C   UNL     1      -8.417   6.642  68.739  1.00  0.00    -0.123 A  
HETATM   19  C   UNL     1     -10.964   5.939  69.599  1.00  0.00    -0.447 A  
HETATM   20  C   UNL     1      -8.859   5.330  68.501  1.00  0.00    -0.102 A  
BRANCH  20  21
HETATM   21  C   UNL     1      -7.996   4.304  67.741  1.00  0.00    -0.087 C  
HETATM   22  C   UNL     1      -7.561   3.109  68.621  1.00  0.00    -0.048 C  
HETATM   23  C   UNL     1      -8.776   3.733  66.540  1.00  0.00    -0.118 C  
HETATM   24  C   UNL     1      -6.705   4.976  67.225  1.00  0.00    -0.055 C  
ENDBRANCH  20  21
ENDBRANCH  14  15
ENDBRANCH   2  14
TORSDOF 5
ENDMDL
MODEL      154
REMARK 921   NORMALIZED FREE ENERGY PREDICTED BY IDOCK:   -3.67 KCAL/MOL
REMARK 922        TOTAL FREE ENERGY PREDICTED BY IDOCK:   -6.52 KCAL/MOL
REMARK 923 INTER-LIGAND FREE ENERGY PREDICTED BY IDOCK:   -5.51 KCAL/MOL
REMARK 924 INTRA-LIGAND FREE ENERGY PREDICTED BY IDOCK:   -1.01 KCAL/MOL
REMARK 927      BINDING AFFINITY PREDICTED BY RF-SCORE:    0.00 PKD
ROOT
HETATM    1  C   UNL     1     -10.938  19.832  66.089  1.00  0.00    -0.139 C  
HETATM    2  N   UNL     1     -10.501  18.722  66.942  1.00  0.00    -0.397 NA 
ENDROOT
BRANCH   2   3
HETATM    3  C   UNL     1      -9.653  19.207  68.052  1.00  0.00    -0.332 C  
BRANCH   3   4
HETATM    4  C   UNL     1      -8.157  19.109  67.785  1.00  0.00    -0.310 A  
HETATM    5  C   UNL     1      -7.361  18.039  68.283  1.00  0.00    -0.259 A  
HETATM    6  C   UNL     1      -7.554  20.137  67.035  1.00  0.00    -0.336 A  
HETATM    7  C   UNL     1      -7.874  16.965  69.043  1.00  0.00    -0.184 A  
HETATM    8  C   UNL     1      -6.187  20.126  66.779  1.00  0.00    -0.208 A  
HETATM    9  C   UNL     1      -7.049  15.963  69.555  1.00  0.00    -0.184 A  
HETATM   10  C   UNL     1      -5.401  19.089  67.270  1.00  0.00    -0.154 A  
HETATM   11  C   UNL     1      -5.684  15.997  69.303  1.00  0.00    -0.119 A  
HETATM   12  C   UNL     1      -5.967  18.050  68.023  1.00  0.00    -0.163 A  
HETATM   13  C   UNL     1      -5.149  17.028  68.535  1.00  0.00    -0.120 A  
ENDBRANCH   3   4
ENDBRANCH   2   3
BRANCH   2  14
HETATM   14  C   UNL     1      -9.773  17.690  66.182  1.00  0.00    -0.213 C  
BRANCH  14  15
HETATM   15  C   UNL     1     -10.068  16.274  66.631  1.00  0.00    -0.283 A  
HETATM   16  C   UNL     1      -9.505  13.908  66.745  1.00  0.00    -0.287 A  
HETATM   17  C   UNL     1     -11.160  16.021  67.461  1.00  0.00    -0.207 A  
HETATM   18  C   UNL     1     -11.413  14.732  67.941  1.00  0.00    -0.361 A  
HETATM   19  C   UNL     1      -9.252  15.199  66.259  1.00  0.00    -0.336 A  
HETATM   20  C   UNL     1     -10.581  13.649  67.615  1.00  0.00    -0.245 A  
BRANCH  20  21
HETATM   21  C   UNL     1     -10.807  12.241  68.199  1.00  0.00    -0.258 C  
HETATM   22  C   UNL     1     -11.868  11.426  67.422  1.00  0.00    -0.038 C  
HETATM   23  C   UNL     1      -9.495  11.433  68.174  1.00  0.00    -0.181 C  
HETATM   24  C   UNL     1     -11.301  12.346  69.658  1.00  0.00    -0.193 C  
ENDBRANCH  20  21
ENDBRANCH  14  15
ENDBRANCH   2  14
TORSDOF 5
ENDMDL
MODEL      155
REMARK 921   NORMALIZED FREE ENERGY PREDICTED BY IDOCK:   -3.66 KCAL/MOL
REMARK 922        TOTAL FREE ENERGY PREDICTED BY IDOCK:   -6.51 KCAL/MOL
REMARK 923 INTER-LIGAND FREE ENERGY PREDICTED BY IDOCK:   -5.41 KCAL/MOL
REMARK 924 INTRA-LIGAND FREE ENERGY PREDICTED BY IDOCK:   -1.10 KCAL/MOL
REMARK 927      BINDING AFFINITY PREDICTED BY RF-SCORE:    0.00 PKD
ROOT
HETATM    1  C   UNL     1      -8.955  10.646  67.696  1.00  0.00    -0.139 C  
HETATM    2  N   UNL     1      -8.668   9.454  68.501  1.00  0.00    -0.127 NA 
ENDROOT
BRANCH   2   3
HETATM    3  C   UNL     1      -8.539   9.799  69.933  1.00  0.00    -0.218 C  
BRANCH   3   4
HETATM    4  C   UNL     1      -9.422   8.971  70.857  1.00  0.00    -0.331 A  
HETATM    5  C   UNL     1     -10.766   9.332  71.155  1.00  0.00    -0.403 A  
HETATM    6  C   UNL     1      -8.861   7.821  71.446  1.00  0.00    -0.149 A  
HETATM    7  C   UNL     1     -11.415  10.464  70.615  1.00  0.00    -0.438 A  
HETATM    8  C   UNL     1      -9.600   7.036  72.323  1.00  0.00    -0.165 A  
HETATM    9  C   UNL     1     -12.719  10.809  70.974  1.00  0.00    -0.513 A  
HETATM   10  C   UNL     1     -10.912   7.387  72.627  1.00  0.00    -0.363 A  
HETATM   11  C   UNL     1     -13.419  10.017  71.873  1.00  0.00    -0.449 A  
HETATM   12  C   UNL     1     -11.502   8.526  72.061  1.00  0.00    -0.431 A  
HETATM   13  C   UNL     1     -12.818   8.878  72.406  1.00  0.00    -0.446 A  
ENDBRANCH   3   4
ENDBRANCH   2   3
BRANCH   2  14
HETATM   14  C   UNL     1      -7.447   8.762  68.050  1.00  0.00    -0.093 C  
BRANCH  14  15
HETATM   15  C   UNL     1      -7.706   7.411  67.416  1.00  0.00    -0.114 A  
HETATM   16  C   UNL     1      -8.386   5.077  67.560  1.00  0.00    -0.105 A  
HETATM   17  C   UNL     1      -7.599   7.261  66.033  1.00  0.00    -0.089 A  
HETATM   18  C   UNL     1      -7.898   6.040  65.418  1.00  0.00    -0.104 A  
HETATM   19  C   UNL     1      -8.083   6.299  68.179  1.00  0.00    -0.115 A  
HETATM   20  C   UNL     1      -8.319   4.926  66.162  1.00  0.00    -0.112 A  
BRANCH  20  21
HETATM   21  C   UNL     1      -8.723   3.600  65.488  1.00  0.00    -0.119 C  
HETATM   22  C   UNL     1      -9.044   2.478  66.502  1.00  0.00    -0.111 C  
HETATM   23  C   UNL     1      -9.977   3.803  64.613  1.00  0.00    -0.199 C  
HETATM   24  C   UNL     1      -7.571   3.086  64.598  1.00  0.00    -0.076 C  
ENDBRANCH  20  21
ENDBRANCH  14  15
ENDBRANCH   2  14
TORSDOF 5
ENDMDL
MODEL      156
REMARK 921   NORMALIZED FREE ENERGY PREDICTED BY IDOCK:   -3.61 KCAL/MOL
REMARK 922        TOTAL FREE ENERGY PREDICTED BY IDOCK:   -6.44 KCAL/MOL
REMARK 923 INTER-LIGAND FREE ENERGY PREDICTED BY IDOCK:   -6.17 KCAL/MOL
REMARK 924 INTRA-LIGAND FREE ENERGY PREDICTED BY IDOCK:   -0.27 KCAL/MOL
REMARK 927      BINDING AFFINITY PREDICTED BY RF-SCORE:    0.00 PKD
ROOT
HETATM    1  C   UNL     1      -8.925  10.547  69.030  1.00  0.00    -0.176 C  
HETATM    2  N   UNL     1      -9.497  10.203  67.724  1.00  0.00    -0.144 NA 
ENDROOT
BRANCH   2   3
HETATM    3  C   UNL     1      -8.889  11.014  66.648  1.00  0.00    -0.164 C  
BRANCH   3   4
HETATM    4  C   UNL     1      -8.691  10.266  65.337  1.00  0.00    -0.183 A  
HETATM    5  C   UNL     1      -7.600   9.377  65.122  1.00  0.00    -0.108 A  
HETATM    6  C   UNL     1      -9.620  10.493  64.303  1.00  0.00    -0.364 A  
HETATM    7  C   UNL     1      -6.619   9.087  66.095  1.00  0.00    -0.066 A  
HETATM    8  C   UNL     1      -9.482   9.865  63.070  1.00  0.00    -0.123 A  
HETATM    9  C   UNL     1      -5.537   8.248  65.826  1.00  0.00    -0.039 A  
HETATM   10  C   UNL     1      -8.413   9.003  62.848  1.00  0.00    -0.200 A  
HETATM   11  C   UNL     1      -5.415   7.659  64.575  1.00  0.00    -0.033 A  
HETATM   12  C   UNL     1      -7.467   8.755  63.854  1.00  0.00    -0.117 A  
HETATM   13  C   UNL     1      -6.379   7.904  63.599  1.00  0.00    -0.063 A  
ENDBRANCH   3   4
ENDBRANCH   2   3
BRANCH   2  14
HETATM   14  C   UNL     1     -10.961  10.369  67.699  1.00  0.00    -0.312 C  
BRANCH  14  15
HETATM   15  C   UNL     1     -11.481  11.389  68.691  1.00  0.00    -0.359 A  
HETATM   16  C   UNL     1     -12.328  11.989  70.893  1.00  0.00    -0.384 A  
HETATM   17  C   UNL     1     -11.505  12.741  68.348  1.00  0.00    -0.349 A  
HETATM   18  C   UNL     1     -11.918  13.708  69.271  1.00  0.00    -0.384 A  
HETATM   19  C   UNL     1     -11.917  11.018  69.969  1.00  0.00    -0.430 A  
HETATM   20  C   UNL     1     -12.318  13.360  70.572  1.00  0.00    -0.401 A  
BRANCH  20  21
HETATM   21  C   UNL     1     -12.703  14.423  71.618  1.00  0.00    -0.419 C  
HETATM   22  C   UNL     1     -11.537  15.377  71.969  1.00  0.00    -0.544 C  
HETATM   23  C   UNL     1     -13.867  15.291  71.099  1.00  0.00    -0.498 C  
HETATM   24  C   UNL     1     -13.137  13.740  72.933  1.00  0.00    -0.308 C  
ENDBRANCH  20  21
ENDBRANCH  14  15
ENDBRANCH   2  14
TORSDOF 5
ENDMDL
MODEL      157
REMARK 921   NORMALIZED FREE ENERGY PREDICTED BY IDOCK:   -3.60 KCAL/MOL
REMARK 922        TOTAL FREE ENERGY PREDICTED BY IDOCK:   -6.43 KCAL/MOL
REMARK 923 INTER-LIGAND FREE ENERGY PREDICTED BY IDOCK:   -5.33 KCAL/MOL
REMARK 924 INTRA-LIGAND FREE ENERGY PREDICTED BY IDOCK:   -1.10 KCAL/MOL
REMARK 927      BINDING AFFINITY PREDICTED BY RF-SCORE:    0.00 PKD
ROOT
HETATM    1  C   UNL     1      -7.205   3.695  69.970  1.00  0.00    -0.041 C  
HETATM    2  N   UNL     1      -7.631   5.078  69.732  1.00  0.00    -0.060 NA 
ENDROOT
BRANCH   2   3
HETATM    3  C   UNL     1      -7.714   5.833  71.000  1.00  0.00    -0.101 C  
BRANCH   3   4
HETATM    4  C   UNL     1      -9.110   5.883  71.608  1.00  0.00    -0.149 A  
HETATM    5  C   UNL     1      -9.913   7.058  71.580  1.00  0.00    -0.187 A  
HETATM    6  C   UNL     1      -9.596   4.720  72.236  1.00  0.00    -0.195 A  
HETATM    7  C   UNL     1      -9.514   8.270  70.975  1.00  0.00    -0.197 A  
HETATM    8  C   UNL     1     -10.849   4.705  72.837  1.00  0.00    -0.295 A  
HETATM    9  C   UNL     1     -10.313   9.414  71.015  1.00  0.00    -0.382 A  
HETATM   10  C   UNL     1     -11.637   5.851  72.823  1.00  0.00    -0.235 A  
HETATM   11  C   UNL     1     -11.547   9.371  71.648  1.00  0.00    -0.466 A  
HETATM   12  C   UNL     1     -11.184   7.029  72.209  1.00  0.00    -0.299 A  
HETATM   13  C   UNL     1     -11.984   8.184  72.232  1.00  0.00    -0.434 A  
ENDBRANCH   3   4
ENDBRANCH   2   3
BRANCH   2  14
HETATM   14  C   UNL     1      -8.926   5.147  69.032  1.00  0.00    -0.100 C  
BRANCH  14  15
HETATM   15  C   UNL     1      -9.106   6.396  68.194  1.00  0.00    -0.113 A  
HETATM   16  C   UNL     1     -10.518   8.029  67.068  1.00  0.00    -0.410 A  
HETATM   17  C   UNL     1      -7.994   7.160  67.839  1.00  0.00    -0.115 A  
HETATM   18  C   UNL     1      -8.142   8.352  67.123  1.00  0.00    -0.104 A  
HETATM   19  C   UNL     1     -10.372   6.831  67.784  1.00  0.00    -0.245 A  
HETATM   20  C   UNL     1      -9.407   8.828  66.739  1.00  0.00    -0.229 A  
BRANCH  20  21
HETATM   21  C   UNL     1      -9.586  10.177  66.016  1.00  0.00    -0.265 C  
HETATM   22  C   UNL     1      -9.759  10.026  64.487  1.00  0.00    -0.310 C  
HETATM   23  C   UNL     1     -10.833  10.910  66.551  1.00  0.00    -0.234 C  
HETATM   24  C   UNL     1      -8.347  11.068  66.243  1.00  0.00    -0.166 C  
ENDBRANCH  20  21
ENDBRANCH  14  15
ENDBRANCH   2  14
TORSDOF 5
ENDMDL
MODEL      158
REMARK 921   NORMALIZED FREE ENERGY PREDICTED BY IDOCK:   -3.60 KCAL/MOL
REMARK 922        TOTAL FREE ENERGY PREDICTED BY IDOCK:   -6.43 KCAL/MOL
REMARK 923 INTER-LIGAND FREE ENERGY PREDICTED BY IDOCK:   -6.26 KCAL/MOL
REMARK 924 INTRA-LIGAND FREE ENERGY PREDICTED BY IDOCK:   -0.17 KCAL/MOL
REMARK 927      BINDING AFFINITY PREDICTED BY RF-SCORE:    0.00 PKD
ROOT
HETATM    1  C   UNL     1     -11.869  10.904  69.620  1.00  0.00    -0.344 C  
HETATM    2  N   UNL     1     -10.581  10.262  69.337  1.00  0.00    -0.221 NA 
ENDROOT
BRANCH   2   3
HETATM    3  C   UNL     1      -9.759  11.098  68.436  1.00  0.00    -0.191 C  
BRANCH   3   4
HETATM    4  C   UNL     1     -10.555  12.104  67.616  1.00  0.00    -0.236 A  
HETATM    5  C   UNL     1     -10.615  13.486  67.951  1.00  0.00    -0.255 A  
HETATM    6  C   UNL     1     -11.270  11.624  66.501  1.00  0.00    -0.356 A  
HETATM    7  C   UNL     1      -9.935  14.060  69.047  1.00  0.00    -0.028 A  
HETATM    8  C   UNL     1     -12.042  12.482  65.725  1.00  0.00    -0.443 A  
HETATM    9  C   UNL     1     -10.062  15.412  69.369  1.00  0.00    -0.269 A  
HETATM   10  C   UNL     1     -12.114  13.832  66.051  1.00  0.00    -0.470 A  
HETATM   11  C   UNL     1     -10.863  16.235  68.589  1.00  0.00    -0.322 A  
HETATM   12  C   UNL     1     -11.417  14.345  67.156  1.00  0.00    -0.379 A  
HETATM   13  C   UNL     1     -11.528  15.707  67.485  1.00  0.00    -0.121 A  
ENDBRANCH   3   4
ENDBRANCH   2   3
BRANCH   2  14
HETATM   14  C   UNL     1     -10.746   8.921  68.750  1.00  0.00    -0.090 C  
BRANCH  14  15
HETATM   15  C   UNL     1     -10.612   7.792  69.751  1.00  0.00    -0.241 A  
HETATM   16  C   UNL     1     -10.474   5.422  70.294  1.00  0.00    -0.355 A  
HETATM   17  C   UNL     1     -10.395   8.080  71.099  1.00  0.00    -0.229 A  
HETATM   18  C   UNL     1     -10.202   7.055  72.030  1.00  0.00    -0.209 A  
HETATM   19  C   UNL     1     -10.671   6.449  69.359  1.00  0.00    -0.347 A  
HETATM   20  C   UNL     1     -10.215   5.703  71.649  1.00  0.00    -0.261 A  
BRANCH  20  21
HETATM   21  C   UNL     1      -9.929   4.570  72.653  1.00  0.00    -0.217 C  
HETATM   22  C   UNL     1      -8.780   4.905  73.633  1.00  0.00    -0.103 C  
HETATM   23  C   UNL     1     -11.184   4.273  73.498  1.00  0.00    -0.361 C  
HETATM   24  C   UNL     1      -9.518   3.286  71.900  1.00  0.00    -0.210 C  
ENDBRANCH  20  21
ENDBRANCH  14  15
ENDBRANCH   2  14
TORSDOF 5
ENDMDL
MODEL      159
REMARK 921   NORMALIZED FREE ENERGY PREDICTED BY IDOCK:   -3.54 KCAL/MOL
REMARK 922        TOTAL FREE ENERGY PREDICTED BY IDOCK:   -6.36 KCAL/MOL
REMARK 923 INTER-LIGAND FREE ENERGY PREDICTED BY IDOCK:   -4.57 KCAL/MOL
REMARK 924 INTRA-LIGAND FREE ENERGY PREDICTED BY IDOCK:   -1.78 KCAL/MOL
REMARK 927      BINDING AFFINITY PREDICTED BY RF-SCORE:    0.00 PKD
ROOT
HETATM    1  C   UNL     1     -10.510   7.307  73.562  1.00  0.00    -0.374 C  
HETATM    2  N   UNL     1     -10.172   6.877  72.201  1.00  0.00    -0.192 NA 
ENDROOT
BRANCH   2   3
HETATM    3  C   UNL     1     -10.836   5.598  71.868  1.00  0.00    -0.242 C  
BRANCH   3   4
HETATM    4  C   UNL     1     -10.131   4.791  70.786  1.00  0.00    -0.286 A  
HETATM    5  C   UNL     1     -10.237   5.111  69.404  1.00  0.00    -0.293 A  
HETATM    6  C   UNL     1      -9.369   3.676  71.188  1.00  0.00    -0.218 A  
HETATM    7  C   UNL     1     -10.975   6.206  68.904  1.00  0.00    -0.424 A  
HETATM    8  C   UNL     1      -8.724   2.878  70.251  1.00  0.00    -0.132 A  
HETATM    9  C   UNL     1     -11.094   6.454  67.536  1.00  0.00    -0.401 A  
HETATM   10  C   UNL     1      -8.830   3.178  68.897  1.00  0.00    -0.167 A  
HETATM   11  C   UNL     1     -10.459   5.620  66.626  1.00  0.00    -0.340 A  
HETATM   12  C   UNL     1      -9.582   4.278  68.460  1.00  0.00    -0.202 A  
HETATM   13  C   UNL     1      -9.700   4.546  67.085  1.00  0.00    -0.227 A  
ENDBRANCH   3   4
ENDBRANCH   2   3
BRANCH   2  14
HETATM   14  C   UNL     1      -8.717   6.741  72.008  1.00  0.00    -0.126 C  
BRANCH  14  15
HETATM   15  C   UNL     1      -8.219   7.292  70.688  1.00  0.00    -0.116 A  
HETATM   16  C   UNL     1      -6.792   7.161  68.719  1.00  0.00    -0.076 A  
HETATM   17  C   UNL     1      -8.813   8.430  70.141  1.00  0.00    -0.141 A  
HETATM   18  C   UNL     1      -8.415   8.918  68.893  1.00  0.00    -0.131 A  
HETATM   19  C   UNL     1      -7.188   6.671  69.973  1.00  0.00    -0.080 A  
HETATM   20  C   UNL     1      -7.412   8.285  68.140  1.00  0.00    -0.097 A  
BRANCH  20  21
HETATM   21  C   UNL     1      -7.019   8.770  66.732  1.00  0.00    -0.080 C  
HETATM   22  C   UNL     1      -6.410  10.192  66.729  1.00  0.00    -0.070 C  
HETATM   23  C   UNL     1      -5.975   7.821  66.109  1.00  0.00    -0.038 C  
HETATM   24  C   UNL     1      -8.263   8.812  65.820  1.00  0.00    -0.121 C  
ENDBRANCH  20  21
ENDBRANCH  14  15
ENDBRANCH   2  14
TORSDOF 5
ENDMDL
MODEL      160
REMARK 921   NORMALIZED FREE ENERGY PREDICTED BY IDOCK:   -3.52 KCAL/MOL
REMARK 922        TOTAL FREE ENERGY PREDICTED BY IDOCK:   -6.33 KCAL/MOL
REMARK 923 INTER-LIGAND FREE ENERGY PREDICTED BY IDOCK:   -5.43 KCAL/MOL
REMARK 924 INTRA-LIGAND FREE ENERGY PREDICTED BY IDOCK:   -0.90 KCAL/MOL
REMARK 927      BINDING AFFINITY PREDICTED BY RF-SCORE:    0.00 PKD
ROOT
HETATM    1  C   UNL     1      -7.315   7.059  70.823  1.00  0.00    -0.073 C  
HETATM    2  N   UNL     1      -8.626   7.625  70.486  1.00  0.00    -0.136 NA 
ENDROOT
BRANCH   2   3
HETATM    3  C   UNL     1      -9.133   8.479  71.581  1.00  0.00    -0.229 C  
BRANCH   3   4
HETATM    4  C   UNL     1     -10.494   9.105  71.308  1.00  0.00    -0.398 A  
HETATM    5  C   UNL     1     -10.693  10.088  70.298  1.00  0.00    -0.367 A  
HETATM    6  C   UNL     1     -11.578   8.699  72.110  1.00  0.00    -0.440 A  
HETATM    7  C   UNL     1      -9.670  10.559  69.446  1.00  0.00    -0.188 A  
HETATM    8  C   UNL     1     -12.842   9.251  71.934  1.00  0.00    -0.485 A  
HETATM    9  C   UNL     1      -9.898  11.562  68.502  1.00  0.00    -0.198 A  
HETATM   10  C   UNL     1     -13.043  10.220  70.956  1.00  0.00    -0.458 A  
HETATM   11  C   UNL     1     -11.166  12.111  68.372  1.00  0.00    -0.314 A  
HETATM   12  C   UNL     1     -11.986  10.651  70.141  1.00  0.00    -0.417 A  
HETATM   13  C   UNL     1     -12.204  11.652  69.179  1.00  0.00    -0.201 A  
ENDBRANCH   3   4
ENDBRANCH   2   3
BRANCH   2  14
HETATM   14  C   UNL     1      -9.618   6.580  70.177  1.00  0.00    -0.160 C  
BRANCH  14  15
HETATM   15  C   UNL     1      -9.554   6.075  68.750  1.00  0.00    -0.148 A  
HETATM   16  C   UNL     1      -9.343   6.457  66.355  1.00  0.00    -0.176 A  
HETATM   17  C   UNL     1      -9.546   4.702  68.499  1.00  0.00    -0.220 A  
HETATM   18  C   UNL     1      -9.420   4.212  67.196  1.00  0.00    -0.215 A  
HETATM   19  C   UNL     1      -9.472   6.951  67.661  1.00  0.00    -0.133 A  
HETATM   20  C   UNL     1      -9.294   5.074  66.094  1.00  0.00    -0.157 A  
BRANCH  20  21
HETATM   21  C   UNL     1      -9.080   4.544  64.664  1.00  0.00    -0.151 C  
HETATM   22  C   UNL     1     -10.371   3.980  64.027  1.00  0.00    -0.171 C  
HETATM   23  C   UNL     1      -8.568   5.672  63.745  1.00  0.00     0.093 C  
HETATM   24  C   UNL     1      -8.045   3.399  64.672  1.00  0.00    -0.090 C  
ENDBRANCH  20  21
ENDBRANCH  14  15
ENDBRANCH   2  14
TORSDOF 5
ENDMDL
MODEL      161
REMARK 921   NORMALIZED FREE ENERGY PREDICTED BY IDOCK:   -3.50 KCAL/MOL
REMARK 922        TOTAL FREE ENERGY PREDICTED BY IDOCK:   -6.30 KCAL/MOL
REMARK 923 INTER-LIGAND FREE ENERGY PREDICTED BY IDOCK:   -6.23 KCAL/MOL
REMARK 924 INTRA-LIGAND FREE ENERGY PREDICTED BY IDOCK:   -0.07 KCAL/MOL
REMARK 927      BINDING AFFINITY PREDICTED BY RF-SCORE:    0.00 PKD
ROOT
HETATM    1  C   UNL     1     -11.989  12.391  66.724  1.00  0.00    -0.212 C  
HETATM    2  N   UNL     1     -11.671  11.766  68.012  1.00  0.00    -0.485 NA 
ENDROOT
BRANCH   2   3
HETATM    3  C   UNL     1     -10.581  12.491  68.699  1.00  0.00    -0.216 C  
BRANCH   3   4
HETATM    4  C   UNL     1     -11.024  13.765  69.405  1.00  0.00    -0.142 A  
HETATM    5  C   UNL     1     -11.956  13.756  70.482  1.00  0.00    -0.367 A  
HETATM    6  C   UNL     1     -10.499  14.988  68.947  1.00  0.00    -0.241 A  
HETATM    7  C   UNL     1     -12.537  12.583  71.010  1.00  0.00    -0.350 A  
HETATM    8  C   UNL     1     -10.883  16.192  69.527  1.00  0.00    -0.329 A  
HETATM    9  C   UNL     1     -13.486  12.624  72.033  1.00  0.00    -0.516 A  
HETATM   10  C   UNL     1     -11.801  16.194  70.572  1.00  0.00    -0.206 A  
HETATM   11  C   UNL     1     -13.867  13.846  72.571  1.00  0.00    -0.620 A  
HETATM   12  C   UNL     1     -12.348  14.995  71.053  1.00  0.00    -0.394 A  
HETATM   13  C   UNL     1     -13.295  15.021  72.091  1.00  0.00    -0.485 A  
ENDBRANCH   3   4
ENDBRANCH   2   3
BRANCH   2  14
HETATM   14  C   UNL     1     -11.303  10.347  67.864  1.00  0.00    -0.173 C  
BRANCH  14  15
HETATM   15  C   UNL     1     -10.052  10.120  67.041  1.00  0.00    -0.277 A  
HETATM   16  C   UNL     1      -7.669   9.654  66.857  1.00  0.00    -0.098 A  
HETATM   17  C   UNL     1     -10.138  10.064  65.649  1.00  0.00    -0.321 A  
HETATM   18  C   UNL     1      -9.008   9.789  64.871  1.00  0.00    -0.257 A  
HETATM   19  C   UNL     1      -8.800   9.932  67.639  1.00  0.00    -0.126 A  
HETATM   20  C   UNL     1      -7.752   9.555  65.455  1.00  0.00    -0.109 A  
BRANCH  20  21
HETATM   21  C   UNL     1      -6.519   9.178  64.612  1.00  0.00    -0.075 C  
HETATM   22  C   UNL     1      -6.212  10.202  63.495  1.00  0.00    -0.138 C  
HETATM   23  C   UNL     1      -5.266   9.084  65.507  1.00  0.00    -0.037 C  
HETATM   24  C   UNL     1      -6.744   7.815  63.924  1.00  0.00    -0.061 C  
ENDBRANCH  20  21
ENDBRANCH  14  15
ENDBRANCH   2  14
TORSDOF 5
ENDMDL
MODEL      162
REMARK 921   NORMALIZED FREE ENERGY PREDICTED BY IDOCK:   -3.48 KCAL/MOL
REMARK 922        TOTAL FREE ENERGY PREDICTED BY IDOCK:   -6.28 KCAL/MOL
REMARK 923 INTER-LIGAND FREE ENERGY PREDICTED BY IDOCK:   -5.12 KCAL/MOL
REMARK 924 INTRA-LIGAND FREE ENERGY PREDICTED BY IDOCK:   -1.16 KCAL/MOL
REMARK 927      BINDING AFFINITY PREDICTED BY RF-SCORE:    0.00 PKD
ROOT
HETATM    1  C   UNL     1      -6.357  11.163  66.970  1.00  0.00    -0.097 C  
HETATM    2  N   UNL     1      -7.614  11.618  67.573  1.00  0.00    -0.120 NA 
ENDROOT
BRANCH   2   3
HETATM    3  C   UNL     1      -7.956  12.984  67.121  1.00  0.00    -0.087 C  
BRANCH   3   4
HETATM    4  C   UNL     1      -9.450  13.277  67.090  1.00  0.00    -0.240 A  
HETATM    5  C   UNL     1     -10.060  14.227  67.956  1.00  0.00    -0.227 A  
HETATM    6  C   UNL     1     -10.243  12.554  66.178  1.00  0.00    -0.269 A  
HETATM    7  C   UNL     1      -9.350  14.999  68.902  1.00  0.00    -0.208 A  
HETATM    8  C   UNL     1     -11.618  12.750  66.116  1.00  0.00    -0.431 A  
HETATM    9  C   UNL     1      -9.996  15.884  69.767  1.00  0.00    -0.211 A  
HETATM   10  C   UNL     1     -12.224  13.669  66.966  1.00  0.00    -0.373 A  
HETATM   11  C   UNL     1     -11.374  16.035  69.697  1.00  0.00    -0.332 A  
HETATM   12  C   UNL     1     -11.466  14.406  67.889  1.00  0.00    -0.346 A  
HETATM   13  C   UNL     1     -12.102  15.308  68.758  1.00  0.00    -0.195 A  
ENDBRANCH   3   4
ENDBRANCH   2   3
BRANCH   2  14
HETATM   14  C   UNL     1      -7.568  11.583  69.045  1.00  0.00    -0.058 C  
BRANCH  14  15
HETATM   15  C   UNL     1      -8.221  10.359  69.652  1.00  0.00    -0.099 A  
HETATM   16  C   UNL     1     -10.012   8.712  69.736  1.00  0.00    -0.190 A  
HETATM   17  C   UNL     1      -7.568   9.652  70.663  1.00  0.00    -0.104 A  
HETATM   18  C   UNL     1      -8.121   8.482  71.192  1.00  0.00    -0.158 A  
HETATM   19  C   UNL     1      -9.461   9.888  69.206  1.00  0.00    -0.218 A  
HETATM   20  C   UNL     1      -9.344   7.970  70.728  1.00  0.00    -0.167 A  
BRANCH  20  21
HETATM   21  C   UNL     1      -9.923   6.642  71.251  1.00  0.00    -0.196 C  
HETATM   22  C   UNL     1     -10.755   5.884  70.190  1.00  0.00    -0.389 C  
HETATM   23  C   UNL     1      -8.787   5.701  71.702  1.00  0.00    -0.140 C  
HETATM   24  C   UNL     1     -10.858   6.907  72.450  1.00  0.00    -0.267 C  
ENDBRANCH  20  21
ENDBRANCH  14  15
ENDBRANCH   2  14
TORSDOF 5
ENDMDL
MODEL      163
REMARK 921   NORMALIZED FREE ENERGY PREDICTED BY IDOCK:   -3.47 KCAL/MOL
REMARK 922        TOTAL FREE ENERGY PREDICTED BY IDOCK:   -6.26 KCAL/MOL
REMARK 923 INTER-LIGAND FREE ENERGY PREDICTED BY IDOCK:   -6.45 KCAL/MOL
REMARK 924 INTRA-LIGAND FREE ENERGY PREDICTED BY IDOCK:    0.19 KCAL/MOL
REMARK 927      BINDING AFFINITY PREDICTED BY RF-SCORE:    0.00 PKD
ROOT
HETATM    1  C   UNL     1     -13.386  13.526  72.686  1.00  0.00    -0.437 C  
HETATM    2  N   UNL     1     -13.404  13.381  71.227  1.00  0.00    -0.179 NA 
ENDROOT
BRANCH   2   3
HETATM    3  C   UNL     1     -12.250  12.585  70.758  1.00  0.00    -0.240 C  
BRANCH   3   4
HETATM    4  C   UNL     1     -12.348  11.098  71.071  1.00  0.00    -0.487 A  
HETATM    5  C   UNL     1     -11.334  10.171  70.697  1.00  0.00    -0.433 A  
HETATM    6  C   UNL     1     -13.502  10.640  71.735  1.00  0.00    -0.325 A  
HETATM    7  C   UNL     1     -10.144  10.533  70.030  1.00  0.00     0.049 A  
HETATM    8  C   UNL     1     -13.671   9.291  72.025  1.00  0.00    -0.493 A  
HETATM    9  C   UNL     1      -9.199   9.584  69.637  1.00  0.00    -0.212 A  
HETATM   10  C   UNL     1     -12.689   8.376  71.655  1.00  0.00    -0.358 A  
HETATM   11  C   UNL     1      -9.412   8.242  69.919  1.00  0.00    -0.167 A  
HETATM   12  C   UNL     1     -11.528   8.796  70.990  1.00  0.00    -0.337 A  
HETATM   13  C   UNL     1     -10.563   7.852  70.599  1.00  0.00    -0.221 A  
ENDBRANCH   3   4
ENDBRANCH   2   3
BRANCH   2  14
HETATM   14  C   UNL     1     -13.415  14.685  70.540  1.00  0.00     0.094 C  
BRANCH  14  15
HETATM   15  C   UNL     1     -12.132  14.999  69.798  1.00  0.00    -0.354 A  
HETATM   16  C   UNL     1      -9.962  16.091  69.649  1.00  0.00    -0.226 A  
HETATM   17  C   UNL     1     -11.872  14.387  68.571  1.00  0.00    -0.369 A  
HETATM   18  C   UNL     1     -10.666  14.610  67.899  1.00  0.00    -0.250 A  
HETATM   19  C   UNL     1     -11.172  15.872  70.323  1.00  0.00    -0.388 A  
HETATM   20  C   UNL     1      -9.672  15.448  68.430  1.00  0.00    -0.211 A  
BRANCH  20  21
HETATM   21  C   UNL     1      -8.311  15.641  67.735  1.00  0.00    -0.157 C  
HETATM   22  C   UNL     1      -7.351  16.559  68.528  1.00  0.00    -0.186 C  
HETATM   23  C   UNL     1      -7.604  14.282  67.555  1.00  0.00    -0.202 C  
HETATM   24  C   UNL     1      -8.510  16.289  66.348  1.00  0.00    -0.365 C  
ENDBRANCH  20  21
ENDBRANCH  14  15
ENDBRANCH   2  14
TORSDOF 5
ENDMDL
MODEL      164
REMARK 921   NORMALIZED FREE ENERGY PREDICTED BY IDOCK:   -3.45 KCAL/MOL
REMARK 922        TOTAL FREE ENERGY PREDICTED BY IDOCK:   -6.24 KCAL/MOL
REMARK 923 INTER-LIGAND FREE ENERGY PREDICTED BY IDOCK:   -5.65 KCAL/MOL
REMARK 924 INTRA-LIGAND FREE ENERGY PREDICTED BY IDOCK:   -0.59 KCAL/MOL
REMARK 927      BINDING AFFINITY PREDICTED BY RF-SCORE:    0.00 PKD
ROOT
HETATM    1  C   UNL     1     -11.004   7.966  69.462  1.00  0.00    -0.071 C  
HETATM    2  N   UNL     1     -10.652   9.178  70.210  1.00  0.00    -0.210 NA 
ENDROOT
BRANCH   2   3
HETATM    3  C   UNL     1     -11.064  10.393  69.476  1.00  0.00    -0.264 C  
BRANCH   3   4
HETATM    4  C   UNL     1     -11.927  11.351  70.286  1.00  0.00    -0.460 A  
HETATM    5  C   UNL     1     -11.956  12.751  70.034  1.00  0.00    -0.371 A  
HETATM    6  C   UNL     1     -12.701  10.813  71.333  1.00  0.00    -0.544 A  
HETATM    7  C   UNL     1     -11.217  13.382  69.010  1.00  0.00    -0.323 A  
HETATM    8  C   UNL     1     -13.489  11.634  72.132  1.00  0.00    -0.238 A  
HETATM    9  C   UNL     1     -11.236  14.766  68.831  1.00  0.00    -0.282 A  
HETATM   10  C   UNL     1     -13.516  13.006  71.899  1.00  0.00    -0.498 A  
HETATM   11  C   UNL     1     -12.013  15.559  69.664  1.00  0.00    -0.380 A  
HETATM   12  C   UNL     1     -12.756  13.576  70.867  1.00  0.00    -0.366 A  
HETATM   13  C   UNL     1     -12.775  14.967  70.668  1.00  0.00    -0.428 A  
ENDBRANCH   3   4
ENDBRANCH   2   3
BRANCH   2  14
HETATM   14  C   UNL     1      -9.210   9.247  70.507  1.00  0.00    -0.261 C  
BRANCH  14  15
HETATM   15  C   UNL     1      -8.674   8.032  71.236  1.00  0.00    -0.159 A  
HETATM   16  C   UNL     1      -8.828   6.354  72.993  1.00  0.00    -0.129 A  
HETATM   17  C   UNL     1      -7.541   7.377  70.754  1.00  0.00    -0.083 A  
HETATM   18  C   UNL     1      -7.066   6.215  71.371  1.00  0.00    -0.078 A  
HETATM   19  C   UNL     1      -9.304   7.521  72.377  1.00  0.00    -0.192 A  
HETATM   20  C   UNL     1      -7.709   5.662  72.491  1.00  0.00    -0.102 A  
BRANCH  20  21
HETATM   21  C   UNL     1      -7.239   4.342  73.132  1.00  0.00    -0.075 C  
HETATM   22  C   UNL     1      -6.976   3.225  72.095  1.00  0.00    -0.030 C  
HETATM   23  C   UNL     1      -5.928   4.563  73.914  1.00  0.00    -0.025 C  
HETATM   24  C   UNL     1      -8.316   3.811  74.102  1.00  0.00    -0.086 C  
ENDBRANCH  20  21
ENDBRANCH  14  15
ENDBRANCH   2  14
TORSDOF 5
ENDMDL
MODEL      165
REMARK 921   NORMALIZED FREE ENERGY PREDICTED BY IDOCK:   -3.45 KCAL/MOL
REMARK 922        TOTAL FREE ENERGY PREDICTED BY IDOCK:   -6.24 KCAL/MOL
REMARK 923 INTER-LIGAND FREE ENERGY PREDICTED BY IDOCK:   -6.24 KCAL/MOL
REMARK 924 INTRA-LIGAND FREE ENERGY PREDICTED BY IDOCK:   -0.00 KCAL/MOL
REMARK 927      BINDING AFFINITY PREDICTED BY RF-SCORE:    0.00 PKD
ROOT
HETATM    1  C   UNL     1      -8.399  10.644  68.890  1.00  0.00    -0.150 C  
HETATM    2  N   UNL     1      -9.613  11.090  68.197  1.00  0.00    -0.165 NA 
ENDROOT
BRANCH   2   3
HETATM    3  C   UNL     1     -10.108  12.363  68.762  1.00  0.00    -0.055 C  
BRANCH   3   4
HETATM    4  C   UNL     1     -10.028  13.546  67.806  1.00  0.00    -0.232 A  
HETATM    5  C   UNL     1     -10.814  13.624  66.621  1.00  0.00    -0.283 A  
HETATM    6  C   UNL     1      -9.121  14.579  68.111  1.00  0.00    -0.191 A  
HETATM    7  C   UNL     1     -11.748  12.640  66.230  1.00  0.00    -0.460 A  
HETATM    8  C   UNL     1      -8.975  15.673  67.266  1.00  0.00    -0.214 A  
HETATM    9  C   UNL     1     -12.461  12.732  65.034  1.00  0.00    -0.572 A  
HETATM   10  C   UNL     1      -9.732  15.753  66.101  1.00  0.00    -0.351 A  
HETATM   11  C   UNL     1     -12.271  13.826  64.200  1.00  0.00    -0.443 A  
HETATM   12  C   UNL     1     -10.643  14.741  65.763  1.00  0.00    -0.338 A  
HETATM   13  C   UNL     1     -11.376  14.827  64.567  1.00  0.00    -0.309 A  
ENDBRANCH   3   4
ENDBRANCH   2   3
BRANCH   2  14
HETATM   14  C   UNL     1     -10.683  10.079  68.246  1.00  0.00    -0.240 C  
BRANCH  14  15
HETATM   15  C   UNL     1     -10.506   9.049  69.343  1.00  0.00    -0.229 A  
HETATM   16  C   UNL     1      -9.836   6.838  70.109  1.00  0.00    -0.187 A  
HETATM   17  C   UNL     1     -10.762   9.397  70.670  1.00  0.00    -0.353 A  
HETATM   18  C   UNL     1     -10.542   8.483  71.706  1.00  0.00    -0.371 A  
HETATM   19  C   UNL     1     -10.059   7.751  69.069  1.00  0.00    -0.198 A  
HETATM   20  C   UNL     1     -10.053   7.190  71.455  1.00  0.00    -0.197 A  
BRANCH  20  21
HETATM   21  C   UNL     1      -9.736   6.203  72.595  1.00  0.00    -0.164 C  
HETATM   22  C   UNL     1      -9.172   4.855  72.088  1.00  0.00    -0.159 C  
HETATM   23  C   UNL     1      -8.691   6.808  73.554  1.00  0.00    -0.146 C  
HETATM   24  C   UNL     1     -11.019   5.883  73.391  1.00  0.00    -0.230 C  
ENDBRANCH  20  21
ENDBRANCH  14  15
ENDBRANCH   2  14
TORSDOF 5
ENDMDL
MODEL      166
REMARK 921   NORMALIZED FREE ENERGY PREDICTED BY IDOCK:   -3.43 KCAL/MOL
REMARK 922        TOTAL FREE ENERGY PREDICTED BY IDOCK:   -6.22 KCAL/MOL
REMARK 923 INTER-LIGAND FREE ENERGY PREDICTED BY IDOCK:   -4.66 KCAL/MOL
REMARK 924 INTRA-LIGAND FREE ENERGY PREDICTED BY IDOCK:   -1.56 KCAL/MOL
REMARK 927      BINDING AFFINITY PREDICTED BY RF-SCORE:    0.00 PKD
ROOT
HETATM    1  C   UNL     1     -13.686   7.891  71.586  1.00  0.00    -0.360 C  
HETATM    2  N   UNL     1     -12.542   6.980  71.691  1.00  0.00    -0.369 NA 
ENDROOT
BRANCH   2   3
HETATM    3  C   UNL     1     -11.493   7.544  72.566  1.00  0.00    -0.327 C  
BRANCH   3   4
HETATM    4  C   UNL     1     -10.590   6.502  73.213  1.00  0.00    -0.301 A  
HETATM    5  C   UNL     1      -9.244   6.781  73.584  1.00  0.00    -0.179 A  
HETATM    6  C   UNL     1     -11.118   5.213  73.422  1.00  0.00    -0.385 A  
HETATM    7  C   UNL     1      -8.626   8.040  73.414  1.00  0.00    -0.308 A  
HETATM    8  C   UNL     1     -10.340   4.205  73.981  1.00  0.00    -0.259 A  
HETATM    9  C   UNL     1      -7.288   8.256  73.745  1.00  0.00    -0.185 A  
HETATM   10  C   UNL     1      -9.021   4.467  74.337  1.00  0.00    -0.106 A  
HETATM   11  C   UNL     1      -6.532   7.220  74.275  1.00  0.00    -0.078 A  
HETATM   12  C   UNL     1      -8.461   5.738  74.140  1.00  0.00    -0.113 A  
HETATM   13  C   UNL     1      -7.117   5.972  74.480  1.00  0.00    -0.091 A  
ENDBRANCH   3   4
ENDBRANCH   2   3
BRANCH   2  14
HETATM   14  C   UNL     1     -11.964   6.660  70.374  1.00  0.00    -0.280 C  
BRANCH  14  15
HETATM   15  C   UNL     1     -10.610   7.292  70.126  1.00  0.00    -0.245 A  
HETATM   16  C   UNL     1      -9.171   9.243  69.903  1.00  0.00    -0.209 A  
HETATM   17  C   UNL     1      -9.482   6.483  69.985  1.00  0.00    -0.163 A  
HETATM   18  C   UNL     1      -8.212   7.046  69.822  1.00  0.00    -0.131 A  
HETATM   19  C   UNL     1     -10.446   8.681  70.063  1.00  0.00    -0.229 A  
HETATM   20  C   UNL     1      -8.021   8.438  69.799  1.00  0.00    -0.104 A  
BRANCH  20  21
HETATM   21  C   UNL     1      -6.619   9.067  69.696  1.00  0.00    -0.043 C  
HETATM   22  C   UNL     1      -6.159   9.285  68.236  1.00  0.00    -0.052 C  
HETATM   23  C   UNL     1      -6.595  10.441  70.396  1.00  0.00    -0.121 C  
HETATM   24  C   UNL     1      -5.575   8.148  70.365  1.00  0.00    -0.022 C  
ENDBRANCH  20  21
ENDBRANCH  14  15
ENDBRANCH   2  14
TORSDOF 5
ENDMDL
MODEL      167
REMARK 921   NORMALIZED FREE ENERGY PREDICTED BY IDOCK:   -3.41 KCAL/MOL
REMARK 922        TOTAL FREE ENERGY PREDICTED BY IDOCK:   -6.19 KCAL/MOL
REMARK 923 INTER-LIGAND FREE ENERGY PREDICTED BY IDOCK:   -6.38 KCAL/MOL
REMARK 924 INTRA-LIGAND FREE ENERGY PREDICTED BY IDOCK:    0.19 KCAL/MOL
REMARK 927      BINDING AFFINITY PREDICTED BY RF-SCORE:    0.00 PKD
ROOT
HETATM    1  C   UNL     1      -8.841   9.807  70.067  1.00  0.00    -0.215 C  
HETATM    2  N   UNL     1      -9.973   9.163  70.742  1.00  0.00    -0.246 NA 
ENDROOT
BRANCH   2   3
HETATM    3  C   UNL     1     -10.204   7.803  70.210  1.00  0.00    -0.199 C  
BRANCH   3   4
HETATM    4  C   UNL     1     -10.289   6.720  71.277  1.00  0.00    -0.225 A  
HETATM    5  C   UNL     1      -9.141   6.032  71.760  1.00  0.00    -0.148 A  
HETATM    6  C   UNL     1     -11.564   6.387  71.775  1.00  0.00    -0.367 A  
HETATM    7  C   UNL     1      -7.824   6.295  71.323  1.00  0.00    -0.108 A  
HETATM    8  C   UNL     1     -11.718   5.387  72.729  1.00  0.00    -0.235 A  
HETATM    9  C   UNL     1      -6.732   5.561  71.787  1.00  0.00    -0.061 A  
HETATM   10  C   UNL     1     -10.602   4.703  73.199  1.00  0.00    -0.283 A  
HETATM   11  C   UNL     1      -6.924   4.551  72.719  1.00  0.00    -0.066 A  
HETATM   12  C   UNL     1      -9.317   5.006  72.724  1.00  0.00    -0.150 A  
HETATM   13  C   UNL     1      -8.207   4.282  73.191  1.00  0.00    -0.091 A  
ENDBRANCH   3   4
ENDBRANCH   2   3
BRANCH   2  14
HETATM   14  C   UNL     1     -11.210   9.954  70.626  1.00  0.00    -0.344 C  
BRANCH  14  15
HETATM   15  C   UNL     1     -11.316  10.744  69.338  1.00  0.00    -0.351 A  
HETATM   16  C   UNL     1     -11.766  12.808  68.127  1.00  0.00    -0.392 A  
HETATM   17  C   UNL     1     -10.955  10.151  68.127  1.00  0.00    -0.313 A  
HETATM   18  C   UNL     1     -10.982  10.880  66.935  1.00  0.00    -0.286 A  
HETATM   19  C   UNL     1     -11.743  12.077  69.324  1.00  0.00    -0.389 A  
HETATM   20  C   UNL     1     -11.366  12.231  66.907  1.00  0.00    -0.392 A  
BRANCH  20  21
HETATM   21  C   UNL     1     -11.326  13.064  65.611  1.00  0.00    -0.330 C  
HETATM   22  C   UNL     1     -10.835  12.256  64.387  1.00  0.00    -0.370 C  
HETATM   23  C   UNL     1     -12.732  13.601  65.276  1.00  0.00    -0.478 C  
HETATM   24  C   UNL     1     -10.362  14.258  65.778  1.00  0.00    -0.341 C  
ENDBRANCH  20  21
ENDBRANCH  14  15
ENDBRANCH   2  14
TORSDOF 5
ENDMDL
MODEL      168
REMARK 921   NORMALIZED FREE ENERGY PREDICTED BY IDOCK:   -3.36 KCAL/MOL
REMARK 922        TOTAL FREE ENERGY PREDICTED BY IDOCK:   -6.12 KCAL/MOL
REMARK 923 INTER-LIGAND FREE ENERGY PREDICTED BY IDOCK:   -5.42 KCAL/MOL
REMARK 924 INTRA-LIGAND FREE ENERGY PREDICTED BY IDOCK:   -0.70 KCAL/MOL
REMARK 927      BINDING AFFINITY PREDICTED BY RF-SCORE:    0.00 PKD
ROOT
HETATM    1  C   UNL     1      -9.626   7.935  68.340  1.00  0.00    -0.150 C  
HETATM    2  N   UNL     1      -8.787   7.865  67.139  1.00  0.00    -0.130 NA 
ENDROOT
BRANCH   2   3
HETATM    3  C   UNL     1      -7.781   6.789  67.257  1.00  0.00    -0.109 C  
BRANCH   3   4
HETATM    4  C   UNL     1      -8.260   5.429  66.769  1.00  0.00    -0.108 A  
HETATM    5  C   UNL     1      -8.657   4.394  67.661  1.00  0.00    -0.108 A  
HETATM    6  C   UNL     1      -8.282   5.198  65.379  1.00  0.00    -0.124 A  
HETATM    7  C   UNL     1      -8.669   4.529  69.067  1.00  0.00    -0.112 A  
HETATM    8  C   UNL     1      -8.680   3.969  64.866  1.00  0.00    -0.118 A  
HETATM    9  C   UNL     1      -9.018   3.471  69.908  1.00  0.00    -0.173 A  
HETATM   10  C   UNL     1      -9.060   2.949  65.732  1.00  0.00    -0.137 A  
HETATM   11  C   UNL     1      -9.384   2.248  69.362  1.00  0.00    -0.169 A  
HETATM   12  C   UNL     1      -9.048   3.141  67.121  1.00  0.00    -0.203 A  
HETATM   13  C   UNL     1      -9.408   2.088  67.979  1.00  0.00    -0.236 A  
ENDBRANCH   3   4
ENDBRANCH   2   3
BRANCH   2  14
HETATM   14  C   UNL     1      -8.111   9.144  66.860  1.00  0.00    -0.112 C  
BRANCH  14  15
HETATM   15  C   UNL     1      -9.039  10.238  66.374  1.00  0.00    -0.174 A  
HETATM   16  C   UNL     1     -10.050  12.441  66.602  1.00  0.00    -0.234 A  
HETATM   17  C   UNL     1      -9.698  10.098  65.152  1.00  0.00    -0.370 A  
HETATM   18  C   UNL     1     -10.508  11.122  64.652  1.00  0.00    -0.400 A  
HETATM   19  C   UNL     1      -9.240  11.414  67.107  1.00  0.00    -0.170 A  
HETATM   20  C   UNL     1     -10.688  12.327  65.352  1.00  0.00    -0.320 A  
BRANCH  20  21
HETATM   21  C   UNL     1     -11.517  13.490  64.775  1.00  0.00    -0.365 C  
HETATM   22  C   UNL     1     -12.020  13.220  63.338  1.00  0.00    -0.491 C  
HETATM   23  C   UNL     1     -12.756  13.754  65.655  1.00  0.00    -0.523 C  
HETATM   24  C   UNL     1     -10.662  14.774  64.719  1.00  0.00    -0.380 C  
ENDBRANCH  20  21
ENDBRANCH  14  15
ENDBRANCH   2  14
TORSDOF 5
ENDMDL
MODEL      169
REMARK 921   NORMALIZED FREE ENERGY PREDICTED BY IDOCK:   -3.35 KCAL/MOL
REMARK 922        TOTAL FREE ENERGY PREDICTED BY IDOCK:   -6.11 KCAL/MOL
REMARK 923 INTER-LIGAND FREE ENERGY PREDICTED BY IDOCK:   -5.84 KCAL/MOL
REMARK 924 INTRA-LIGAND FREE ENERGY PREDICTED BY IDOCK:   -0.27 KCAL/MOL
REMARK 927      BINDING AFFINITY PREDICTED BY RF-SCORE:    0.00 PKD
ROOT
HETATM    1  C   UNL     1      -7.283  10.891  68.177  1.00  0.00    -0.083 C  
HETATM    2  N   UNL     1      -8.735  11.064  68.287  1.00  0.00    -0.137 NA 
ENDROOT
BRANCH   2   3
HETATM    3  C   UNL     1      -9.424   9.756  68.318  1.00  0.00    -0.139 C  
BRANCH   3   4
HETATM    4  C   UNL     1     -10.323   9.550  69.530  1.00  0.00    -0.229 A  
HETATM    5  C   UNL     1     -10.381   8.317  70.237  1.00  0.00    -0.211 A  
HETATM    6  C   UNL     1     -11.135  10.627  69.936  1.00  0.00    -0.364 A  
HETATM    7  C   UNL     1      -9.607   7.183  69.906  1.00  0.00    -0.163 A  
HETATM    8  C   UNL     1     -12.001  10.499  71.017  1.00  0.00    -0.466 A  
HETATM    9  C   UNL     1      -9.732   5.976  70.596  1.00  0.00    -0.209 A  
HETATM   10  C   UNL     1     -12.071   9.293  71.707  1.00  0.00    -0.457 A  
HETATM   11  C   UNL     1     -10.626   5.875  71.653  1.00  0.00    -0.295 A  
HETATM   12  C   UNL     1     -11.279   8.199  71.329  1.00  0.00    -0.297 A  
HETATM   13  C   UNL     1     -11.387   6.982  72.022  1.00  0.00    -0.300 A  
ENDBRANCH   3   4
ENDBRANCH   2   3
BRANCH   2  14
HETATM   14  C   UNL     1      -9.281  11.883  67.191  1.00  0.00    -0.183 C  
BRANCH  14  15
HETATM   15  C   UNL     1      -9.018  13.366  67.342  1.00  0.00    -0.215 A  
HETATM   16  C   UNL     1      -7.879  15.237  68.405  1.00  0.00    -0.122 A  
HETATM   17  C   UNL     1      -9.616  14.271  66.464  1.00  0.00    -0.313 A  
HETATM   18  C   UNL     1      -9.335  15.639  66.542  1.00  0.00    -0.305 A  
HETATM   19  C   UNL     1      -8.160  13.865  68.330  1.00  0.00    -0.150 A  
HETATM   20  C   UNL     1      -8.445  16.154  67.498  1.00  0.00    -0.177 A  
BRANCH  20  21
HETATM   21  C   UNL     1      -8.072  17.648  67.545  1.00  0.00    -0.217 C  
HETATM   22  C   UNL     1      -7.754  18.236  66.150  1.00  0.00    -0.255 C  
HETATM   23  C   UNL     1      -9.232  18.472  68.139  1.00  0.00    -0.329 C  
HETATM   24  C   UNL     1      -6.815  17.854  68.417  1.00  0.00    -0.227 C  
ENDBRANCH  20  21
ENDBRANCH  14  15
ENDBRANCH   2  14
TORSDOF 5
ENDMDL
MODEL      170
REMARK 921   NORMALIZED FREE ENERGY PREDICTED BY IDOCK:   -3.31 KCAL/MOL
REMARK 922        TOTAL FREE ENERGY PREDICTED BY IDOCK:   -6.05 KCAL/MOL
REMARK 923 INTER-LIGAND FREE ENERGY PREDICTED BY IDOCK:   -4.83 KCAL/MOL
REMARK 924 INTRA-LIGAND FREE ENERGY PREDICTED BY IDOCK:   -1.22 KCAL/MOL
REMARK 927      BINDING AFFINITY PREDICTED BY RF-SCORE:    0.00 PKD
ROOT
HETATM    1  C   UNL     1     -12.012   5.632  72.533  1.00  0.00    -0.067 C  
HETATM    2  N   UNL     1     -11.052   6.726  72.347  1.00  0.00    -0.248 NA 
ENDROOT
BRANCH   2   3
HETATM    3  C   UNL     1      -9.909   6.592  73.276  1.00  0.00    -0.179 C  
BRANCH   3   4
HETATM    4  C   UNL     1      -8.579   7.060  72.702  1.00  0.00    -0.133 A  
HETATM    5  C   UNL     1      -8.047   6.542  71.487  1.00  0.00    -0.112 A  
HETATM    6  C   UNL     1      -7.852   8.024  73.427  1.00  0.00    -0.226 A  
HETATM    7  C   UNL     1      -8.699   5.575  70.692  1.00  0.00    -0.134 A  
HETATM    8  C   UNL     1      -6.616   8.475  72.976  1.00  0.00    -0.084 A  
HETATM    9  C   UNL     1      -8.118   5.057  69.534  1.00  0.00    -0.078 A  
HETATM   10  C   UNL     1      -6.085   7.967  71.795  1.00  0.00    -0.036 A  
HETATM   11  C   UNL     1      -6.870   5.509  69.127  1.00  0.00    -0.058 A  
HETATM   12  C   UNL     1      -6.779   7.003  71.048  1.00  0.00    -0.053 A  
HETATM   13  C   UNL     1      -6.210   6.482  69.874  1.00  0.00    -0.038 A  
ENDBRANCH   3   4
ENDBRANCH   2   3
BRANCH   2  14
HETATM   14  C   UNL     1     -11.677   8.048  72.523  1.00  0.00    -0.387 C  
BRANCH  14  15
HETATM   15  C   UNL     1     -11.455   8.992  71.359  1.00  0.00    -0.400 A  
HETATM   16  C   UNL     1     -11.744  11.152  70.274  1.00  0.00    -0.431 A  
HETATM   17  C   UNL     1     -10.642   8.602  70.294  1.00  0.00    -0.240 A  
HETATM   18  C   UNL     1     -10.368   9.481  69.241  1.00  0.00    -0.219 A  
HETATM   19  C   UNL     1     -12.022  10.272  71.330  1.00  0.00    -0.457 A  
HETATM   20  C   UNL     1     -10.893  10.784  69.214  1.00  0.00    -0.287 A  
BRANCH  20  21
HETATM   21  C   UNL     1     -10.537  11.783  68.098  1.00  0.00    -0.230 C  
HETATM   22  C   UNL     1     -11.628  11.884  67.005  1.00  0.00    -0.365 C  
HETATM   23  C   UNL     1     -10.342  13.196  68.685  1.00  0.00    -0.207 C  
HETATM   24  C   UNL     1      -9.234  11.350  67.393  1.00  0.00    -0.164 C  
ENDBRANCH  20  21
ENDBRANCH  14  15
ENDBRANCH   2  14
TORSDOF 5
ENDMDL
MODEL      171
REMARK 921   NORMALIZED FREE ENERGY PREDICTED BY IDOCK:   -3.29 KCAL/MOL
REMARK 922        TOTAL FREE ENERGY PREDICTED BY IDOCK:   -6.03 KCAL/MOL
REMARK 923 INTER-LIGAND FREE ENERGY PREDICTED BY IDOCK:   -5.29 KCAL/MOL
REMARK 924 INTRA-LIGAND FREE ENERGY PREDICTED BY IDOCK:   -0.74 KCAL/MOL
REMARK 927      BINDING AFFINITY PREDICTED BY RF-SCORE:    0.00 PKD
ROOT
HETATM    1  C   UNL     1      -6.742   9.196  70.219  1.00  0.00    -0.055 C  
HETATM    2  N   UNL     1      -8.022   8.484  70.285  1.00  0.00    -0.098 NA 
ENDROOT
BRANCH   2   3
HETATM    3  C   UNL     1      -8.276   7.973  71.649  1.00  0.00    -0.119 C  
BRANCH   3   4
HETATM    4  C   UNL     1      -9.661   7.372  71.845  1.00  0.00    -0.179 A  
HETATM    5  C   UNL     1     -10.854   8.122  71.640  1.00  0.00    -0.306 A  
HETATM    6  C   UNL     1      -9.743   6.031  72.265  1.00  0.00    -0.172 A  
HETATM    7  C   UNL     1     -10.874   9.470  71.221  1.00  0.00    -0.413 A  
HETATM    8  C   UNL     1     -10.976   5.428  72.491  1.00  0.00    -0.312 A  
HETATM    9  C   UNL     1     -12.066  10.182  71.082  1.00  0.00    -0.485 A  
HETATM   10  C   UNL     1     -12.146   6.156  72.304  1.00  0.00    -0.237 A  
HETATM   11  C   UNL     1     -13.278   9.558  71.342  1.00  0.00    -0.448 A  
HETATM   12  C   UNL     1     -12.103   7.495  71.888  1.00  0.00    -0.338 A  
HETATM   13  C   UNL     1     -13.296   8.221  71.733  1.00  0.00    -0.375 A  
ENDBRANCH   3   4
ENDBRANCH   2   3
BRANCH   2  14
HETATM   14  C   UNL     1      -8.087   7.370  69.323  1.00  0.00    -0.123 C  
BRANCH  14  15
HETATM   15  C   UNL     1      -8.179   7.812  67.877  1.00  0.00    -0.123 A  
HETATM   16  C   UNL     1      -9.288   9.021  66.078  1.00  0.00    -0.305 A  
HETATM   17  C   UNL     1      -7.152   7.495  66.987  1.00  0.00    -0.084 A  
HETATM   18  C   UNL     1      -7.182   7.949  65.665  1.00  0.00    -0.070 A  
HETATM   19  C   UNL     1      -9.261   8.564  67.403  1.00  0.00    -0.163 A  
HETATM   20  C   UNL     1      -8.238   8.740  65.182  1.00  0.00    -0.149 A  
BRANCH  20  21
HETATM   21  C   UNL     1      -8.244   9.308  63.750  1.00  0.00    -0.166 C  
HETATM   22  C   UNL     1      -8.249   8.207  62.663  1.00  0.00    -0.142 C  
HETATM   23  C   UNL     1      -9.493  10.183  63.525  1.00  0.00    -0.310 C  
HETATM   24  C   UNL     1      -6.983  10.166  63.515  1.00  0.00    -0.116 C  
ENDBRANCH  20  21
ENDBRANCH  14  15
ENDBRANCH   2  14
TORSDOF 5
ENDMDL
MODEL      172
REMARK 921   NORMALIZED FREE ENERGY PREDICTED BY IDOCK:   -3.28 KCAL/MOL
REMARK 922        TOTAL FREE ENERGY PREDICTED BY IDOCK:   -6.01 KCAL/MOL
REMARK 923 INTER-LIGAND FREE ENERGY PREDICTED BY IDOCK:   -4.57 KCAL/MOL
REMARK 924 INTRA-LIGAND FREE ENERGY PREDICTED BY IDOCK:   -1.44 KCAL/MOL
REMARK 927      BINDING AFFINITY PREDICTED BY RF-SCORE:    0.00 PKD
ROOT
HETATM    1  C   UNL     1     -13.387   7.232  71.384  1.00  0.00    -0.331 C  
HETATM    2  N   UNL     1     -11.962   7.577  71.428  1.00  0.00    -0.297 NA 
ENDROOT
BRANCH   2   3
HETATM    3  C   UNL     1     -11.518   7.820  72.817  1.00  0.00    -0.359 C  
BRANCH   3   4
HETATM    4  C   UNL     1     -10.213   7.127  73.186  1.00  0.00    -0.317 A  
HETATM    5  C   UNL     1     -10.131   5.724  73.413  1.00  0.00    -0.207 A  
HETATM    6  C   UNL     1      -9.061   7.925  73.326  1.00  0.00    -0.341 A  
HETATM    7  C   UNL     1     -11.228   4.843  73.299  1.00  0.00    -0.423 A  
HETATM    8  C   UNL     1      -7.843   7.362  73.690  1.00  0.00    -0.138 A  
HETATM    9  C   UNL     1     -11.114   3.481  73.580  1.00  0.00    -0.317 A  
HETATM   10  C   UNL     1      -7.756   5.994  73.923  1.00  0.00    -0.094 A  
HETATM   11  C   UNL     1      -9.889   2.957  73.967  1.00  0.00    -0.144 A  
HETATM   12  C   UNL     1      -8.883   5.168  73.797  1.00  0.00    -0.118 A  
HETATM   13  C   UNL     1      -8.779   3.793  74.066  1.00  0.00    -0.089 A  
ENDBRANCH   3   4
ENDBRANCH   2   3
BRANCH   2  14
HETATM   14  C   UNL     1     -11.650   8.754  70.598  1.00  0.00    -0.205 C  
BRANCH  14  15
HETATM   15  C   UNL     1     -10.291   8.694  69.933  1.00  0.00    -0.213 A  
HETATM   16  C   UNL     1      -8.078   9.614  69.505  1.00  0.00    -0.129 A  
HETATM   17  C   UNL     1      -9.935   7.573  69.180  1.00  0.00    -0.179 A  
HETATM   18  C   UNL     1      -8.662   7.466  68.612  1.00  0.00    -0.128 A  
HETATM   19  C   UNL     1      -9.356   9.725  70.073  1.00  0.00    -0.274 A  
HETATM   20  C   UNL     1      -7.695   8.471  68.777  1.00  0.00    -0.102 A  
BRANCH  20  21
HETATM   21  C   UNL     1      -6.266   8.328  68.219  1.00  0.00    -0.050 C  
HETATM   22  C   UNL     1      -5.869   9.482  67.269  1.00  0.00    -0.045 C  
HETATM   23  C   UNL     1      -5.240   8.306  69.370  1.00  0.00    -0.030 C  
HETATM   24  C   UNL     1      -6.141   7.018  67.412  1.00  0.00    -0.040 C  
ENDBRANCH  20  21
ENDBRANCH  14  15
ENDBRANCH   2  14
TORSDOF 5
ENDMDL
MODEL      173
REMARK 921   NORMALIZED FREE ENERGY PREDICTED BY IDOCK:   -3.25 KCAL/MOL
REMARK 922        TOTAL FREE ENERGY PREDICTED BY IDOCK:   -5.99 KCAL/MOL
REMARK 923 INTER-LIGAND FREE ENERGY PREDICTED BY IDOCK:   -4.89 KCAL/MOL
REMARK 924 INTRA-LIGAND FREE ENERGY PREDICTED BY IDOCK:   -1.10 KCAL/MOL
REMARK 927      BINDING AFFINITY PREDICTED BY RF-SCORE:    0.00 PKD
ROOT
HETATM    1  C   UNL     1      -9.004   4.745  65.608  1.00  0.00    -0.142 C  
HETATM    2  N   UNL     1      -9.577   4.820  66.957  1.00  0.00    -0.158 NA 
ENDROOT
BRANCH   2   3
HETATM    3  C   UNL     1     -10.746   5.725  66.986  1.00  0.00    -0.289 C  
BRANCH   3   4
HETATM    4  C   UNL     1     -10.472   7.080  67.625  1.00  0.00    -0.301 A  
HETATM    5  C   UNL     1     -10.894   7.401  68.946  1.00  0.00    -0.088 A  
HETATM    6  C   UNL     1      -9.794   8.045  66.854  1.00  0.00    -0.318 A  
HETATM    7  C   UNL     1     -11.578   6.503  69.793  1.00  0.00    -0.392 A  
HETATM    8  C   UNL     1      -9.537   9.313  67.364  1.00  0.00    -0.190 A  
HETATM    9  C   UNL     1     -12.018   6.877  71.064  1.00  0.00    -0.422 A  
HETATM   10  C   UNL     1      -9.955   9.638  68.650  1.00  0.00    -0.179 A  
HETATM   11  C   UNL     1     -11.768   8.159  71.531  1.00  0.00    -0.325 A  
HETATM   12  C   UNL     1     -10.634   8.704  69.445  1.00  0.00    -0.207 A  
HETATM   13  C   UNL     1     -11.073   9.063  70.731  1.00  0.00    -0.328 A  
ENDBRANCH   3   4
ENDBRANCH   2   3
BRANCH   2  14
HETATM   14  C   UNL     1      -8.588   5.261  67.956  1.00  0.00    -0.103 C  
BRANCH  14  15
HETATM   15  C   UNL     1      -8.797   4.664  69.332  1.00  0.00    -0.124 A  
HETATM   16  C   UNL     1      -9.534   2.858  70.789  1.00  0.00    -0.223 A  
HETATM   17  C   UNL     1      -8.340   5.345  70.461  1.00  0.00    -0.111 A  
HETATM   18  C   UNL     1      -8.462   4.783  71.736  1.00  0.00    -0.120 A  
HETATM   19  C   UNL     1      -9.416   3.421  69.510  1.00  0.00    -0.219 A  
HETATM   20  C   UNL     1      -9.041   3.519  71.931  1.00  0.00    -0.163 A  
BRANCH  20  21
HETATM   21  C   UNL     1      -9.112   2.859  73.321  1.00  0.00    -0.095 C  
HETATM   22  C   UNL     1      -8.685   3.809  74.464  1.00  0.00    -0.093 C  
HETATM   23  C   UNL     1     -10.552   2.395  73.621  1.00  0.00    -0.245 C  
HETATM   24  C   UNL     1      -8.171   1.637  73.377  1.00  0.00    -0.049 C  
ENDBRANCH  20  21
ENDBRANCH  14  15
ENDBRANCH   2  14
TORSDOF 5
ENDMDL
MODEL      174
REMARK 921   NORMALIZED FREE ENERGY PREDICTED BY IDOCK:   -3.24 KCAL/MOL
REMARK 922        TOTAL FREE ENERGY PREDICTED BY IDOCK:   -5.96 KCAL/MOL
REMARK 923 INTER-LIGAND FREE ENERGY PREDICTED BY IDOCK:   -5.25 KCAL/MOL
REMARK 924 INTRA-LIGAND FREE ENERGY PREDICTED BY IDOCK:   -0.71 KCAL/MOL
REMARK 927      BINDING AFFINITY PREDICTED BY RF-SCORE:    0.00 PKD
ROOT
HETATM    1  C   UNL     1      -7.856   8.296  65.563  1.00  0.00    -0.107 C  
HETATM    2  N   UNL     1      -8.485   9.392  66.306  1.00  0.00    -0.124 NA 
ENDROOT
BRANCH   2   3
HETATM    3  C   UNL     1      -8.307  10.681  65.603  1.00  0.00    -0.162 C  
BRANCH   3   4
HETATM    4  C   UNL     1      -9.610  11.380  65.240  1.00  0.00    -0.256 A  
HETATM    5  C   UNL     1     -10.190  12.389  66.060  1.00  0.00    -0.267 A  
HETATM    6  C   UNL     1     -10.262  10.983  64.056  1.00  0.00    -0.420 A  
HETATM    7  C   UNL     1      -9.613  12.853  67.262  1.00  0.00    -0.220 A  
HETATM    8  C   UNL     1     -11.471  11.558  63.679  1.00  0.00    -0.374 A  
HETATM    9  C   UNL     1     -10.241  13.809  68.062  1.00  0.00    -0.248 A  
HETATM   10  C   UNL     1     -12.049  12.538  64.480  1.00  0.00    -0.496 A  
HETATM   11  C   UNL     1     -11.461  14.343  67.670  1.00  0.00    -0.369 A  
HETATM   12  C   UNL     1     -11.430  12.956  65.667  1.00  0.00    -0.368 A  
HETATM   13  C   UNL     1     -12.046  13.926  66.476  1.00  0.00    -0.484 A  
ENDBRANCH   3   4
ENDBRANCH   2   3
BRANCH   2  14
HETATM   14  C   UNL     1      -7.961   9.505  67.679  1.00  0.00    -0.106 C  
BRANCH  14  15
HETATM   15  C   UNL     1      -8.262   8.304  68.552  1.00  0.00    -0.131 A  
HETATM   16  C   UNL     1      -9.812   6.918  69.818  1.00  0.00    -0.177 A  
HETATM   17  C   UNL     1      -7.256   7.378  68.831  1.00  0.00    -0.089 A  
HETATM   18  C   UNL     1      -7.527   6.228  69.579  1.00  0.00    -0.093 A  
HETATM   19  C   UNL     1      -9.542   8.073  69.071  1.00  0.00    -0.156 A  
HETATM   20  C   UNL     1      -8.814   5.957  70.072  1.00  0.00    -0.139 A  
BRANCH  20  21
HETATM   21  C   UNL     1      -9.140   4.657  70.833  1.00  0.00    -0.181 C  
HETATM   22  C   UNL     1      -9.046   3.396  69.943  1.00  0.00    -0.197 C  
HETATM   23  C   UNL     1      -8.162   4.465  72.009  1.00  0.00    -0.100 C  
HETATM   24  C   UNL     1     -10.580   4.712  71.384  1.00  0.00     0.013 C  
ENDBRANCH  20  21
ENDBRANCH  14  15
ENDBRANCH   2  14
TORSDOF 5
ENDMDL
MODEL      175
REMARK 921   NORMALIZED FREE ENERGY PREDICTED BY IDOCK:   -3.23 KCAL/MOL
REMARK 922        TOTAL FREE ENERGY PREDICTED BY IDOCK:   -5.96 KCAL/MOL
REMARK 923 INTER-LIGAND FREE ENERGY PREDICTED BY IDOCK:   -5.69 KCAL/MOL
REMARK 924 INTRA-LIGAND FREE ENERGY PREDICTED BY IDOCK:   -0.27 KCAL/MOL
REMARK 927      BINDING AFFINITY PREDICTED BY RF-SCORE:    0.00 PKD
ROOT
HETATM    1  C   UNL     1      -8.599  11.561  65.923  1.00  0.00     0.009 C  
HETATM    2  N   UNL     1      -8.712  11.247  67.351  1.00  0.00    -0.137 NA 
ENDROOT
BRANCH   2   3
HETATM    3  C   UNL     1     -10.128  11.181  67.770  1.00  0.00    -0.178 C  
BRANCH   3   4
HETATM    4  C   UNL     1     -10.424  10.105  68.807  1.00  0.00    -0.223 A  
HETATM    5  C   UNL     1     -10.607   8.737  68.457  1.00  0.00    -0.171 A  
HETATM    6  C   UNL     1     -10.540  10.503  70.153  1.00  0.00    -0.163 A  
HETATM    7  C   UNL     1     -10.512   8.243  67.138  1.00  0.00    -0.386 A  
HETATM    8  C   UNL     1     -10.838   9.578  71.147  1.00  0.00    -0.425 A  
HETATM    9  C   UNL     1     -10.749   6.902  66.833  1.00  0.00    -0.386 A  
HETATM   10  C   UNL     1     -11.028   8.241  70.813  1.00  0.00    -0.266 A  
HETATM   11  C   UNL     1     -11.072   6.010  67.847  1.00  0.00    -0.220 A  
HETATM   12  C   UNL     1     -10.924   7.809  69.482  1.00  0.00    -0.092 A  
HETATM   13  C   UNL     1     -11.149   6.459  69.163  1.00  0.00    -0.428 A  
ENDBRANCH   3   4
ENDBRANCH   2   3
BRANCH   2  14
HETATM   14  C   UNL     1      -7.995  12.221  68.192  1.00  0.00    -0.155 C  
BRANCH  14  15
HETATM   15  C   UNL     1      -8.380  13.662  67.928  1.00  0.00    -0.174 A  
HETATM   16  C   UNL     1      -7.891  15.878  67.045  1.00  0.00    -0.267 A  
HETATM   17  C   UNL     1      -9.666  14.106  68.241  1.00  0.00    -0.227 A  
HETATM   18  C   UNL     1     -10.065  15.413  67.945  1.00  0.00    -0.226 A  
HETATM   19  C   UNL     1      -7.487  14.568  67.344  1.00  0.00    -0.194 A  
HETATM   20  C   UNL     1      -9.198  16.324  67.321  1.00  0.00    -0.217 A  
BRANCH  20  21
HETATM   21  C   UNL     1      -9.652  17.741  66.923  1.00  0.00    -0.288 C  
HETATM   22  C   UNL     1      -8.479  18.661  66.514  1.00  0.00    -0.302 C  
HETATM   23  C   UNL     1     -10.625  17.677  65.728  1.00  0.00    -0.177 C  
HETATM   24  C   UNL     1     -10.365  18.423  68.111  1.00  0.00    -0.393 C  
ENDBRANCH  20  21
ENDBRANCH  14  15
ENDBRANCH   2  14
TORSDOF 5
ENDMDL
MODEL      176
REMARK 921   NORMALIZED FREE ENERGY PREDICTED BY IDOCK:   -3.23 KCAL/MOL
REMARK 922        TOTAL FREE ENERGY PREDICTED BY IDOCK:   -5.95 KCAL/MOL
REMARK 923 INTER-LIGAND FREE ENERGY PREDICTED BY IDOCK:   -5.95 KCAL/MOL
REMARK 924 INTRA-LIGAND FREE ENERGY PREDICTED BY IDOCK:   -0.01 KCAL/MOL
REMARK 927      BINDING AFFINITY PREDICTED BY RF-SCORE:    0.00 PKD
ROOT
HETATM    1  C   UNL     1     -11.549  10.960  68.059  1.00  0.00    -0.215 C  
HETATM    2  N   UNL     1     -10.278  11.285  68.716  1.00  0.00    -0.203 NA 
ENDROOT
BRANCH   2   3
HETATM    3  C   UNL     1      -9.259  11.694  67.726  1.00  0.00    -0.178 C  
BRANCH   3   4
HETATM    4  C   UNL     1      -9.681  11.498  66.276  1.00  0.00    -0.240 A  
HETATM    5  C   UNL     1     -10.542  12.409  65.601  1.00  0.00    -0.297 A  
HETATM    6  C   UNL     1      -9.210  10.355  65.603  1.00  0.00    -0.220 A  
HETATM    7  C   UNL     1     -11.065  13.581  66.191  1.00  0.00    -0.299 A  
HETATM    8  C   UNL     1      -9.580  10.098  64.287  1.00  0.00    -0.354 A  
HETATM    9  C   UNL     1     -11.947  14.420  65.509  1.00  0.00    -0.358 A  
HETATM   10  C   UNL     1     -10.428  10.978  63.623  1.00  0.00    -0.388 A  
HETATM   11  C   UNL     1     -12.317  14.120  64.205  1.00  0.00    -0.398 A  
HETATM   12  C   UNL     1     -10.920  12.126  64.263  1.00  0.00    -0.391 A  
HETATM   13  C   UNL     1     -11.799  12.986  63.584  1.00  0.00    -0.580 A  
ENDBRANCH   3   4
ENDBRANCH   2   3
BRANCH   2  14
HETATM   14  C   UNL     1      -9.763  10.160  69.516  1.00  0.00    -0.229 C  
BRANCH  14  15
HETATM   15  C   UNL     1      -9.591   8.876  68.731  1.00  0.00    -0.159 A  
HETATM   16  C   UNL     1     -10.487   7.060  67.379  1.00  0.00    -0.343 A  
HETATM   17  C   UNL     1      -8.314   8.346  68.538  1.00  0.00    -0.131 A  
HETATM   18  C   UNL     1      -8.123   7.199  67.761  1.00  0.00    -0.115 A  
HETATM   19  C   UNL     1     -10.681   8.209  68.160  1.00  0.00    -0.090 A  
HETATM   20  C   UNL     1      -9.200   6.540  67.144  1.00  0.00    -0.134 A  
BRANCH  20  21
HETATM   21  C   UNL     1      -8.992   5.321  66.226  1.00  0.00    -0.133 C  
HETATM   22  C   UNL     1     -10.283   4.496  66.013  1.00  0.00    -0.288 C  
HETATM   23  C   UNL     1      -8.500   5.774  64.836  1.00  0.00    -0.103 C  
HETATM   24  C   UNL     1      -7.945   4.367  66.840  1.00  0.00    -0.101 C  
ENDBRANCH  20  21
ENDBRANCH  14  15
ENDBRANCH   2  14
TORSDOF 5
ENDMDL
MODEL      177
REMARK 921   NORMALIZED FREE ENERGY PREDICTED BY IDOCK:   -3.22 KCAL/MOL
REMARK 922        TOTAL FREE ENERGY PREDICTED BY IDOCK:   -5.94 KCAL/MOL
REMARK 923 INTER-LIGAND FREE ENERGY PREDICTED BY IDOCK:   -5.34 KCAL/MOL
REMARK 924 INTRA-LIGAND FREE ENERGY PREDICTED BY IDOCK:   -0.60 KCAL/MOL
REMARK 927      BINDING AFFINITY PREDICTED BY RF-SCORE:    0.00 PKD
ROOT
HETATM    1  C   UNL     1      -9.603  10.689  63.075  1.00  0.00    -0.348 C  
HETATM    2  N   UNL     1      -9.929  10.466  64.488  1.00  0.00    -0.343 NA 
ENDROOT
BRANCH   2   3
HETATM    3  C   UNL     1     -11.158  11.194  64.870  1.00  0.00    -0.047 C  
BRANCH   3   4
HETATM    4  C   UNL     1     -10.912  12.600  65.400  1.00  0.00    -0.320 A  
HETATM    5  C   UNL     1     -11.089  12.942  66.770  1.00  0.00    -0.315 A  
HETATM    6  C   UNL     1     -10.516  13.590  64.480  1.00  0.00    -0.426 A  
HETATM    7  C   UNL     1     -11.483  12.021  67.766  1.00  0.00    -0.394 A  
HETATM    8  C   UNL     1     -10.303  14.902  64.890  1.00  0.00    -0.347 A  
HETATM    9  C   UNL     1     -11.695  12.410  69.089  1.00  0.00    -0.376 A  
HETATM   10  C   UNL     1     -10.484  15.246  66.226  1.00  0.00    -0.313 A  
HETATM   11  C   UNL     1     -11.500  13.733  69.459  1.00  0.00    -0.327 A  
HETATM   12  C   UNL     1     -10.880  14.287  67.170  1.00  0.00    -0.296 A  
HETATM   13  C   UNL     1     -11.086  14.663  68.508  1.00  0.00    -0.273 A  
ENDBRANCH   3   4
ENDBRANCH   2   3
BRANCH   2  14
HETATM   14  C   UNL     1      -8.825  10.860  65.381  1.00  0.00    -0.180 C  
BRANCH  14  15
HETATM   15  C   UNL     1      -8.481   9.820  66.427  1.00  0.00    -0.128 A  
HETATM   16  C   UNL     1      -6.957   8.189  67.399  1.00  0.00    -0.075 A  
HETATM   17  C   UNL     1      -9.356   9.587  67.489  1.00  0.00    -0.146 A  
HETATM   18  C   UNL     1      -9.029   8.680  68.502  1.00  0.00    -0.139 A  
HETATM   19  C   UNL     1      -7.284   9.096  66.380  1.00  0.00    -0.091 A  
HETATM   20  C   UNL     1      -7.814   7.975  68.495  1.00  0.00    -0.115 A  
BRANCH  20  21
HETATM   21  C   UNL     1      -7.412   7.031  69.645  1.00  0.00    -0.098 C  
HETATM   22  C   UNL     1      -7.068   5.603  69.163  1.00  0.00    -0.065 C  
HETATM   23  C   UNL     1      -6.172   7.580  70.380  1.00  0.00    -0.034 C  
HETATM   24  C   UNL     1      -8.573   6.899  70.653  1.00  0.00    -0.141 C  
ENDBRANCH  20  21
ENDBRANCH  14  15
ENDBRANCH   2  14
TORSDOF 5
ENDMDL
MODEL      178
REMARK 921   NORMALIZED FREE ENERGY PREDICTED BY IDOCK:   -3.18 KCAL/MOL
REMARK 922        TOTAL FREE ENERGY PREDICTED BY IDOCK:   -5.89 KCAL/MOL
REMARK 923 INTER-LIGAND FREE ENERGY PREDICTED BY IDOCK:   -5.62 KCAL/MOL
REMARK 924 INTRA-LIGAND FREE ENERGY PREDICTED BY IDOCK:   -0.26 KCAL/MOL
REMARK 927      BINDING AFFINITY PREDICTED BY RF-SCORE:    0.00 PKD
ROOT
HETATM    1  C   UNL     1      -7.330  10.081  66.630  1.00  0.00    -0.103 C  
HETATM    2  N   UNL     1      -8.426   9.595  67.474  1.00  0.00    -0.125 NA 
ENDROOT
BRANCH   2   3
HETATM    3  C   UNL     1      -9.687   9.507  66.708  1.00  0.00    -0.197 C  
BRANCH   3   4
HETATM    4  C   UNL     1      -9.620  10.129  65.319  1.00  0.00    -0.338 A  
HETATM    5  C   UNL     1     -10.446  11.221  64.931  1.00  0.00    -0.375 A  
HETATM    6  C   UNL     1      -8.715   9.575  64.393  1.00  0.00    -0.235 A  
HETATM    7  C   UNL     1     -11.381  11.843  65.787  1.00  0.00    -0.354 A  
HETATM    8  C   UNL     1      -8.622  10.075  63.099  1.00  0.00    -0.197 A  
HETATM    9  C   UNL     1     -12.208  12.879  65.349  1.00  0.00    -0.528 A  
HETATM   10  C   UNL     1      -9.433  11.135  62.708  1.00  0.00    -0.357 A  
HETATM   11  C   UNL     1     -12.108  13.336  64.042  1.00  0.00    -0.508 A  
HETATM   12  C   UNL     1     -10.348  11.711  63.603  1.00  0.00    -0.466 A  
HETATM   13  C   UNL     1     -11.178  12.762  63.178  1.00  0.00     0.084 A  
ENDBRANCH   3   4
ENDBRANCH   2   3
BRANCH   2  14
HETATM   14  C   UNL     1      -8.630  10.443  68.662  1.00  0.00    -0.133 C  
BRANCH  14  15
HETATM   15  C   UNL     1      -8.965  11.884  68.338  1.00  0.00    -0.163 A  
HETATM   16  C   UNL     1     -10.393  13.845  68.545  1.00  0.00    -0.244 A  
HETATM   17  C   UNL     1      -8.075  12.651  67.584  1.00  0.00    -0.173 A  
HETATM   18  C   UNL     1      -8.331  14.002  67.329  1.00  0.00    -0.209 A  
HETATM   19  C   UNL     1     -10.139  12.489  68.800  1.00  0.00    -0.061 A  
HETATM   20  C   UNL     1      -9.483  14.638  67.820  1.00  0.00    -0.205 A  
BRANCH  20  21
HETATM   21  C   UNL     1      -9.737  16.143  67.607  1.00  0.00    -0.233 C  
HETATM   22  C   UNL     1      -8.545  16.870  66.941  1.00  0.00    -0.241 C  
HETATM   23  C   UNL     1     -10.969  16.357  66.706  1.00  0.00     0.011 C  
HETATM   24  C   UNL     1      -9.984  16.836  68.965  1.00  0.00    -0.272 C  
ENDBRANCH  20  21
ENDBRANCH  14  15
ENDBRANCH   2  14
TORSDOF 5
ENDMDL
MODEL      179
REMARK 921   NORMALIZED FREE ENERGY PREDICTED BY IDOCK:   -3.17 KCAL/MOL
REMARK 922        TOTAL FREE ENERGY PREDICTED BY IDOCK:   -5.88 KCAL/MOL
REMARK 923 INTER-LIGAND FREE ENERGY PREDICTED BY IDOCK:   -4.97 KCAL/MOL
REMARK 924 INTRA-LIGAND FREE ENERGY PREDICTED BY IDOCK:   -0.91 KCAL/MOL
REMARK 927      BINDING AFFINITY PREDICTED BY RF-SCORE:    0.00 PKD
ROOT
HETATM    1  C   UNL     1      -7.324   6.807  68.269  1.00  0.00    -0.093 C  
HETATM    2  N   UNL     1      -8.425   7.775  68.313  1.00  0.00    -0.124 NA 
ENDROOT
BRANCH   2   3
HETATM    3  C   UNL     1      -9.700   7.112  68.662  1.00  0.00    -0.141 C  
BRANCH   3   4
HETATM    4  C   UNL     1     -10.311   7.586  69.974  1.00  0.00    -0.222 A  
HETATM    5  C   UNL     1     -10.517   6.714  71.080  1.00  0.00    -0.247 A  
HETATM    6  C   UNL     1     -10.702   8.936  70.068  1.00  0.00    -0.241 A  
HETATM    7  C   UNL     1     -10.159   5.348  71.082  1.00  0.00    -0.276 A  
HETATM    8  C   UNL     1     -11.294   9.429  71.226  1.00  0.00    -0.436 A  
HETATM    9  C   UNL     1     -10.425   4.516  72.170  1.00  0.00    -0.192 A  
HETATM   10  C   UNL     1     -11.508   8.581  72.308  1.00  0.00    -0.445 A  
HETATM   11  C   UNL     1     -11.042   5.035  73.300  1.00  0.00    -0.406 A  
HETATM   12  C   UNL     1     -11.134   7.230  72.249  1.00  0.00    -0.298 A  
HETATM   13  C   UNL     1     -11.385   6.384  73.343  1.00  0.00     0.220 A  
ENDBRANCH   3   4
ENDBRANCH   2   3
BRANCH   2  14
HETATM   14  C   UNL     1      -8.579   8.497  67.038  1.00  0.00    -0.121 C  
BRANCH  14  15
HETATM   15  C   UNL     1      -8.646  10.003  67.189  1.00  0.00    -0.128 A  
HETATM   16  C   UNL     1      -7.600  12.201  67.169  1.00  0.00    -0.132 A  
HETATM   17  C   UNL     1      -9.877  10.626  67.399  1.00  0.00    -0.198 A  
HETATM   18  C   UNL     1      -9.972  12.019  67.476  1.00  0.00    -0.199 A  
HETATM   19  C   UNL     1      -7.502  10.804  67.095  1.00  0.00    -0.102 A  
HETATM   20  C   UNL     1      -8.842  12.843  67.341  1.00  0.00    -0.199 A  
BRANCH  20  21
HETATM   21  C   UNL     1      -8.946  14.380  67.349  1.00  0.00    -0.204 C  
HETATM   22  C   UNL     1      -9.573  14.950  66.055  1.00  0.00    -0.346 C  
HETATM   23  C   UNL     1      -9.817  14.852  68.530  1.00  0.00    -0.217 C  
HETATM   24  C   UNL     1      -7.542  15.006  67.482  1.00  0.00    -0.216 C  
ENDBRANCH  20  21
ENDBRANCH  14  15
ENDBRANCH   2  14
TORSDOF 5
ENDMDL
MODEL      180
REMARK 921   NORMALIZED FREE ENERGY PREDICTED BY IDOCK:   -3.17 KCAL/MOL
REMARK 922        TOTAL FREE ENERGY PREDICTED BY IDOCK:   -5.87 KCAL/MOL
REMARK 923 INTER-LIGAND FREE ENERGY PREDICTED BY IDOCK:   -6.21 KCAL/MOL
REMARK 924 INTRA-LIGAND FREE ENERGY PREDICTED BY IDOCK:    0.34 KCAL/MOL
REMARK 927      BINDING AFFINITY PREDICTED BY RF-SCORE:    0.00 PKD
ROOT
HETATM    1  C   UNL     1      -7.248  12.030  67.020  1.00  0.00    -0.096 C  
HETATM    2  N   UNL     1      -8.636  12.487  67.140  1.00  0.00    -0.195 NA 
ENDROOT
BRANCH   2   3
HETATM    3  C   UNL     1      -8.730  13.952  66.964  1.00  0.00    -0.200 C  
BRANCH   3   4
HETATM    4  C   UNL     1      -9.824  14.397  66.002  1.00  0.00    -0.342 A  
HETATM    5  C   UNL     1     -10.514  13.485  65.155  1.00  0.00    -0.375 A  
HETATM    6  C   UNL     1     -10.133  15.770  65.948  1.00  0.00    -0.381 A  
HETATM    7  C   UNL     1     -10.274  12.093  65.137  1.00  0.00    -0.308 A  
HETATM    8  C   UNL     1     -11.100  16.249  65.072  1.00  0.00    -0.262 A  
HETATM    9  C   UNL     1     -10.939  11.241  64.254  1.00  0.00    -0.358 A  
HETATM   10  C   UNL     1     -11.773  15.366  64.234  1.00  0.00    -0.212 A  
HETATM   11  C   UNL     1     -11.879  11.757  63.373  1.00  0.00    -0.435 A  
HETATM   12  C   UNL     1     -11.489  13.992  64.258  1.00  0.00    -0.314 A  
HETATM   13  C   UNL     1     -12.159  13.122  63.382  1.00  0.00    -0.558 A  
ENDBRANCH   3   4
ENDBRANCH   2   3
BRANCH   2  14
HETATM   14  C   UNL     1      -9.235  12.107  68.432  1.00  0.00    -0.154 C  
BRANCH  14  15
HETATM   15  C   UNL     1      -9.349  10.611  68.640  1.00  0.00    -0.177 A  
HETATM   16  C   UNL     1      -9.486   8.659  70.089  1.00  0.00    -0.172 A  
HETATM   17  C   UNL     1      -9.529   9.769  67.542  1.00  0.00    -0.170 A  
HETATM   18  C   UNL     1      -9.703   8.392  67.715  1.00  0.00    -0.199 A  
HETATM   19  C   UNL     1      -9.308  10.040  69.917  1.00  0.00    -0.207 A  
HETATM   20  C   UNL     1      -9.708   7.805  68.992  1.00  0.00    -0.157 A  
BRANCH  20  21
HETATM   21  C   UNL     1      -9.974   6.302  69.197  1.00  0.00    -0.181 C  
HETATM   22  C   UNL     1     -10.904   6.010  70.398  1.00  0.00    -0.386 C  
HETATM   23  C   UNL     1     -10.638   5.698  67.943  1.00  0.00    -0.266 C  
HETATM   24  C   UNL     1      -8.647   5.561  69.466  1.00  0.00    -0.105 C  
ENDBRANCH  20  21
ENDBRANCH  14  15
ENDBRANCH   2  14
TORSDOF 5
ENDMDL
MODEL      181
REMARK 921   NORMALIZED FREE ENERGY PREDICTED BY IDOCK:   -3.10 KCAL/MOL
REMARK 922        TOTAL FREE ENERGY PREDICTED BY IDOCK:   -5.79 KCAL/MOL
REMARK 923 INTER-LIGAND FREE ENERGY PREDICTED BY IDOCK:   -5.42 KCAL/MOL
REMARK 924 INTRA-LIGAND FREE ENERGY PREDICTED BY IDOCK:   -0.37 KCAL/MOL
REMARK 927      BINDING AFFINITY PREDICTED BY RF-SCORE:    0.00 PKD
ROOT
HETATM    1  C   UNL     1      -9.702  12.615  68.347  1.00  0.00    -0.187 C  
HETATM    2  N   UNL     1     -10.859  12.567  67.447  1.00  0.00    -0.234 NA 
ENDROOT
BRANCH   2   3
HETATM    3  C   UNL     1     -12.038  13.211  68.064  1.00  0.00    -0.197 C  
BRANCH   3   4
HETATM    4  C   UNL     1     -11.718  14.471  68.857  1.00  0.00    -0.354 A  
HETATM    5  C   UNL     1     -11.276  15.673  68.235  1.00  0.00    -0.353 A  
HETATM    6  C   UNL     1     -11.849  14.418  70.258  1.00  0.00    -0.382 A  
HETATM    7  C   UNL     1     -11.114  15.824  66.840  1.00  0.00    -0.133 A  
HETATM    8  C   UNL     1     -11.545  15.523  71.046  1.00  0.00    -0.424 A  
HETATM    9  C   UNL     1     -10.629  17.005  66.277  1.00  0.00    -0.185 A  
HETATM   10  C   UNL     1     -11.103  16.698  70.447  1.00  0.00    -0.010 A  
HETATM   11  C   UNL     1     -10.309  18.080  67.095  1.00  0.00    -0.382 A  
HETATM   12  C   UNL     1     -10.958  16.787  69.055  1.00  0.00    -0.239 A  
HETATM   13  C   UNL     1     -10.482  17.974  68.473  1.00  0.00    -0.291 A  
ENDBRANCH   3   4
ENDBRANCH   2   3
BRANCH   2  14
HETATM   14  C   UNL     1     -11.200  11.188  67.055  1.00  0.00    -0.219 C  
BRANCH  14  15
HETATM   15  C   UNL     1     -10.158  10.521  66.181  1.00  0.00    -0.306 A  
HETATM   16  C   UNL     1      -8.601   8.708  65.716  1.00  0.00    -0.184 A  
HETATM   17  C   UNL     1      -9.845  11.067  64.935  1.00  0.00    -0.327 A  
HETATM   18  C   UNL     1      -8.935  10.433  64.083  1.00  0.00    -0.251 A  
HETATM   19  C   UNL     1      -9.511   9.344  66.574  1.00  0.00    -0.246 A  
HETATM   20  C   UNL     1      -8.308   9.229  64.441  1.00  0.00    -0.175 A  
BRANCH  20  21
HETATM   21  C   UNL     1      -7.362   8.484  63.479  1.00  0.00    -0.106 C  
HETATM   22  C   UNL     1      -8.087   7.423  62.618  1.00  0.00    -0.088 C  
HETATM   23  C   UNL     1      -6.688   9.479  62.512  1.00  0.00    -0.096 C  
HETATM   24  C   UNL     1      -6.268   7.745  64.277  1.00  0.00    -0.053 C  
ENDBRANCH  20  21
ENDBRANCH  14  15
ENDBRANCH   2  14
TORSDOF 5
ENDMDL
MODEL      182
REMARK 921   NORMALIZED FREE ENERGY PREDICTED BY IDOCK:   -3.08 KCAL/MOL
REMARK 922        TOTAL FREE ENERGY PREDICTED BY IDOCK:   -5.76 KCAL/MOL
REMARK 923 INTER-LIGAND FREE ENERGY PREDICTED BY IDOCK:   -5.12 KCAL/MOL
REMARK 924 INTRA-LIGAND FREE ENERGY PREDICTED BY IDOCK:   -0.65 KCAL/MOL
REMARK 927      BINDING AFFINITY PREDICTED BY RF-SCORE:    0.00 PKD
ROOT
HETATM    1  C   UNL     1      -7.485  10.902  69.301  1.00  0.00    -0.124 C  
HETATM    2  N   UNL     1      -8.155   9.685  69.771  1.00  0.00    -0.136 NA 
ENDROOT
BRANCH   2   3
HETATM    3  C   UNL     1      -7.443   8.474  69.309  1.00  0.00    -0.082 C  
BRANCH   3   4
HETATM    4  C   UNL     1      -8.123   7.166  69.686  1.00  0.00    -0.129 A  
HETATM    5  C   UNL     1      -8.707   6.301  68.717  1.00  0.00    -0.121 A  
HETATM    6  C   UNL     1      -8.187   6.827  71.052  1.00  0.00    -0.119 A  
HETATM    7  C   UNL     1      -8.694   6.554  67.328  1.00  0.00    -0.110 A  
HETATM    8  C   UNL     1      -8.820   5.661  71.469  1.00  0.00    -0.141 A  
HETATM    9  C   UNL     1      -9.323   5.705  66.417  1.00  0.00    -0.165 A  
HETATM   10  C   UNL     1      -9.402   4.816  70.529  1.00  0.00    -0.219 A  
HETATM   11  C   UNL     1      -9.969   4.563  66.870  1.00  0.00    -0.229 A  
HETATM   12  C   UNL     1      -9.360   5.123  69.161  1.00  0.00    -0.171 A  
HETATM   13  C   UNL     1      -9.979   4.270  68.232  1.00  0.00    -0.034 A  
ENDBRANCH   3   4
ENDBRANCH   2   3
BRANCH   2  14
HETATM   14  C   UNL     1      -9.562   9.623  69.339  1.00  0.00    -0.191 C  
BRANCH  14  15
HETATM   15  C   UNL     1      -9.857  10.428  68.090  1.00  0.00    -0.168 A  
HETATM   16  C   UNL     1      -9.932  10.664  65.668  1.00  0.00    -0.327 A  
HETATM   17  C   UNL     1     -10.440  11.691  68.199  1.00  0.00    -0.217 A  
HETATM   18  C   UNL     1     -10.782  12.424  67.058  1.00  0.00    -0.268 A  
HETATM   19  C   UNL     1      -9.586   9.928  66.810  1.00  0.00    -0.231 A  
HETATM   20  C   UNL     1     -10.558  11.922  65.765  1.00  0.00    -0.309 A  
BRANCH  20  21
HETATM   21  C   UNL     1     -10.999  12.688  64.504  1.00  0.00    -0.365 C  
HETATM   22  C   UNL     1     -10.313  12.179  63.215  1.00  0.00    -0.352 C  
HETATM   23  C   UNL     1     -12.521  12.554  64.300  1.00  0.00    -0.520 C  
HETATM   24  C   UNL     1     -10.643  14.184  64.641  1.00  0.00    -0.391 C  
ENDBRANCH  20  21
ENDBRANCH  14  15
ENDBRANCH   2  14
TORSDOF 5
ENDMDL
MODEL      183
REMARK 921   NORMALIZED FREE ENERGY PREDICTED BY IDOCK:   -3.08 KCAL/MOL
REMARK 922        TOTAL FREE ENERGY PREDICTED BY IDOCK:   -5.76 KCAL/MOL
REMARK 923 INTER-LIGAND FREE ENERGY PREDICTED BY IDOCK:   -5.21 KCAL/MOL
REMARK 924 INTRA-LIGAND FREE ENERGY PREDICTED BY IDOCK:   -0.55 KCAL/MOL
REMARK 927      BINDING AFFINITY PREDICTED BY RF-SCORE:    0.00 PKD
ROOT
HETATM    1  C   UNL     1     -11.855  11.272  69.948  1.00  0.00    -0.360 C  
HETATM    2  N   UNL     1     -10.609  10.566  69.631  1.00  0.00    -0.247 NA 
ENDROOT
BRANCH   2   3
HETATM    3  C   UNL     1      -9.714  11.410  68.811  1.00  0.00    -0.145 C  
BRANCH   3   4
HETATM    4  C   UNL     1      -9.669  11.027  67.338  1.00  0.00    -0.189 A  
HETATM    5  C   UNL     1      -8.646  10.200  66.794  1.00  0.00    -0.129 A  
HETATM    6  C   UNL     1     -10.674  11.539  66.494  1.00  0.00    -0.318 A  
HETATM    7  C   UNL     1      -7.597   9.642  67.558  1.00  0.00    -0.095 A  
HETATM    8  C   UNL     1     -10.677  11.253  65.133  1.00  0.00    -0.312 A  
HETATM    9  C   UNL     1      -6.585   8.878  66.975  1.00  0.00    -0.061 A  
HETATM   10  C   UNL     1      -9.675  10.454  64.592  1.00  0.00    -0.392 A  
HETATM   11  C   UNL     1      -6.604   8.635  65.609  1.00  0.00    -0.060 A  
HETATM   12  C   UNL     1      -8.656   9.930  65.402  1.00  0.00    -0.164 A  
HETATM   13  C   UNL     1      -7.637   9.149  64.830  1.00  0.00    -0.108 A  
ENDBRANCH   3   4
ENDBRANCH   2   3
BRANCH   2  14
HETATM   14  C   UNL     1     -10.855   9.290  68.936  1.00  0.00    -0.099 C  
BRANCH  14  15
HETATM   15  C   UNL     1     -10.739   8.072  69.828  1.00  0.00    -0.231 A  
HETATM   16  C   UNL     1     -10.840   5.665  70.183  1.00  0.00    -0.356 A  
HETATM   17  C   UNL     1     -10.311   8.216  71.148  1.00  0.00    -0.237 A  
HETATM   18  C   UNL     1     -10.133   7.099  71.971  1.00  0.00    -0.194 A  
HETATM   19  C   UNL     1     -11.022   6.784  69.357  1.00  0.00    -0.321 A  
HETATM   20  C   UNL     1     -10.371   5.796  71.504  1.00  0.00    -0.274 A  
BRANCH  20  21
HETATM   21  C   UNL     1     -10.105   4.555  72.378  1.00  0.00    -0.243 C  
HETATM   22  C   UNL     1     -11.278   4.223  73.330  1.00  0.00    -0.361 C  
HETATM   23  C   UNL     1      -9.867   3.316  71.492  1.00  0.00    -0.206 C  
HETATM   24  C   UNL     1      -8.860   4.785  73.261  1.00  0.00    -0.107 C  
ENDBRANCH  20  21
ENDBRANCH  14  15
ENDBRANCH   2  14
TORSDOF 5
ENDMDL
MODEL      184
REMARK 921   NORMALIZED FREE ENERGY PREDICTED BY IDOCK:   -3.07 KCAL/MOL
REMARK 922        TOTAL FREE ENERGY PREDICTED BY IDOCK:   -5.75 KCAL/MOL
REMARK 923 INTER-LIGAND FREE ENERGY PREDICTED BY IDOCK:   -5.47 KCAL/MOL
REMARK 924 INTRA-LIGAND FREE ENERGY PREDICTED BY IDOCK:   -0.28 KCAL/MOL
REMARK 927      BINDING AFFINITY PREDICTED BY RF-SCORE:    0.00 PKD
ROOT
HETATM    1  C   UNL     1      -6.434   6.939  69.387  1.00  0.00    -0.044 C  
HETATM    2  N   UNL     1      -7.659   7.743  69.327  1.00  0.00    -0.096 NA 
ENDROOT
BRANCH   2   3
HETATM    3  C   UNL     1      -7.769   8.632  70.503  1.00  0.00    -0.086 C  
BRANCH   3   4
HETATM    4  C   UNL     1      -9.074   8.489  71.275  1.00  0.00    -0.250 A  
HETATM    5  C   UNL     1     -10.241   9.234  70.945  1.00  0.00    -0.371 A  
HETATM    6  C   UNL     1      -9.099   7.599  72.366  1.00  0.00    -0.191 A  
HETATM    7  C   UNL     1     -10.314  10.149  69.872  1.00  0.00    -0.308 A  
HETATM    8  C   UNL     1     -10.249   7.442  73.132  1.00  0.00    -0.363 A  
HETATM    9  C   UNL     1     -11.464  10.897  69.615  1.00  0.00    -0.377 A  
HETATM   10  C   UNL     1     -11.391   8.173  72.823  1.00  0.00    -0.406 A  
HETATM   11  C   UNL     1     -12.585  10.735  70.417  1.00  0.00    -0.395 A  
HETATM   12  C   UNL     1     -11.402   9.071  71.745  1.00  0.00    -0.447 A  
HETATM   13  C   UNL     1     -12.557   9.822  71.469  1.00  0.00    -0.493 A  
ENDBRANCH   3   4
ENDBRANCH   2   3
BRANCH   2  14
HETATM   14  C   UNL     1      -8.868   6.906  69.227  1.00  0.00    -0.138 C  
BRANCH  14  15
HETATM   15  C   UNL     1      -8.908   6.030  67.992  1.00  0.00    -0.110 A  
HETATM   16  C   UNL     1      -9.308   3.890  66.903  1.00  0.00    -0.208 A  
HETATM   17  C   UNL     1      -8.672   6.589  66.736  1.00  0.00    -0.123 A  
HETATM   18  C   UNL     1      -8.769   5.813  65.576  1.00  0.00    -0.141 A  
HETATM   19  C   UNL     1      -9.208   4.665  68.068  1.00  0.00    -0.158 A  
HETATM   20  C   UNL     1      -9.111   4.452  65.627  1.00  0.00    -0.137 A  
BRANCH  20  21
HETATM   21  C   UNL     1      -9.294   3.608  64.351  1.00  0.00    -0.146 C  
HETATM   22  C   UNL     1      -8.417   4.094  63.174  1.00  0.00    -0.095 C  
HETATM   23  C   UNL     1      -8.924   2.136  64.624  1.00  0.00    -0.121 C  
HETATM   24  C   UNL     1     -10.761   3.675  63.877  1.00  0.00    -0.266 C  
ENDBRANCH  20  21
ENDBRANCH  14  15
ENDBRANCH   2  14
TORSDOF 5
ENDMDL
MODEL      185
REMARK 921   NORMALIZED FREE ENERGY PREDICTED BY IDOCK:   -3.06 KCAL/MOL
REMARK 922        TOTAL FREE ENERGY PREDICTED BY IDOCK:   -5.74 KCAL/MOL
REMARK 923 INTER-LIGAND FREE ENERGY PREDICTED BY IDOCK:   -5.62 KCAL/MOL
REMARK 924 INTRA-LIGAND FREE ENERGY PREDICTED BY IDOCK:   -0.12 KCAL/MOL
REMARK 927      BINDING AFFINITY PREDICTED BY RF-SCORE:    0.00 PKD
ROOT
HETATM    1  C   UNL     1     -12.411   6.730  71.964  1.00  0.00    -0.271 C  
HETATM    2  N   UNL     1     -11.729   7.576  70.978  1.00  0.00    -0.289 NA 
ENDROOT
BRANCH   2   3
HETATM    3  C   UNL     1     -10.516   6.910  70.457  1.00  0.00    -0.211 C  
BRANCH   3   4
HETATM    4  C   UNL     1      -9.827   5.993  71.458  1.00  0.00    -0.197 A  
HETATM    5  C   UNL     1      -8.862   6.468  72.391  1.00  0.00    -0.133 A  
HETATM    6  C   UNL     1     -10.154   4.624  71.429  1.00  0.00    -0.248 A  
HETATM    7  C   UNL     1      -8.468   7.820  72.496  1.00  0.00    -0.175 A  
HETATM    8  C   UNL     1      -9.541   3.725  72.295  1.00  0.00    -0.205 A  
HETATM    9  C   UNL     1      -7.480   8.234  73.390  1.00  0.00    -0.170 A  
HETATM   10  C   UNL     1      -8.590   4.179  73.202  1.00  0.00    -0.093 A  
HETATM   11  C   UNL     1      -6.869   7.306  74.221  1.00  0.00    -0.097 A  
HETATM   12  C   UNL     1      -8.237   5.535  73.258  1.00  0.00    -0.114 A  
HETATM   13  C   UNL     1      -7.252   5.968  74.162  1.00  0.00    -0.088 A  
ENDBRANCH   3   4
ENDBRANCH   2   3
BRANCH   2  14
HETATM   14  C   UNL     1     -11.369   8.893  71.531  1.00  0.00    -0.325 C  
BRANCH  14  15
HETATM   15  C   UNL     1     -11.218   9.978  70.485  1.00  0.00    -0.408 A  
HETATM   16  C   UNL     1      -9.975  11.062  68.695  1.00  0.00    -0.205 A  
HETATM   17  C   UNL     1     -12.261  10.878  70.262  1.00  0.00    -0.432 A  
HETATM   18  C   UNL     1     -12.171  11.846  69.257  1.00  0.00    -0.169 A  
HETATM   19  C   UNL     1     -10.062  10.093  69.704  1.00  0.00    -0.265 A  
HETATM   20  C   UNL     1     -11.037  11.949  68.434  1.00  0.00    -0.292 A  
BRANCH  20  21
HETATM   21  C   UNL     1     -10.959  12.962  67.276  1.00  0.00    -0.289 C  
HETATM   22  C   UNL     1      -9.645  12.856  66.467  1.00  0.00    -0.259 C  
HETATM   23  C   UNL     1     -12.125  12.742  66.292  1.00  0.00    -0.400 C  
HETATM   24  C   UNL     1     -11.033  14.402  67.825  1.00  0.00    -0.283 C  
ENDBRANCH  20  21
ENDBRANCH  14  15
ENDBRANCH   2  14
TORSDOF 5
ENDMDL
MODEL      186
REMARK 921   NORMALIZED FREE ENERGY PREDICTED BY IDOCK:   -3.03 KCAL/MOL
REMARK 922        TOTAL FREE ENERGY PREDICTED BY IDOCK:   -5.69 KCAL/MOL
REMARK 923 INTER-LIGAND FREE ENERGY PREDICTED BY IDOCK:   -5.17 KCAL/MOL
REMARK 924 INTRA-LIGAND FREE ENERGY PREDICTED BY IDOCK:   -0.53 KCAL/MOL
REMARK 927      BINDING AFFINITY PREDICTED BY RF-SCORE:    0.00 PKD
ROOT
HETATM    1  C   UNL     1      -7.466   5.284  68.897  1.00  0.00    -0.074 C  
HETATM    2  N   UNL     1      -8.917   5.394  68.715  1.00  0.00    -0.115 NA 
ENDROOT
BRANCH   2   3
HETATM    3  C   UNL     1      -9.629   4.351  69.484  1.00  0.00    -0.201 C  
BRANCH   3   4
HETATM    4  C   UNL     1     -10.029   4.775  70.891  1.00  0.00    -0.283 A  
HETATM    5  C   UNL     1     -10.546   6.069  71.180  1.00  0.00    -0.303 A  
HETATM    6  C   UNL     1      -9.853   3.844  71.933  1.00  0.00    -0.248 A  
HETATM    7  C   UNL     1     -10.758   7.068  70.205  1.00  0.00    -0.265 A  
HETATM    8  C   UNL     1     -10.170   4.175  73.246  1.00  0.00    -0.217 A  
HETATM    9  C   UNL     1     -11.220   8.341  70.540  1.00  0.00    -0.247 A  
HETATM   10  C   UNL     1     -10.666   5.441  73.539  1.00  0.00    -0.331 A  
HETATM   11  C   UNL     1     -11.501   8.647  71.865  1.00  0.00    -0.419 A  
HETATM   12  C   UNL     1     -10.853   6.394  72.527  1.00  0.00    -0.268 A  
HETATM   13  C   UNL     1     -11.327   7.677  72.849  1.00  0.00    -0.394 A  
ENDBRANCH   3   4
ENDBRANCH   2   3
BRANCH   2  14
HETATM   14  C   UNL     1      -9.306   5.311  67.296  1.00  0.00    -0.119 C  
BRANCH  14  15
HETATM   15  C   UNL     1      -9.252   6.637  66.566  1.00  0.00    -0.183 A  
HETATM   16  C   UNL     1      -9.993   8.935  66.251  1.00  0.00    -0.337 A  
HETATM   17  C   UNL     1      -8.309   6.837  65.557  1.00  0.00    -0.143 A  
HETATM   18  C   UNL     1      -8.197   8.074  64.915  1.00  0.00    -0.137 A  
HETATM   19  C   UNL     1     -10.109   7.694  66.895  1.00  0.00    -0.348 A  
HETATM   20  C   UNL     1      -9.019   9.160  65.260  1.00  0.00    -0.246 A  
BRANCH  20  21
HETATM   21  C   UNL     1      -8.853  10.547  64.611  1.00  0.00    -0.211 C  
HETATM   22  C   UNL     1      -8.343  11.621  65.601  1.00  0.00     0.367 C  
HETATM   23  C   UNL     1      -7.844  10.478  63.447  1.00  0.00    -0.027 C  
HETATM   24  C   UNL     1     -10.209  11.044  64.067  1.00  0.00    -0.420 C  
ENDBRANCH  20  21
ENDBRANCH  14  15
ENDBRANCH   2  14
TORSDOF 5
ENDMDL
MODEL      187
REMARK 921   NORMALIZED FREE ENERGY PREDICTED BY IDOCK:   -3.03 KCAL/MOL
REMARK 922        TOTAL FREE ENERGY PREDICTED BY IDOCK:   -5.69 KCAL/MOL
REMARK 923 INTER-LIGAND FREE ENERGY PREDICTED BY IDOCK:   -5.07 KCAL/MOL
REMARK 924 INTRA-LIGAND FREE ENERGY PREDICTED BY IDOCK:   -0.62 KCAL/MOL
REMARK 927      BINDING AFFINITY PREDICTED BY RF-SCORE:    0.00 PKD
ROOT
HETATM    1  C   UNL     1     -10.785   7.442  73.184  1.00  0.00    -0.387 C  
HETATM    2  N   UNL     1     -10.803   6.339  72.217  1.00  0.00    -0.228 NA 
ENDROOT
BRANCH   2   3
HETATM    3  C   UNL     1      -9.447   6.072  71.691  1.00  0.00    -0.148 C  
BRANCH   3   4
HETATM    4  C   UNL     1      -9.011   4.617  71.798  1.00  0.00    -0.156 A  
HETATM    5  C   UNL     1      -9.028   3.731  70.684  1.00  0.00    -0.159 A  
HETATM    6  C   UNL     1      -8.599   4.144  73.059  1.00  0.00    -0.100 A  
HETATM    7  C   UNL     1      -9.425   4.111  69.383  1.00  0.00    -0.260 A  
HETATM    8  C   UNL     1      -8.215   2.819  73.234  1.00  0.00    -0.064 A  
HETATM    9  C   UNL     1      -9.475   3.196  68.330  1.00  0.00    -0.215 A  
HETATM   10  C   UNL     1      -8.239   1.944  72.153  1.00  0.00    -0.053 A  
HETATM   11  C   UNL     1      -9.111   1.874  68.546  1.00  0.00    -0.200 A  
HETATM   12  C   UNL     1      -8.646   2.379  70.883  1.00  0.00    -0.103 A  
HETATM   13  C   UNL     1      -8.691   1.471  69.811  1.00  0.00    -0.101 A  
ENDBRANCH   3   4
ENDBRANCH   2   3
BRANCH   2  14
HETATM   14  C   UNL     1     -11.724   6.599  71.097  1.00  0.00    -0.346 C  
BRANCH  14  15
HETATM   15  C   UNL     1     -11.235   7.660  70.134  1.00  0.00    -0.193 A  
HETATM   16  C   UNL     1     -10.362   8.340  67.965  1.00  0.00    -0.268 A  
HETATM   17  C   UNL     1     -11.297   9.007  70.494  1.00  0.00    -0.282 A  
HETATM   18  C   UNL     1     -10.914  10.008  69.596  1.00  0.00    -0.301 A  
HETATM   19  C   UNL     1     -10.743   7.333  68.864  1.00  0.00    -0.173 A  
HETATM   20  C   UNL     1     -10.458   9.703  68.303  1.00  0.00    -0.259 A  
BRANCH  20  21
HETATM   21  C   UNL     1     -10.106  10.801  67.282  1.00  0.00    -0.233 C  
HETATM   22  C   UNL     1      -8.910  11.677  67.724  1.00  0.00    -0.159 C  
HETATM   23  C   UNL     1      -9.738  10.171  65.923  1.00  0.00    -0.292 C  
HETATM   24  C   UNL     1     -11.309  11.748  67.084  1.00  0.00    -0.387 C  
ENDBRANCH  20  21
ENDBRANCH  14  15
ENDBRANCH   2  14
TORSDOF 5
ENDMDL
MODEL      188
REMARK 921   NORMALIZED FREE ENERGY PREDICTED BY IDOCK:   -3.02 KCAL/MOL
REMARK 922        TOTAL FREE ENERGY PREDICTED BY IDOCK:   -5.68 KCAL/MOL
REMARK 923 INTER-LIGAND FREE ENERGY PREDICTED BY IDOCK:   -5.88 KCAL/MOL
REMARK 924 INTRA-LIGAND FREE ENERGY PREDICTED BY IDOCK:    0.20 KCAL/MOL
REMARK 927      BINDING AFFINITY PREDICTED BY RF-SCORE:    0.00 PKD
ROOT
HETATM    1  C   UNL     1      -9.141  10.250  69.355  1.00  0.00    -0.187 C  
HETATM    2  N   UNL     1     -10.242   9.973  70.284  1.00  0.00    -0.255 NA 
ENDROOT
BRANCH   2   3
HETATM    3  C   UNL     1     -10.672   8.561  70.191  1.00  0.00    -0.235 C  
BRANCH   3   4
HETATM    4  C   UNL     1      -9.536   7.553  70.310  1.00  0.00    -0.165 A  
HETATM    5  C   UNL     1      -9.087   6.776  69.206  1.00  0.00    -0.139 A  
HETATM    6  C   UNL     1      -8.938   7.382  71.574  1.00  0.00    -0.132 A  
HETATM    7  C   UNL     1      -9.623   6.875  67.904  1.00  0.00    -0.126 A  
HETATM    8  C   UNL     1      -7.916   6.458  71.760  1.00  0.00    -0.105 A  
HETATM    9  C   UNL     1      -9.187   6.057  66.861  1.00  0.00    -0.131 A  
HETATM   10  C   UNL     1      -7.478   5.687  70.689  1.00  0.00    -0.085 A  
HETATM   11  C   UNL     1      -8.183   5.125  67.088  1.00  0.00    -0.107 A  
HETATM   12  C   UNL     1      -8.052   5.828  69.417  1.00  0.00    -0.101 A  
HETATM   13  C   UNL     1      -7.614   5.018  68.355  1.00  0.00    -0.078 A  
ENDBRANCH   3   4
ENDBRANCH   2   3
BRANCH   2  14
HETATM   14  C   UNL     1     -11.399  10.856  70.052  1.00  0.00    -0.307 C  
BRANCH  14  15
HETATM   15  C   UNL     1     -11.512  11.360  68.628  1.00  0.00    -0.359 A  
HETATM   16  C   UNL     1     -11.907  13.141  67.017  1.00  0.00    -0.435 A  
HETATM   17  C   UNL     1     -11.218  10.506  67.564  1.00  0.00    -0.299 A  
HETATM   18  C   UNL     1     -11.251  10.968  66.244  1.00  0.00    -0.008 A  
HETATM   19  C   UNL     1     -11.878  12.680  68.341  1.00  0.00    -0.347 A  
HETATM   20  C   UNL     1     -11.574  12.300  65.938  1.00  0.00    -0.450 A  
BRANCH  20  21
HETATM   21  C   UNL     1     -11.540  12.837  64.495  1.00  0.00    -0.397 C  
HETATM   22  C   UNL     1     -12.623  12.207  63.589  1.00  0.00    -0.616 C  
HETATM   23  C   UNL     1     -11.760  14.363  64.484  1.00  0.00    -0.430 C  
HETATM   24  C   UNL     1     -10.174  12.525  63.845  1.00  0.00    -0.386 C  
ENDBRANCH  20  21
ENDBRANCH  14  15
ENDBRANCH   2  14
TORSDOF 5
ENDMDL
MODEL      189
REMARK 921   NORMALIZED FREE ENERGY PREDICTED BY IDOCK:   -3.00 KCAL/MOL
REMARK 922        TOTAL FREE ENERGY PREDICTED BY IDOCK:   -5.66 KCAL/MOL
REMARK 923 INTER-LIGAND FREE ENERGY PREDICTED BY IDOCK:   -4.69 KCAL/MOL
REMARK 924 INTRA-LIGAND FREE ENERGY PREDICTED BY IDOCK:   -0.97 KCAL/MOL
REMARK 927      BINDING AFFINITY PREDICTED BY RF-SCORE:    0.00 PKD
ROOT
HETATM    1  C   UNL     1      -7.694   6.167  65.946  1.00  0.00    -0.093 C  
HETATM    2  N   UNL     1      -8.211   7.312  66.705  1.00  0.00    -0.115 NA 
ENDROOT
BRANCH   2   3
HETATM    3  C   UNL     1      -7.512   8.558  66.326  1.00  0.00    -0.090 C  
BRANCH   3   4
HETATM    4  C   UNL     1      -8.054   9.220  65.066  1.00  0.00    -0.127 A  
HETATM    5  C   UNL     1      -9.209  10.052  65.076  1.00  0.00    -0.277 A  
HETATM    6  C   UNL     1      -7.385   8.970  63.852  1.00  0.00    -0.097 A  
HETATM    7  C   UNL     1      -9.946  10.361  66.241  1.00  0.00    -0.283 A  
HETATM    8  C   UNL     1      -7.843   9.518  62.659  1.00  0.00    -0.117 A  
HETATM    9  C   UNL     1     -11.103  11.139  66.198  1.00  0.00    -0.152 A  
HETATM   10  C   UNL     1      -8.977  10.324  62.659  1.00  0.00    -0.272 A  
HETATM   11  C   UNL     1     -11.547  11.649  64.986  1.00  0.00    -0.133 A  
HETATM   12  C   UNL     1      -9.670  10.593  63.848  1.00  0.00    -0.378 A  
HETATM   13  C   UNL     1     -10.830  11.385  63.821  1.00  0.00    -0.468 A  
ENDBRANCH   3   4
ENDBRANCH   2   3
BRANCH   2  14
HETATM   14  C   UNL     1      -8.101   7.108  68.160  1.00  0.00    -0.124 C  
BRANCH  14  15
HETATM   15  C   UNL     1      -9.350   7.484  68.929  1.00  0.00    -0.142 A  
HETATM   16  C   UNL     1     -11.347   6.884  70.187  1.00  0.00    -0.364 A  
HETATM   17  C   UNL     1      -9.627   8.826  69.192  1.00  0.00    -0.162 A  
HETATM   18  C   UNL     1     -10.739   9.193  69.957  1.00  0.00    -0.254 A  
HETATM   19  C   UNL     1     -10.234   6.514  69.418  1.00  0.00    -0.214 A  
HETATM   20  C   UNL     1     -11.614   8.233  70.492  1.00  0.00    -0.133 A  
BRANCH  20  21
HETATM   21  C   UNL     1     -12.797   8.622  71.398  1.00  0.00    -0.294 C  
HETATM   22  C   UNL     1     -12.358   9.053  72.816  1.00  0.00     0.054 C  
HETATM   23  C   UNL     1     -13.580   9.799  70.781  1.00  0.00     0.013 C  
HETATM   24  C   UNL     1     -13.752   7.421  71.568  1.00  0.00    -0.467 C  
ENDBRANCH  20  21
ENDBRANCH  14  15
ENDBRANCH   2  14
TORSDOF 5
ENDMDL
MODEL      190
REMARK 921   NORMALIZED FREE ENERGY PREDICTED BY IDOCK:   -2.92 KCAL/MOL
REMARK 922        TOTAL FREE ENERGY PREDICTED BY IDOCK:   -5.56 KCAL/MOL
REMARK 923 INTER-LIGAND FREE ENERGY PREDICTED BY IDOCK:   -5.22 KCAL/MOL
REMARK 924 INTRA-LIGAND FREE ENERGY PREDICTED BY IDOCK:   -0.34 KCAL/MOL
REMARK 927      BINDING AFFINITY PREDICTED BY RF-SCORE:    0.00 PKD
ROOT
HETATM    1  C   UNL     1      -9.164   7.103  69.273  1.00  0.00    -0.140 C  
HETATM    2  N   UNL     1     -10.582   7.095  68.898  1.00  0.00    -0.209 NA 
ENDROOT
BRANCH   2   3
HETATM    3  C   UNL     1     -11.368   6.242  69.815  1.00  0.00    -0.436 C  
BRANCH   3   4
HETATM    4  C   UNL     1     -10.957   6.351  71.277  1.00  0.00    -0.321 A  
HETATM    5  C   UNL     1     -10.341   5.276  71.979  1.00  0.00    -0.273 A  
HETATM    6  C   UNL     1     -11.226   7.559  71.948  1.00  0.00    -0.286 A  
HETATM    7  C   UNL     1     -10.032   4.029  71.394  1.00  0.00    -0.210 A  
HETATM    8  C   UNL     1     -10.904   7.717  73.291  1.00  0.00    -0.379 A  
HETATM    9  C   UNL     1      -9.474   2.985  72.133  1.00  0.00    -0.196 A  
HETATM   10  C   UNL     1     -10.311   6.669  73.987  1.00  0.00    -0.377 A  
HETATM   11  C   UNL     1      -9.190   3.167  73.479  1.00  0.00    -0.096 A  
HETATM   12  C   UNL     1     -10.031   5.449  73.353  1.00  0.00    -0.188 A  
HETATM   13  C   UNL     1      -9.458   4.394  74.082  1.00  0.00    -0.123 A  
ENDBRANCH   3   4
ENDBRANCH   2   3
BRANCH   2  14
HETATM   14  C   UNL     1     -10.786   6.644  67.510  1.00  0.00    -0.342 C  
BRANCH  14  15
HETATM   15  C   UNL     1      -9.889   7.333  66.503  1.00  0.00    -0.202 A  
HETATM   16  C   UNL     1      -9.103   9.332  65.355  1.00  0.00    -0.277 A  
HETATM   17  C   UNL     1      -8.909   6.601  65.831  1.00  0.00    -0.126 A  
HETATM   18  C   UNL     1      -8.026   7.228  64.946  1.00  0.00    -0.127 A  
HETATM   19  C   UNL     1      -9.992   8.704  66.241  1.00  0.00    -0.287 A  
HETATM   20  C   UNL     1      -8.085   8.610  64.702  1.00  0.00    -0.156 A  
BRANCH  20  21
HETATM   21  C   UNL     1      -7.070   9.322  63.788  1.00  0.00    -0.095 C  
HETATM   22  C   UNL     1      -6.037  10.165  64.571  1.00  0.00    -0.133 C  
HETATM   23  C   UNL     1      -6.285   8.290  62.953  1.00  0.00    -0.086 C  
HETATM   24  C   UNL     1      -7.803  10.285  62.830  1.00  0.00    -0.155 C  
ENDBRANCH  20  21
ENDBRANCH  14  15
ENDBRANCH   2  14
TORSDOF 5
ENDMDL
MODEL      191
REMARK 921   NORMALIZED FREE ENERGY PREDICTED BY IDOCK:   -2.83 KCAL/MOL
REMARK 922        TOTAL FREE ENERGY PREDICTED BY IDOCK:   -5.44 KCAL/MOL
REMARK 923 INTER-LIGAND FREE ENERGY PREDICTED BY IDOCK:   -5.00 KCAL/MOL
REMARK 924 INTRA-LIGAND FREE ENERGY PREDICTED BY IDOCK:   -0.44 KCAL/MOL
REMARK 927      BINDING AFFINITY PREDICTED BY RF-SCORE:    0.00 PKD
ROOT
HETATM    1  C   UNL     1      -7.321   7.504  69.217  1.00  0.00    -0.089 C  
HETATM    2  N   UNL     1      -7.869   8.405  68.197  1.00  0.00    -0.109 NA 
ENDROOT
BRANCH   2   3
HETATM    3  C   UNL     1      -7.873   9.805  68.673  1.00  0.00    -0.081 C  
BRANCH   3   4
HETATM    4  C   UNL     1      -9.262  10.406  68.836  1.00  0.00    -0.179 A  
HETATM    5  C   UNL     1      -9.892  11.164  67.809  1.00  0.00    -0.186 A  
HETATM    6  C   UNL     1      -9.923  10.212  70.065  1.00  0.00    -0.213 A  
HETATM    7  C   UNL     1      -9.312  11.413  66.546  1.00  0.00    -0.204 A  
HETATM    8  C   UNL     1     -11.181  10.757  70.293  1.00  0.00    -0.326 A  
HETATM    9  C   UNL     1      -9.943  12.205  65.587  1.00  0.00    -0.271 A  
HETATM   10  C   UNL     1     -11.799  11.508  69.298  1.00  0.00    -0.414 A  
HETATM   11  C   UNL     1     -11.187  12.757  65.858  1.00  0.00    -0.334 A  
HETATM   12  C   UNL     1     -11.171  11.725  68.063  1.00  0.00    -0.324 A  
HETATM   13  C   UNL     1     -11.801  12.511  67.084  1.00  0.00    -0.386 A  
ENDBRANCH   3   4
ENDBRANCH   2   3
BRANCH   2  14
HETATM   14  C   UNL     1      -9.231   8.019  67.790  1.00  0.00    -0.134 C  
BRANCH  14  15
HETATM   15  C   UNL     1      -9.276   6.878  66.796  1.00  0.00    -0.177 A  
HETATM   16  C   UNL     1      -8.385   5.687  64.868  1.00  0.00    -0.139 A  
HETATM   17  C   UNL     1     -10.222   5.863  66.945  1.00  0.00    -0.262 A  
HETATM   18  C   UNL     1     -10.239   4.765  66.079  1.00  0.00    -0.308 A  
HETATM   19  C   UNL     1      -8.367   6.790  65.734  1.00  0.00    -0.143 A  
HETATM   20  C   UNL     1      -9.309   4.638  65.034  1.00  0.00    -0.142 A  
BRANCH  20  21
HETATM   21  C   UNL     1      -9.272   3.397  64.121  1.00  0.00    -0.127 C  
HETATM   22  C   UNL     1     -10.615   3.136  63.399  1.00  0.00    -0.246 C  
HETATM   23  C   UNL     1      -8.190   3.561  63.035  1.00  0.00    -0.080 C  
HETATM   24  C   UNL     1      -8.957   2.136  64.954  1.00  0.00    -0.125 C  
ENDBRANCH  20  21
ENDBRANCH  14  15
ENDBRANCH   2  14
TORSDOF 5
ENDMDL
MODEL      192
REMARK 921   NORMALIZED FREE ENERGY PREDICTED BY IDOCK:   -2.81 KCAL/MOL
REMARK 922        TOTAL FREE ENERGY PREDICTED BY IDOCK:   -5.42 KCAL/MOL
REMARK 923 INTER-LIGAND FREE ENERGY PREDICTED BY IDOCK:   -4.68 KCAL/MOL
REMARK 924 INTRA-LIGAND FREE ENERGY PREDICTED BY IDOCK:   -0.73 KCAL/MOL
REMARK 927      BINDING AFFINITY PREDICTED BY RF-SCORE:    0.00 PKD
ROOT
HETATM    1  C   UNL     1     -10.387   7.243  67.521  1.00  0.00    -0.242 C  
HETATM    2  N   UNL     1      -9.329   7.757  66.644  1.00  0.00    -0.178 NA 
ENDROOT
BRANCH   2   3
HETATM    3  C   UNL     1      -8.290   6.732  66.410  1.00  0.00    -0.121 C  
BRANCH   3   4
HETATM    4  C   UNL     1      -8.270   6.174  64.993  1.00  0.00    -0.132 A  
HETATM    5  C   UNL     1      -8.517   4.801  64.709  1.00  0.00    -0.141 A  
HETATM    6  C   UNL     1      -7.973   7.062  63.941  1.00  0.00    -0.069 A  
HETATM    7  C   UNL     1      -8.822   3.837  65.695  1.00  0.00    -0.123 A  
HETATM    8  C   UNL     1      -7.909   6.614  62.626  1.00  0.00    -0.104 A  
HETATM    9  C   UNL     1      -9.006   2.491  65.378  1.00  0.00    -0.131 A  
HETATM   10  C   UNL     1      -8.139   5.272  62.341  1.00  0.00    -0.091 A  
HETATM   11  C   UNL     1      -8.909   2.073  64.058  1.00  0.00    -0.094 A  
HETATM   12  C   UNL     1      -8.435   4.358  63.364  1.00  0.00    -0.109 A  
HETATM   13  C   UNL     1      -8.634   3.002  63.057  1.00  0.00    -0.085 A  
ENDBRANCH   3   4
ENDBRANCH   2   3
BRANCH   2  14
HETATM   14  C   UNL     1      -8.705   8.977  67.186  1.00  0.00    -0.116 C  
BRANCH  14  15
HETATM   15  C   UNL     1      -9.432  10.254  66.819  1.00  0.00    -0.198 A  
HETATM   16  C   UNL     1     -11.053  12.005  67.304  1.00  0.00    -0.341 A  
HETATM   17  C   UNL     1      -9.077  10.948  65.661  1.00  0.00    -0.223 A  
HETATM   18  C   UNL     1      -9.689  12.163  65.337  1.00  0.00    -0.178 A  
HETATM   19  C   UNL     1     -10.443  10.785  67.629  1.00  0.00    -0.252 A  
HETATM   20  C   UNL     1     -10.675  12.733  66.159  1.00  0.00    -0.297 A  
BRANCH  20  21
HETATM   21  C   UNL     1     -11.300  14.107  65.851  1.00  0.00    -0.323 C  
HETATM   22  C   UNL     1     -11.856  14.816  67.108  1.00  0.00    -0.307 C  
HETATM   23  C   UNL     1     -10.250  15.044  65.220  1.00  0.00    -0.409 C  
HETATM   24  C   UNL     1     -12.479  13.944  64.868  1.00  0.00    -0.420 C  
ENDBRANCH  20  21
ENDBRANCH  14  15
ENDBRANCH   2  14
TORSDOF 5
ENDMDL
MODEL      193
REMARK 921   NORMALIZED FREE ENERGY PREDICTED BY IDOCK:   -2.77 KCAL/MOL
REMARK 922        TOTAL FREE ENERGY PREDICTED BY IDOCK:   -5.37 KCAL/MOL
REMARK 923 INTER-LIGAND FREE ENERGY PREDICTED BY IDOCK:   -4.37 KCAL/MOL
REMARK 924 INTRA-LIGAND FREE ENERGY PREDICTED BY IDOCK:   -0.99 KCAL/MOL
REMARK 927      BINDING AFFINITY PREDICTED BY RF-SCORE:    0.00 PKD
ROOT
HETATM    1  C   UNL     1      -5.531   8.760  69.840  1.00  0.00    -0.029 C  
HETATM    2  N   UNL     1      -6.997   8.738  69.883  1.00  0.00    -0.045 NA 
ENDROOT
BRANCH   2   3
HETATM    3  C   UNL     1      -7.484   8.561  71.268  1.00  0.00    -0.098 C  
BRANCH   3   4
HETATM    4  C   UNL     1      -9.000   8.492  71.394  1.00  0.00    -0.262 A  
HETATM    5  C   UNL     1      -9.668   7.382  71.985  1.00  0.00    -0.182 A  
HETATM    6  C   UNL     1      -9.752   9.565  70.879  1.00  0.00    -0.242 A  
HETATM    7  C   UNL     1      -9.002   6.261  72.528  1.00  0.00    -0.137 A  
HETATM    8  C   UNL     1     -11.142   9.554  70.933  1.00  0.00    -0.406 A  
HETATM    9  C   UNL     1      -9.698   5.172  73.053  1.00  0.00    -0.165 A  
HETATM   10  C   UNL     1     -11.802   8.469  71.501  1.00  0.00    -0.353 A  
HETATM   11  C   UNL     1     -11.086   5.182  73.067  1.00  0.00    -0.379 A  
HETATM   12  C   UNL     1     -11.086   7.381  72.021  1.00  0.00    -0.279 A  
HETATM   13  C   UNL     1     -11.775   6.283  72.563  1.00  0.00    -0.245 A  
ENDBRANCH   3   4
ENDBRANCH   2   3
BRANCH   2  14
HETATM   14  C   UNL     1      -7.561   7.682  69.024  1.00  0.00    -0.104 C  
BRANCH  14  15
HETATM   15  C   UNL     1      -7.867   8.137  67.612  1.00  0.00    -0.114 A  
HETATM   16  C   UNL     1      -8.554   9.845  66.019  1.00  0.00    -0.147 A  
HETATM   17  C   UNL     1      -7.644   7.272  66.540  1.00  0.00    -0.092 A  
HETATM   18  C   UNL     1      -7.855   7.693  65.223  1.00  0.00    -0.122 A  
HETATM   19  C   UNL     1      -8.345   9.425  67.340  1.00  0.00    -0.125 A  
HETATM   20  C   UNL     1      -8.294   8.994  64.927  1.00  0.00    -0.178 A  
BRANCH  20  21
HETATM   21  C   UNL     1      -8.458   9.490  63.478  1.00  0.00    -0.197 C  
HETATM   22  C   UNL     1      -7.260  10.338  62.989  1.00  0.00    -0.125 C  
HETATM   23  C   UNL     1      -8.600   8.295  62.515  1.00  0.00    -0.029 C  
HETATM   24  C   UNL     1      -9.715  10.378  63.361  1.00  0.00    -0.318 C  
ENDBRANCH  20  21
ENDBRANCH  14  15
ENDBRANCH   2  14
TORSDOF 5
ENDMDL
MODEL      194
REMARK 921   NORMALIZED FREE ENERGY PREDICTED BY IDOCK:   -2.68 KCAL/MOL
REMARK 922        TOTAL FREE ENERGY PREDICTED BY IDOCK:   -5.24 KCAL/MOL
REMARK 923 INTER-LIGAND FREE ENERGY PREDICTED BY IDOCK:   -4.67 KCAL/MOL
REMARK 924 INTRA-LIGAND FREE ENERGY PREDICTED BY IDOCK:   -0.57 KCAL/MOL
REMARK 927      BINDING AFFINITY PREDICTED BY RF-SCORE:    0.00 PKD
ROOT
HETATM    1  C   UNL     1     -11.014  10.263  67.994  1.00  0.00    -0.289 C  
HETATM    2  N   UNL     1     -10.547  10.448  69.372  1.00  0.00    -0.224 NA 
ENDROOT
BRANCH   2   3
HETATM    3  C   UNL     1      -9.196   9.876  69.556  1.00  0.00    -0.223 C  
BRANCH   3   4
HETATM    4  C   UNL     1      -8.396   9.733  68.268  1.00  0.00    -0.106 A  
HETATM    5  C   UNL     1      -8.195   8.477  67.630  1.00  0.00    -0.118 A  
HETATM    6  C   UNL     1      -7.825  10.896  67.717  1.00  0.00    -0.109 A  
HETATM    7  C   UNL     1      -8.726   7.258  68.106  1.00  0.00    -0.128 A  
HETATM    8  C   UNL     1      -7.058  10.834  66.558  1.00  0.00    -0.138 A  
HETATM    9  C   UNL     1      -8.460   6.041  67.477  1.00  0.00    -0.107 A  
HETATM   10  C   UNL     1      -6.847   9.608  65.934  1.00  0.00    -0.089 A  
HETATM   11  C   UNL     1      -7.668   6.011  66.338  1.00  0.00    -0.102 A  
HETATM   12  C   UNL     1      -7.399   8.429  66.457  1.00  0.00    -0.081 A  
HETATM   13  C   UNL     1      -7.149   7.198  65.826  1.00  0.00    -0.069 A  
ENDBRANCH   3   4
ENDBRANCH   2   3
BRANCH   2  14
HETATM   14  C   UNL     1     -11.471   9.857  70.356  1.00  0.00    -0.301 C  
BRANCH  14  15
HETATM   15  C   UNL     1     -11.009   8.524  70.909  1.00  0.00    -0.292 A  
HETATM   16  C   UNL     1      -9.816   7.195  72.563  1.00  0.00    -0.183 A  
HETATM   17  C   UNL     1     -11.443   7.338  70.316  1.00  0.00    -0.242 A  
HETATM   18  C   UNL     1     -11.083   6.096  70.849  1.00  0.00    -0.371 A  
HETATM   19  C   UNL     1     -10.173   8.442  72.028  1.00  0.00    -0.364 A  
HETATM   20  C   UNL     1     -10.280   5.993  71.997  1.00  0.00    -0.228 A  
BRANCH  20  21
HETATM   21  C   UNL     1      -9.941   4.632  72.635  1.00  0.00    -0.213 C  
HETATM   22  C   UNL     1      -8.736   4.701  73.602  1.00  0.00    -0.106 C  
HETATM   23  C   UNL     1     -11.146   4.101  73.438  1.00  0.00    -0.354 C  
HETATM   24  C   UNL     1      -9.580   3.607  71.538  1.00  0.00    -0.234 C  
ENDBRANCH  20  21
ENDBRANCH  14  15
ENDBRANCH   2  14
TORSDOF 5
ENDMDL
MODEL      195
REMARK 921   NORMALIZED FREE ENERGY PREDICTED BY IDOCK:   -2.66 KCAL/MOL
REMARK 922        TOTAL FREE ENERGY PREDICTED BY IDOCK:   -5.22 KCAL/MOL
REMARK 923 INTER-LIGAND FREE ENERGY PREDICTED BY IDOCK:   -4.16 KCAL/MOL
REMARK 924 INTRA-LIGAND FREE ENERGY PREDICTED BY IDOCK:   -1.05 KCAL/MOL
REMARK 927      BINDING AFFINITY PREDICTED BY RF-SCORE:    0.00 PKD
ROOT
HETATM    1  C   UNL     1     -10.344   6.806  72.249  1.00  0.00    -0.196 C  
HETATM    2  N   UNL     1     -10.111   5.837  71.173  1.00  0.00    -0.195 NA 
ENDROOT
BRANCH   2   3
HETATM    3  C   UNL     1      -8.724   5.926  70.669  1.00  0.00    -0.137 C  
BRANCH   3   4
HETATM    4  C   UNL     1      -8.351   4.841  69.669  1.00  0.00    -0.082 A  
HETATM    5  C   UNL     1      -7.709   5.130  68.432  1.00  0.00    -0.080 A  
HETATM    6  C   UNL     1      -8.681   3.510  69.989  1.00  0.00    -0.129 A  
HETATM    7  C   UNL     1      -7.340   6.430  68.022  1.00  0.00    -0.089 A  
HETATM    8  C   UNL     1      -8.396   2.472  69.108  1.00  0.00    -0.082 A  
HETATM    9  C   UNL     1      -6.759   6.675  66.778  1.00  0.00    -0.056 A  
HETATM   10  C   UNL     1      -7.778   2.748  67.893  1.00  0.00    -0.060 A  
HETATM   11  C   UNL     1      -6.513   5.619  65.911  1.00  0.00    -0.040 A  
HETATM   12  C   UNL     1      -7.437   4.062  67.539  1.00  0.00    -0.068 A  
HETATM   13  C   UNL     1      -6.841   4.321  66.293  1.00  0.00    -0.054 A  
ENDBRANCH   3   4
ENDBRANCH   2   3
BRANCH   2  14
HETATM   14  C   UNL     1     -11.054   6.013  70.054  1.00  0.00    -0.381 C  
BRANCH  14  15
HETATM   15  C   UNL     1     -10.717   7.175  69.144  1.00  0.00    -0.216 A  
HETATM   16  C   UNL     1      -9.950   9.459  68.788  1.00  0.00    -0.191 A  
HETATM   17  C   UNL     1     -10.764   7.010  67.759  1.00  0.00    -0.300 A  
HETATM   18  C   UNL     1     -10.393   8.048  66.899  1.00  0.00    -0.408 A  
HETATM   19  C   UNL     1     -10.325   8.419  69.652  1.00  0.00    -0.218 A  
HETATM   20  C   UNL     1      -9.956   9.290  67.390  1.00  0.00    -0.253 A  
BRANCH  20  21
HETATM   21  C   UNL     1      -9.474  10.414  66.453  1.00  0.00    -0.209 C  
HETATM   22  C   UNL     1      -9.090   9.904  65.045  1.00  0.00    -0.264 C  
HETATM   23  C   UNL     1     -10.580  11.474  66.274  1.00  0.00    -0.309 C  
HETATM   24  C   UNL     1      -8.221  11.094  67.043  1.00  0.00    -0.146 C  
ENDBRANCH  20  21
ENDBRANCH  14  15
ENDBRANCH   2  14
TORSDOF 5
ENDMDL
MODEL      196
REMARK 921   NORMALIZED FREE ENERGY PREDICTED BY IDOCK:   -2.65 KCAL/MOL
REMARK 922        TOTAL FREE ENERGY PREDICTED BY IDOCK:   -5.20 KCAL/MOL
REMARK 923 INTER-LIGAND FREE ENERGY PREDICTED BY IDOCK:   -5.04 KCAL/MOL
REMARK 924 INTRA-LIGAND FREE ENERGY PREDICTED BY IDOCK:   -0.17 KCAL/MOL
REMARK 927      BINDING AFFINITY PREDICTED BY RF-SCORE:    0.00 PKD
ROOT
HETATM    1  C   UNL     1      -9.901   7.054  67.576  1.00  0.00    -0.148 C  
HETATM    2  N   UNL     1      -8.598   7.701  67.758  1.00  0.00    -0.121 NA 
ENDROOT
BRANCH   2   3
HETATM    3  C   UNL     1      -7.675   6.832  68.519  1.00  0.00    -0.113 C  
BRANCH   3   4
HETATM    4  C   UNL     1      -7.313   7.362  69.900  1.00  0.00    -0.083 A  
HETATM    5  C   UNL     1      -8.144   7.160  71.037  1.00  0.00    -0.104 A  
HETATM    6  C   UNL     1      -6.118   8.096  70.030  1.00  0.00    -0.029 A  
HETATM    7  C   UNL     1      -9.358   6.439  71.007  1.00  0.00    -0.171 A  
HETATM    8  C   UNL     1      -5.741   8.635  71.255  1.00  0.00    -0.039 A  
HETATM    9  C   UNL     1     -10.168   6.309  72.136  1.00  0.00    -0.208 A  
HETATM   10  C   UNL     1      -6.553   8.450  72.370  1.00  0.00    -0.095 A  
HETATM   11  C   UNL     1      -9.774   6.882  73.337  1.00  0.00    -0.228 A  
HETATM   12  C   UNL     1      -7.751   7.727  72.277  1.00  0.00    -0.115 A  
HETATM   13  C   UNL     1      -8.570   7.578  73.409  1.00  0.00    -0.212 A  
ENDBRANCH   3   4
ENDBRANCH   2   3
BRANCH   2  14
HETATM   14  C   UNL     1      -8.715   9.006  68.433  1.00  0.00    -0.130 C  
BRANCH  14  15
HETATM   15  C   UNL     1      -9.318  10.093  67.568  1.00  0.00    -0.168 A  
HETATM   16  C   UNL     1      -9.846  11.045  65.391  1.00  0.00    -0.301 A  
HETATM   17  C   UNL     1     -10.020  11.144  68.162  1.00  0.00    -0.189 A  
HETATM   18  C   UNL     1     -10.641  12.123  67.380  1.00  0.00    -0.253 A  
HETATM   19  C   UNL     1      -9.219  10.064  66.172  1.00  0.00    -0.205 A  
HETATM   20  C   UNL     1     -10.590  12.087  65.977  1.00  0.00    -0.303 A  
BRANCH  20  21
HETATM   21  C   UNL     1     -11.334  13.118  65.107  1.00  0.00    -0.322 C  
HETATM   22  C   UNL     1     -10.504  14.394  64.837  1.00  0.00    -0.448 C  
HETATM   23  C   UNL     1     -11.695  12.504  63.739  1.00  0.00    -0.564 C  
HETATM   24  C   UNL     1     -12.633  13.567  65.811  1.00  0.00    -0.490 C  
ENDBRANCH  20  21
ENDBRANCH  14  15
ENDBRANCH   2  14
TORSDOF 5
ENDMDL
MODEL      197
REMARK 921   NORMALIZED FREE ENERGY PREDICTED BY IDOCK:   -2.64 KCAL/MOL
REMARK 922        TOTAL FREE ENERGY PREDICTED BY IDOCK:   -5.19 KCAL/MOL
REMARK 923 INTER-LIGAND FREE ENERGY PREDICTED BY IDOCK:   -5.49 KCAL/MOL
REMARK 924 INTRA-LIGAND FREE ENERGY PREDICTED BY IDOCK:    0.30 KCAL/MOL
REMARK 927      BINDING AFFINITY PREDICTED BY RF-SCORE:    0.00 PKD
ROOT
HETATM    1  C   UNL     1     -10.811  19.783  66.155  1.00  0.00    -0.277 C  
HETATM    2  N   UNL     1     -10.478  18.565  66.902  1.00  0.00    -0.393 NA 
ENDROOT
BRANCH   2   3
HETATM    3  C   UNL     1      -9.959  18.893  68.247  1.00  0.00    -0.376 C  
BRANCH   3   4
HETATM    4  C   UNL     1      -8.462  18.666  68.412  1.00  0.00    -0.366 A  
HETATM    5  C   UNL     1      -7.494  19.357  67.630  1.00  0.00    -0.285 A  
HETATM    6  C   UNL     1      -8.042  17.717  69.364  1.00  0.00     0.380 A  
HETATM    7  C   UNL     1      -7.817  20.324  66.653  1.00  0.00    -0.305 A  
HETATM    8  C   UNL     1      -6.692  17.439  69.546  1.00  0.00    -0.119 A  
HETATM    9  C   UNL     1      -6.838  20.941  65.873  1.00  0.00    -0.080 A  
HETATM   10  C   UNL     1      -5.740  18.102  68.779  1.00  0.00    -0.191 A  
HETATM   11  C   UNL     1      -5.501  20.620  66.062  1.00  0.00    -0.225 A  
HETATM   12  C   UNL     1      -6.122  19.052  67.820  1.00  0.00    -0.211 A  
HETATM   13  C   UNL     1      -5.145  19.689  67.036  1.00  0.00    -0.158 A  
ENDBRANCH   3   4
ENDBRANCH   2   3
BRANCH   2  14
HETATM   14  C   UNL     1      -9.499  17.727  66.187  1.00  0.00    -0.159 C  
BRANCH  14  15
HETATM   15  C   UNL     1      -9.692  16.240  66.399  1.00  0.00    -0.310 A  
HETATM   16  C   UNL     1      -8.825  14.024  66.914  1.00  0.00    -0.212 A  
HETATM   17  C   UNL     1     -10.977  15.696  66.375  1.00  0.00    -0.197 A  
HETATM   18  C   UNL     1     -11.187  14.338  66.633  1.00  0.00    -0.337 A  
HETATM   19  C   UNL     1      -8.613  15.385  66.652  1.00  0.00    -0.318 A  
HETATM   20  C   UNL     1     -10.121  13.473  66.931  1.00  0.00    -0.256 A  
BRANCH  20  21
HETATM   21  C   UNL     1     -10.348  11.992  67.291  1.00  0.00    -0.232 C  
HETATM   22  C   UNL     1     -10.555  11.092  66.051  1.00  0.00    -0.298 C  
HETATM   23  C   UNL     1      -9.137  11.437  68.067  1.00  0.00    -0.171 C  
HETATM   24  C   UNL     1     -11.611  11.848  68.167  1.00  0.00    -0.400 C  
ENDBRANCH  20  21
ENDBRANCH  14  15
ENDBRANCH   2  14
TORSDOF 5
ENDMDL
MODEL      198
REMARK 921   NORMALIZED FREE ENERGY PREDICTED BY IDOCK:   -2.64 KCAL/MOL
REMARK 922        TOTAL FREE ENERGY PREDICTED BY IDOCK:   -5.19 KCAL/MOL
REMARK 923 INTER-LIGAND FREE ENERGY PREDICTED BY IDOCK:   -5.51 KCAL/MOL
REMARK 924 INTRA-LIGAND FREE ENERGY PREDICTED BY IDOCK:    0.32 KCAL/MOL
REMARK 927      BINDING AFFINITY PREDICTED BY RF-SCORE:    0.00 PKD
ROOT
HETATM    1  C   UNL     1      -9.941   7.577  67.184  1.00  0.00    -0.220 C  
HETATM    2  N   UNL     1      -8.562   7.578  67.685  1.00  0.00    -0.120 NA 
ENDROOT
BRANCH   2   3
HETATM    3  C   UNL     1      -8.495   7.022  69.053  1.00  0.00    -0.129 C  
BRANCH   3   4
HETATM    4  C   UNL     1      -8.695   5.514  69.126  1.00  0.00    -0.103 A  
HETATM    5  C   UNL     1      -9.149   4.860  70.306  1.00  0.00    -0.165 A  
HETATM    6  C   UNL     1      -8.392   4.754  67.980  1.00  0.00    -0.102 A  
HETATM    7  C   UNL     1      -9.477   5.534  71.503  1.00  0.00    -0.179 A  
HETATM    8  C   UNL     1      -8.523   3.370  67.985  1.00  0.00    -0.106 A  
HETATM    9  C   UNL     1      -9.870   4.848  72.653  1.00  0.00    -0.200 A  
HETATM   10  C   UNL     1      -8.956   2.722  69.137  1.00  0.00    -0.171 A  
HETATM   11  C   UNL     1      -9.964   3.463  72.632  1.00  0.00    -0.219 A  
HETATM   12  C   UNL     1      -9.265   3.446  70.299  1.00  0.00    -0.226 A  
HETATM   13  C   UNL     1      -9.673   2.768  71.460  1.00  0.00    -0.225 A  
ENDBRANCH   3   4
ENDBRANCH   2   3
BRANCH   2  14
HETATM   14  C   UNL     1      -7.968   8.926  67.672  1.00  0.00    -0.102 C  
BRANCH  14  15
HETATM   15  C   UNL     1      -8.846   9.978  67.027  1.00  0.00    -0.147 A  
HETATM   16  C   UNL     1     -10.063  12.086  67.103  1.00  0.00    -0.217 A  
HETATM   17  C   UNL     1      -9.188   9.867  65.679  1.00  0.00    -0.245 A  
HETATM   18  C   UNL     1      -9.942  10.860  65.045  1.00  0.00    -0.356 A  
HETATM   19  C   UNL     1      -9.310  11.090  67.741  1.00  0.00    -0.162 A  
HETATM   20  C   UNL     1     -10.380  12.003  65.734  1.00  0.00    -0.289 A  
BRANCH  20  21
HETATM   21  C   UNL     1     -11.146  13.138  65.027  1.00  0.00    -0.322 C  
HETATM   22  C   UNL     1     -10.316  14.435  64.891  1.00  0.00    -0.419 C  
HETATM   23  C   UNL     1     -11.558  12.702  63.606  1.00  0.00    -0.575 C  
HETATM   24  C   UNL     1     -12.416  13.498  65.827  1.00  0.00    -0.514 C  
ENDBRANCH  20  21
ENDBRANCH  14  15
ENDBRANCH   2  14
TORSDOF 5
ENDMDL
MODEL      199
REMARK 921   NORMALIZED FREE ENERGY PREDICTED BY IDOCK:   -2.61 KCAL/MOL
REMARK 922        TOTAL FREE ENERGY PREDICTED BY IDOCK:   -5.15 KCAL/MOL
REMARK 923 INTER-LIGAND FREE ENERGY PREDICTED BY IDOCK:   -4.97 KCAL/MOL
REMARK 924 INTRA-LIGAND FREE ENERGY PREDICTED BY IDOCK:   -0.19 KCAL/MOL
REMARK 927      BINDING AFFINITY PREDICTED BY RF-SCORE:    0.00 PKD
ROOT
HETATM    1  C   UNL     1      -8.172   8.266  67.481  1.00  0.00    -0.122 C  
HETATM    2  N   UNL     1      -9.165   7.371  66.878  1.00  0.00    -0.145 NA 
ENDROOT
BRANCH   2   3
HETATM    3  C   UNL     1     -10.520   7.957  66.950  1.00  0.00    -0.318 C  
BRANCH   3   4
HETATM    4  C   UNL     1     -10.544   9.434  67.318  1.00  0.00    -0.314 A  
HETATM    5  C   UNL     1     -10.383  10.465  66.349  1.00  0.00    -0.278 A  
HETATM    6  C   UNL     1     -10.710   9.772  68.675  1.00  0.00    -0.247 A  
HETATM    7  C   UNL     1     -10.210  10.227  64.968  1.00  0.00    -0.277 A  
HETATM    8  C   UNL     1     -10.712  11.100  69.085  1.00  0.00    -0.262 A  
HETATM    9  C   UNL     1     -10.004  11.266  64.060  1.00  0.00    -0.362 A  
HETATM   10  C   UNL     1     -10.544  12.114  68.146  1.00  0.00    -0.236 A  
HETATM   11  C   UNL     1      -9.984  12.580  64.507  1.00  0.00    -0.195 A  
HETATM   12  C   UNL     1     -10.374  11.815  66.786  1.00  0.00    -0.251 A  
HETATM   13  C   UNL     1     -10.177  12.852  65.859  1.00  0.00    -0.299 A  
ENDBRANCH   3   4
ENDBRANCH   2   3
BRANCH   2  14
HETATM   14  C   UNL     1      -9.169   6.040  67.512  1.00  0.00    -0.111 C  
BRANCH  14  15
HETATM   15  C   UNL     1      -9.068   6.079  69.022  1.00  0.00    -0.122 A  
HETATM   16  C   UNL     1     -10.087   6.213  71.230  1.00  0.00    -0.227 A  
HETATM   17  C   UNL     1      -7.828   5.911  69.640  1.00  0.00    -0.097 A  
HETATM   18  C   UNL     1      -7.720   5.877  71.034  1.00  0.00    -0.101 A  
HETATM   19  C   UNL     1     -10.197   6.251  69.832  1.00  0.00    -0.232 A  
HETATM   20  C   UNL     1      -8.847   6.005  71.863  1.00  0.00    -0.138 A  
BRANCH  20  21
HETATM   21  C   UNL     1      -8.748   5.893  73.396  1.00  0.00    -0.120 C  
HETATM   22  C   UNL     1     -10.121   5.996  74.101  1.00  0.00    -0.287 C  
HETATM   23  C   UNL     1      -8.125   4.540  73.797  1.00  0.00    -0.101 C  
HETATM   24  C   UNL     1      -7.870   7.032  73.956  1.00  0.00    -0.126 C  
ENDBRANCH  20  21
ENDBRANCH  14  15
ENDBRANCH   2  14
TORSDOF 5
ENDMDL
MODEL      200
REMARK 921   NORMALIZED FREE ENERGY PREDICTED BY IDOCK:   -2.59 KCAL/MOL
REMARK 922        TOTAL FREE ENERGY PREDICTED BY IDOCK:   -5.12 KCAL/MOL
REMARK 923 INTER-LIGAND FREE ENERGY PREDICTED BY IDOCK:   -4.69 KCAL/MOL
REMARK 924 INTRA-LIGAND FREE ENERGY PREDICTED BY IDOCK:   -0.43 KCAL/MOL
REMARK 927      BINDING AFFINITY PREDICTED BY RF-SCORE:    0.00 PKD
ROOT
HETATM    1  C   UNL     1     -10.265   7.106  67.528  1.00  0.00    -0.212 C  
HETATM    2  N   UNL     1      -8.926   7.461  67.046  1.00  0.00    -0.126 NA 
ENDROOT
BRANCH   2   3
HETATM    3  C   UNL     1      -7.959   6.376  67.320  1.00  0.00    -0.112 C  
BRANCH   3   4
HETATM    4  C   UNL     1      -8.272   5.066  66.611  1.00  0.00    -0.108 A  
HETATM    5  C   UNL     1      -8.305   4.955  65.192  1.00  0.00    -0.133 A  
HETATM    6  C   UNL     1      -8.557   3.939  67.406  1.00  0.00    -0.109 A  
HETATM    7  C   UNL     1      -8.035   6.026  64.312  1.00  0.00    -0.121 A  
HETATM    8  C   UNL     1      -8.879   2.718  66.824  1.00  0.00    -0.154 A  
HETATM    9  C   UNL     1      -8.129   5.885  62.927  1.00  0.00    -0.104 A  
HETATM   10  C   UNL     1      -8.924   2.603  65.438  1.00  0.00    -0.134 A  
HETATM   11  C   UNL     1      -8.480   4.659  62.380  1.00  0.00    -0.101 A  
HETATM   12  C   UNL     1      -8.649   3.705  64.615  1.00  0.00    -0.104 A  
HETATM   13  C   UNL     1      -8.729   3.574  63.218  1.00  0.00    -0.094 A  
ENDBRANCH   3   4
ENDBRANCH   2   3
BRANCH   2  14
HETATM   14  C   UNL     1      -8.438   8.718  67.639  1.00  0.00    -0.125 C  
BRANCH  14  15
HETATM   15  C   UNL     1      -9.110   9.959  67.089  1.00  0.00    -0.154 A  
HETATM   16  C   UNL     1     -10.351  11.124  65.348  1.00  0.00    -0.331 A  
HETATM   17  C   UNL     1      -9.206  11.105  67.880  1.00  0.00    -0.154 A  
HETATM   18  C   UNL     1      -9.881  12.240  67.419  1.00  0.00    -0.199 A  
HETATM   19  C   UNL     1      -9.672   9.985  65.807  1.00  0.00    -0.321 A  
HETATM   20  C   UNL     1     -10.488  12.271  66.153  1.00  0.00    -0.270 A  
BRANCH  20  21
HETATM   21  C   UNL     1     -11.297  13.489  65.666  1.00  0.00    -0.312 C  
HETATM   22  C   UNL     1     -12.603  13.096  64.937  1.00  0.00    -0.468 C  
HETATM   23  C   UNL     1     -11.687  14.385  66.859  1.00  0.00    -0.422 C  
HETATM   24  C   UNL     1     -10.459  14.319  64.670  1.00  0.00    -0.325 C  
ENDBRANCH  20  21
ENDBRANCH  14  15
ENDBRANCH   2  14
TORSDOF 5
ENDMDL
MODEL      201
REMARK 921   NORMALIZED FREE ENERGY PREDICTED BY IDOCK:   -2.42 KCAL/MOL
REMARK 922        TOTAL FREE ENERGY PREDICTED BY IDOCK:   -4.91 KCAL/MOL
REMARK 923 INTER-LIGAND FREE ENERGY PREDICTED BY IDOCK:   -4.42 KCAL/MOL
REMARK 924 INTRA-LIGAND FREE ENERGY PREDICTED BY IDOCK:   -0.49 KCAL/MOL
REMARK 927      BINDING AFFINITY PREDICTED BY RF-SCORE:    0.00 PKD
ROOT
HETATM    1  C   UNL     1     -10.596   7.676  73.299  1.00  0.00    -0.352 C  
HETATM    2  N   UNL     1     -10.226   7.041  72.029  1.00  0.00    -0.190 NA 
ENDROOT
BRANCH   2   3
HETATM    3  C   UNL     1      -8.930   7.555  71.537  1.00  0.00    -0.131 C  
BRANCH   3   4
HETATM    4  C   UNL     1      -8.058   6.506  70.860  1.00  0.00    -0.123 A  
HETATM    5  C   UNL     1      -7.358   5.506  71.592  1.00  0.00    -0.091 A  
HETATM    6  C   UNL     1      -7.936   6.558  69.458  1.00  0.00    -0.117 A  
HETATM    7  C   UNL     1      -7.417   5.373  72.997  1.00  0.00    -0.093 A  
HETATM    8  C   UNL     1      -7.133   5.649  68.777  1.00  0.00    -0.072 A  
HETATM    9  C   UNL     1      -6.674   4.410  73.680  1.00  0.00    -0.058 A  
HETATM   10  C   UNL     1      -6.437   4.675  69.486  1.00  0.00    -0.032 A  
HETATM   11  C   UNL     1      -5.861   3.536  72.971  1.00  0.00    -0.008 A  
HETATM   12  C   UNL     1      -6.533   4.595  70.884  1.00  0.00    -0.030 A  
HETATM   13  C   UNL     1      -5.799   3.622  71.583  1.00  0.00    -0.013 A  
ENDBRANCH   3   4
ENDBRANCH   2   3
BRANCH   2  14
HETATM   14  C   UNL     1     -11.256   7.232  70.993  1.00  0.00    -0.266 C  
BRANCH  14  15
HETATM   15  C   UNL     1     -11.189   8.577  70.299  1.00  0.00    -0.185 A  
HETATM   16  C   UNL     1     -11.529  10.988  70.274  1.00  0.00    -0.363 A  
HETATM   17  C   UNL     1     -10.613   8.677  69.033  1.00  0.00    -0.179 A  
HETATM   18  C   UNL     1     -10.479   9.918  68.401  1.00  0.00    -0.239 A  
HETATM   19  C   UNL     1     -11.666   9.744  70.908  1.00  0.00    -0.429 A  
HETATM   20  C   UNL     1     -10.913  11.106  69.013  1.00  0.00    -0.286 A  
BRANCH  20  21
HETATM   21  C   UNL     1     -10.703  12.485  68.359  1.00  0.00    -0.259 C  
HETATM   22  C   UNL     1     -11.429  12.627  67.001  1.00  0.00    -0.406 C  
HETATM   23  C   UNL     1     -11.228  13.602  69.283  1.00  0.00    -0.284 C  
HETATM   24  C   UNL     1      -9.201  12.722  68.093  1.00  0.00    -0.212 C  
ENDBRANCH  20  21
ENDBRANCH  14  15
ENDBRANCH   2  14
TORSDOF 5
ENDMDL
MODEL      202
REMARK 921   NORMALIZED FREE ENERGY PREDICTED BY IDOCK:   -2.42 KCAL/MOL
REMARK 922        TOTAL FREE ENERGY PREDICTED BY IDOCK:   -4.90 KCAL/MOL
REMARK 923 INTER-LIGAND FREE ENERGY PREDICTED BY IDOCK:   -4.57 KCAL/MOL
REMARK 924 INTRA-LIGAND FREE ENERGY PREDICTED BY IDOCK:   -0.34 KCAL/MOL
REMARK 927      BINDING AFFINITY PREDICTED BY RF-SCORE:    0.00 PKD
ROOT
HETATM    1  C   UNL     1      -7.956   5.397  69.160  1.00  0.00    -0.094 C  
HETATM    2  N   UNL     1      -9.392   5.110  69.074  1.00  0.00    -0.114 NA 
ENDROOT
BRANCH   2   3
HETATM    3  C   UNL     1      -9.712   3.809  69.698  1.00  0.00    -0.107 C  
BRANCH   3   4
HETATM    4  C   UNL     1      -9.168   3.642  71.110  1.00  0.00    -0.196 A  
HETATM    5  C   UNL     1      -9.539   4.506  72.179  1.00  0.00    -0.206 A  
HETATM    6  C   UNL     1      -8.247   2.602  71.342  1.00  0.00    -0.073 A  
HETATM    7  C   UNL     1     -10.452   5.575  72.045  1.00  0.00    -0.277 A  
HETATM    8  C   UNL     1      -7.688   2.410  72.601  1.00  0.00    -0.053 A  
HETATM    9  C   UNL     1     -10.749   6.430  73.107  1.00  0.00    -0.294 A  
HETATM   10  C   UNL     1      -8.038   3.257  73.648  1.00  0.00    -0.074 A  
HETATM   11  C   UNL     1     -10.152   6.227  74.344  1.00  0.00    -0.355 A  
HETATM   12  C   UNL     1      -8.949   4.305  73.453  1.00  0.00    -0.104 A  
HETATM   13  C   UNL     1      -9.266   5.166  74.518  1.00  0.00    -0.118 A  
ENDBRANCH   3   4
ENDBRANCH   2   3
BRANCH   2  14
HETATM   14  C   UNL     1      -9.877   5.122  67.682  1.00  0.00    -0.160 C  
BRANCH  14  15
HETATM   15  C   UNL     1      -9.738   6.464  66.994  1.00  0.00    -0.182 A  
HETATM   16  C   UNL     1     -10.330   8.813  66.751  1.00  0.00    -0.328 A  
HETATM   17  C   UNL     1      -8.782   6.634  65.992  1.00  0.00    -0.155 A  
HETATM   18  C   UNL     1      -8.590   7.881  65.389  1.00  0.00    -0.118 A  
HETATM   19  C   UNL     1     -10.527   7.563  67.355  1.00  0.00    -0.367 A  
HETATM   20  C   UNL     1      -9.342   9.006  65.767  1.00  0.00    -0.302 A  
BRANCH  20  21
HETATM   21  C   UNL     1      -9.086  10.400  65.162  1.00  0.00    -0.232 C  
HETATM   22  C   UNL     1      -8.048  10.381  64.016  1.00  0.00    -0.092 C  
HETATM   23  C   UNL     1     -10.393  10.984  64.590  1.00  0.00    -0.410 C  
HETATM   24  C   UNL     1      -8.543  11.356  66.245  1.00  0.00    -0.156 C  
ENDBRANCH  20  21
ENDBRANCH  14  15
ENDBRANCH   2  14
TORSDOF 5
ENDMDL
MODEL      203
REMARK 921   NORMALIZED FREE ENERGY PREDICTED BY IDOCK:   -2.41 KCAL/MOL
REMARK 922        TOTAL FREE ENERGY PREDICTED BY IDOCK:   -4.90 KCAL/MOL
REMARK 923 INTER-LIGAND FREE ENERGY PREDICTED BY IDOCK:   -5.27 KCAL/MOL
REMARK 924 INTRA-LIGAND FREE ENERGY PREDICTED BY IDOCK:    0.38 KCAL/MOL
REMARK 927      BINDING AFFINITY PREDICTED BY RF-SCORE:    0.00 PKD
ROOT
HETATM    1  C   UNL     1      -6.805  10.690  68.296  1.00  0.00    -0.068 C  
HETATM    2  N   UNL     1      -8.172  10.483  68.786  1.00  0.00    -0.125 NA 
ENDROOT
BRANCH   2   3
HETATM    3  C   UNL     1      -8.453   9.045  68.984  1.00  0.00    -0.132 C  
BRANCH   3   4
HETATM    4  C   UNL     1      -9.123   8.715  70.312  1.00  0.00    -0.172 A  
HETATM    5  C   UNL     1     -10.435   9.160  70.636  1.00  0.00    -0.305 A  
HETATM    6  C   UNL     1      -8.390   7.961  71.248  1.00  0.00    -0.120 A  
HETATM    7  C   UNL     1     -11.246   9.920  69.765  1.00  0.00    -0.279 A  
HETATM    8  C   UNL     1      -8.929   7.649  72.492  1.00  0.00    -0.191 A  
HETATM    9  C   UNL     1     -12.509  10.378  70.143  1.00  0.00    -0.247 A  
HETATM   10  C   UNL     1     -10.207   8.088  72.821  1.00  0.00    -0.389 A  
HETATM   11  C   UNL     1     -13.006  10.071  71.403  1.00  0.00    -0.517 A  
HETATM   12  C   UNL     1     -10.965   8.844  71.914  1.00  0.00    -0.439 A  
HETATM   13  C   UNL     1     -12.243   9.302  72.278  1.00  0.00    -0.305 A  
ENDBRANCH   3   4
ENDBRANCH   2   3
BRANCH   2  14
HETATM   14  C   UNL     1      -9.180  11.061  67.880  1.00  0.00    -0.155 C  
BRANCH  14  15
HETATM   15  C   UNL     1      -9.061  12.561  67.705  1.00  0.00    -0.191 A  
HETATM   16  C   UNL     1      -8.019  14.698  68.232  1.00  0.00    -0.133 A  
HETATM   17  C   UNL     1      -9.841  13.214  66.750  1.00  0.00    -0.251 A  
HETATM   18  C   UNL     1      -9.700  14.587  66.525  1.00  0.00    -0.301 A  
HETATM   19  C   UNL     1      -8.160  13.321  68.461  1.00  0.00    -0.094 A  
HETATM   20  C   UNL     1      -8.772  15.359  67.243  1.00  0.00    -0.215 A  
BRANCH  20  21
HETATM   21  C   UNL     1      -8.557  16.856  66.951  1.00  0.00    -0.241 C  
HETATM   22  C   UNL     1      -9.399  17.367  65.759  1.00  0.00     0.147 C  
HETATM   23  C   UNL     1      -8.938  17.703  68.182  1.00  0.00    -0.269 C  
HETATM   24  C   UNL     1      -7.077  17.121  66.601  1.00  0.00    -0.283 C  
ENDBRANCH  20  21
ENDBRANCH  14  15
ENDBRANCH   2  14
TORSDOF 5
ENDMDL
MODEL      204
REMARK 921   NORMALIZED FREE ENERGY PREDICTED BY IDOCK:   -2.37 KCAL/MOL
REMARK 922        TOTAL FREE ENERGY PREDICTED BY IDOCK:   -4.85 KCAL/MOL
REMARK 923 INTER-LIGAND FREE ENERGY PREDICTED BY IDOCK:   -4.45 KCAL/MOL
REMARK 924 INTRA-LIGAND FREE ENERGY PREDICTED BY IDOCK:   -0.39 KCAL/MOL
REMARK 927      BINDING AFFINITY PREDICTED BY RF-SCORE:    0.00 PKD
ROOT
HETATM    1  C   UNL     1      -9.220   6.989  69.399  1.00  0.00    -0.147 C  
HETATM    2  N   UNL     1     -10.638   7.113  69.047  1.00  0.00    -0.213 NA 
ENDROOT
BRANCH   2   3
HETATM    3  C   UNL     1     -11.487   6.345  69.984  1.00  0.00    -0.428 C  
BRANCH   3   4
HETATM    4  C   UNL     1     -10.968   6.314  71.415  1.00  0.00    -0.327 A  
HETATM    5  C   UNL     1     -10.301   5.182  71.961  1.00  0.00    -0.274 A  
HETATM    6  C   UNL     1     -11.187   7.450  72.219  1.00  0.00    -0.314 A  
HETATM    7  C   UNL     1     -10.036   3.999  71.236  1.00  0.00    -0.202 A  
HETATM    8  C   UNL     1     -10.766   7.478  73.544  1.00  0.00    -0.299 A  
HETATM    9  C   UNL     1      -9.423   2.893  71.826  1.00  0.00    -0.206 A  
HETATM   10  C   UNL     1     -10.122   6.372  74.088  1.00  0.00    -0.353 A  
HETATM   11  C   UNL     1      -9.040   2.945  73.159  1.00  0.00    -0.102 A  
HETATM   12  C   UNL     1      -9.890   5.222  73.318  1.00  0.00    -0.178 A  
HETATM   13  C   UNL     1      -9.263   4.105  73.897  1.00  0.00    -0.096 A  
ENDBRANCH   3   4
ENDBRANCH   2   3
BRANCH   2  14
HETATM   14  C   UNL     1     -10.907   6.674  67.666  1.00  0.00    -0.315 C  
BRANCH  14  15
HETATM   15  C   UNL     1      -9.904   5.672  67.134  1.00  0.00    -0.167 A  
HETATM   16  C   UNL     1      -9.048   3.401  66.938  1.00  0.00    -0.188 A  
HETATM   17  C   UNL     1      -8.923   6.085  66.230  1.00  0.00    -0.156 A  
HETATM   18  C   UNL     1      -8.028   5.166  65.674  1.00  0.00    -0.108 A  
HETATM   19  C   UNL     1      -9.945   4.322  67.500  1.00  0.00    -0.100 A  
HETATM   20  C   UNL     1      -8.081   3.800  65.996  1.00  0.00    -0.100 A  
BRANCH  20  21
HETATM   21  C   UNL     1      -7.148   2.769  65.332  1.00  0.00    -0.057 C  
HETATM   22  C   UNL     1      -5.754   3.344  64.992  1.00  0.00    -0.017 C  
HETATM   23  C   UNL     1      -6.933   1.561  66.266  1.00  0.00    -0.042 C  
HETATM   24  C   UNL     1      -7.765   2.272  64.007  1.00  0.00    -0.064 C  
ENDBRANCH  20  21
ENDBRANCH  14  15
ENDBRANCH   2  14
TORSDOF 5
ENDMDL
MODEL      205
REMARK 921   NORMALIZED FREE ENERGY PREDICTED BY IDOCK:   -2.36 KCAL/MOL
REMARK 922        TOTAL FREE ENERGY PREDICTED BY IDOCK:   -4.83 KCAL/MOL
REMARK 923 INTER-LIGAND FREE ENERGY PREDICTED BY IDOCK:   -4.51 KCAL/MOL
REMARK 924 INTRA-LIGAND FREE ENERGY PREDICTED BY IDOCK:   -0.32 KCAL/MOL
REMARK 927      BINDING AFFINITY PREDICTED BY RF-SCORE:    0.00 PKD
ROOT
HETATM    1  C   UNL     1      -6.067   9.505  66.783  1.00  0.00    -0.064 C  
HETATM    2  N   UNL     1      -7.292   8.716  66.955  1.00  0.00    -0.079 NA 
ENDROOT
BRANCH   2   3
HETATM    3  C   UNL     1      -7.913   8.409  65.650  1.00  0.00    -0.115 C  
BRANCH   3   4
HETATM    4  C   UNL     1      -8.468   6.995  65.538  1.00  0.00    -0.120 A  
HETATM    5  C   UNL     1      -8.010   6.070  64.558  1.00  0.00    -0.127 A  
HETATM    6  C   UNL     1      -9.487   6.616  66.433  1.00  0.00    -0.166 A  
HETATM    7  C   UNL     1      -6.995   6.357  63.618  1.00  0.00    -0.047 A  
HETATM    8  C   UNL     1     -10.059   5.350  66.368  1.00  0.00    -0.239 A  
HETATM    9  C   UNL     1      -6.612   5.438  62.641  1.00  0.00    -0.025 A  
HETATM   10  C   UNL     1      -9.624   4.444  65.406  1.00  0.00    -0.187 A  
HETATM   11  C   UNL     1      -7.223   4.193  62.587  1.00  0.00    -0.040 A  
HETATM   12  C   UNL     1      -8.613   4.788  64.497  1.00  0.00    -0.144 A  
HETATM   13  C   UNL     1      -8.210   3.867  63.515  1.00  0.00    -0.090 A  
ENDBRANCH   3   4
ENDBRANCH   2   3
BRANCH   2  14
HETATM   14  C   UNL     1      -8.272   9.396  67.820  1.00  0.00    -0.114 C  
BRANCH  14  15
HETATM   15  C   UNL     1      -9.020  10.520  67.135  1.00  0.00    -0.147 A  
HETATM   16  C   UNL     1     -10.939  11.371  65.902  1.00  0.00    -0.268 A  
HETATM   17  C   UNL     1      -8.517  11.821  67.185  1.00  0.00    -0.170 A  
HETATM   18  C   UNL     1      -9.223  12.886  66.617  1.00  0.00    -0.222 A  
HETATM   19  C   UNL     1     -10.231  10.301  66.468  1.00  0.00    -0.289 A  
HETATM   20  C   UNL     1     -10.461  12.693  65.981  1.00  0.00    -0.288 A  
BRANCH  20  21
HETATM   21  C   UNL     1     -11.281  13.869  65.419  1.00  0.00    -0.306 C  
HETATM   22  C   UNL     1     -10.448  15.160  65.245  1.00  0.00    -0.434 C  
HETATM   23  C   UNL     1     -11.863  13.506  64.038  1.00  0.00    -0.476 C  
HETATM   24  C   UNL     1     -12.444  14.210  66.376  1.00  0.00    -0.353 C  
ENDBRANCH  20  21
ENDBRANCH  14  15
ENDBRANCH   2  14
TORSDOF 5
ENDMDL
MODEL      206
REMARK 921   NORMALIZED FREE ENERGY PREDICTED BY IDOCK:   -2.35 KCAL/MOL
REMARK 922        TOTAL FREE ENERGY PREDICTED BY IDOCK:   -4.81 KCAL/MOL
REMARK 923 INTER-LIGAND FREE ENERGY PREDICTED BY IDOCK:   -4.67 KCAL/MOL
REMARK 924 INTRA-LIGAND FREE ENERGY PREDICTED BY IDOCK:   -0.15 KCAL/MOL
REMARK 927      BINDING AFFINITY PREDICTED BY RF-SCORE:    0.00 PKD
ROOT
HETATM    1  C   UNL     1      -6.858  10.547  68.144  1.00  0.00    -0.072 C  
HETATM    2  N   UNL     1      -8.154   9.895  67.929  1.00  0.00    -0.108 NA 
ENDROOT
BRANCH   2   3
HETATM    3  C   UNL     1      -7.991   8.437  67.743  1.00  0.00    -0.111 C  
BRANCH   3   4
HETATM    4  C   UNL     1      -8.976   7.591  68.537  1.00  0.00    -0.128 A  
HETATM    5  C   UNL     1      -8.920   6.169  68.555  1.00  0.00    -0.115 A  
HETATM    6  C   UNL     1      -9.986   8.258  69.257  1.00  0.00    -0.192 A  
HETATM    7  C   UNL     1      -7.948   5.411  67.866  1.00  0.00    -0.096 A  
HETATM    8  C   UNL     1     -10.937   7.546  69.980  1.00  0.00    -0.252 A  
HETATM    9  C   UNL     1      -7.960   4.015  67.869  1.00  0.00    -0.089 A  
HETATM   10  C   UNL     1     -10.896   6.156  69.994  1.00  0.00    -0.408 A  
HETATM   11  C   UNL     1      -8.940   3.336  68.579  1.00  0.00    -0.185 A  
HETATM   12  C   UNL     1      -9.906   5.457  69.287  1.00  0.00    -0.249 A  
HETATM   13  C   UNL     1      -9.900   4.052  69.291  1.00  0.00    -0.089 A  
ENDBRANCH   3   4
ENDBRANCH   2   3
BRANCH   2  14
HETATM   14  C   UNL     1      -8.876  10.461  66.776  1.00  0.00    -0.130 C  
BRANCH  14  15
HETATM   15  C   UNL     1      -9.218  11.929  66.926  1.00  0.00    -0.193 A  
HETATM   16  C   UNL     1      -9.320  13.977  68.239  1.00  0.00    -0.208 A  
HETATM   17  C   UNL     1      -9.671  12.653  65.822  1.00  0.00    -0.183 A  
HETATM   18  C   UNL     1      -9.929  14.024  65.920  1.00  0.00    -0.325 A  
HETATM   19  C   UNL     1      -9.064  12.601  68.144  1.00  0.00    -0.204 A  
HETATM   20  C   UNL     1      -9.740  14.725  67.123  1.00  0.00    -0.234 A  
BRANCH  20  21
HETATM   21  C   UNL     1      -9.949  16.248  67.221  1.00  0.00    -0.250 C  
HETATM   22  C   UNL     1     -10.271  16.904  65.858  1.00  0.00    -0.330 C  
HETATM   23  C   UNL     1     -11.118  16.568  68.174  1.00  0.00    -0.303 C  
HETATM   24  C   UNL     1      -8.669  16.925  67.756  1.00  0.00    -0.212 C  
ENDBRANCH  20  21
ENDBRANCH  14  15
ENDBRANCH   2  14
TORSDOF 5
ENDMDL
MODEL      207
REMARK 921   NORMALIZED FREE ENERGY PREDICTED BY IDOCK:   -2.32 KCAL/MOL
REMARK 922        TOTAL FREE ENERGY PREDICTED BY IDOCK:   -4.77 KCAL/MOL
REMARK 923 INTER-LIGAND FREE ENERGY PREDICTED BY IDOCK:   -4.55 KCAL/MOL
REMARK 924 INTRA-LIGAND FREE ENERGY PREDICTED BY IDOCK:   -0.22 KCAL/MOL
REMARK 927      BINDING AFFINITY PREDICTED BY RF-SCORE:    0.00 PKD
ROOT
HETATM    1  C   UNL     1     -12.420   7.709  71.584  1.00  0.00    -0.335 C  
HETATM    2  N   UNL     1     -11.396   6.697  71.305  1.00  0.00    -0.283 NA 
ENDROOT
BRANCH   2   3
HETATM    3  C   UNL     1     -10.057   7.170  71.718  1.00  0.00    -0.183 C  
BRANCH   3   4
HETATM    4  C   UNL     1      -8.973   6.101  71.667  1.00  0.00    -0.142 A  
HETATM    5  C   UNL     1      -7.796   6.244  70.879  1.00  0.00    -0.107 A  
HETATM    6  C   UNL     1      -9.173   4.926  72.417  1.00  0.00    -0.151 A  
HETATM    7  C   UNL     1      -7.508   7.382  70.095  1.00  0.00    -0.087 A  
HETATM    8  C   UNL     1      -8.238   3.897  72.393  1.00  0.00    -0.093 A  
HETATM    9  C   UNL     1      -6.365   7.459  69.297  1.00  0.00    -0.036 A  
HETATM   10  C   UNL     1      -7.090   4.024  71.618  1.00  0.00    -0.045 A  
HETATM   11  C   UNL     1      -5.466   6.402  69.276  1.00  0.00    -0.013 A  
HETATM   12  C   UNL     1      -6.859   5.179  70.856  1.00  0.00    -0.047 A  
HETATM   13  C   UNL     1      -5.707   5.274  70.057  1.00  0.00    -0.016 A  
ENDBRANCH   3   4
ENDBRANCH   2   3
BRANCH   2  14
HETATM   14  C   UNL     1     -11.366   6.315  69.882  1.00  0.00    -0.434 C  
BRANCH  14  15
HETATM   15  C   UNL     1     -10.902   7.422  68.958  1.00  0.00    -0.108 A  
HETATM   16  C   UNL     1     -10.176   8.220  66.776  1.00  0.00    -0.375 A  
HETATM   17  C   UNL     1     -10.863   8.739  69.418  1.00  0.00    -0.123 A  
HETATM   18  C   UNL     1     -10.502   9.786  68.563  1.00  0.00    -0.239 A  
HETATM   19  C   UNL     1     -10.534   7.168  67.632  1.00  0.00    -0.306 A  
HETATM   20  C   UNL     1     -10.171   9.557  67.218  1.00  0.00    -0.295 A  
BRANCH  20  21
HETATM   21  C   UNL     1      -9.845  10.711  66.250  1.00  0.00    -0.263 C  
HETATM   22  C   UNL     1      -9.559  10.230  64.808  1.00  0.00    -0.369 C  
HETATM   23  C   UNL     1     -11.025  11.702  66.180  1.00  0.00    -0.339 C  
HETATM   24  C   UNL     1      -8.587  11.466  66.730  1.00  0.00    -0.166 C  
ENDBRANCH  20  21
ENDBRANCH  14  15
ENDBRANCH   2  14
TORSDOF 5
ENDMDL
MODEL      208
REMARK 921   NORMALIZED FREE ENERGY PREDICTED BY IDOCK:   -2.19 KCAL/MOL
REMARK 922        TOTAL FREE ENERGY PREDICTED BY IDOCK:   -4.61 KCAL/MOL
REMARK 923 INTER-LIGAND FREE ENERGY PREDICTED BY IDOCK:   -3.97 KCAL/MOL
REMARK 924 INTRA-LIGAND FREE ENERGY PREDICTED BY IDOCK:   -0.64 KCAL/MOL
REMARK 927      BINDING AFFINITY PREDICTED BY RF-SCORE:    0.00 PKD
ROOT
HETATM    1  C   UNL     1     -10.639   6.720  71.962  1.00  0.00    -0.213 C  
HETATM    2  N   UNL     1     -10.724   6.052  70.659  1.00  0.00    -0.258 NA 
ENDROOT
BRANCH   2   3
HETATM    3  C   UNL     1      -9.382   5.876  70.064  1.00  0.00    -0.148 C  
BRANCH   3   4
HETATM    4  C   UNL     1      -9.053   4.440  69.678  1.00  0.00    -0.174 A  
HETATM    5  C   UNL     1      -8.924   4.024  68.322  1.00  0.00    -0.156 A  
HETATM    6  C   UNL     1      -8.896   3.500  70.714  1.00  0.00    -0.139 A  
HETATM    7  C   UNL     1      -9.063   4.891  67.217  1.00  0.00    -0.122 A  
HETATM    8  C   UNL     1      -8.624   2.165  70.432  1.00  0.00    -0.100 A  
HETATM    9  C   UNL     1      -8.979   4.431  65.902  1.00  0.00    -0.124 A  
HETATM   10  C   UNL     1      -8.506   1.749  69.110  1.00  0.00    -0.079 A  
HETATM   11  C   UNL     1      -8.733   3.087  65.656  1.00  0.00    -0.128 A  
HETATM   12  C   UNL     1      -8.658   2.657  68.052  1.00  0.00    -0.116 A  
HETATM   13  C   UNL     1      -8.564   2.209  66.724  1.00  0.00    -0.116 A  
ENDBRANCH   3   4
ENDBRANCH   2   3
BRANCH   2  14
HETATM   14  C   UNL     1     -11.589   6.783  69.716  1.00  0.00    -0.227 C  
BRANCH  14  15
HETATM   15  C   UNL     1     -10.923   7.982  69.075  1.00  0.00     0.086 A  
HETATM   16  C   UNL     1     -10.127   9.191  67.117  1.00  0.00    -0.301 A  
HETATM   17  C   UNL     1     -10.561   9.078  69.859  1.00  0.00    -0.240 A  
HETATM   18  C   UNL     1     -10.005  10.223  69.279  1.00  0.00    -0.244 A  
HETATM   19  C   UNL     1     -10.681   8.041  67.697  1.00  0.00    -0.203 A  
HETATM   20  C   UNL     1      -9.795  10.318  67.894  1.00  0.00    -0.181 A  
BRANCH  20  21
HETATM   21  C   UNL     1      -9.253  11.602  67.238  1.00  0.00    -0.170 C  
HETATM   22  C   UNL     1      -9.880  12.890  67.821  1.00  0.00    -0.221 C  
HETATM   23  C   UNL     1      -7.727  11.703  67.434  1.00  0.00    -0.147 C  
HETATM   24  C   UNL     1      -9.563  11.596  65.725  1.00  0.00    -0.255 C  
ENDBRANCH  20  21
ENDBRANCH  14  15
ENDBRANCH   2  14
TORSDOF 5
ENDMDL
MODEL      209
REMARK 921   NORMALIZED FREE ENERGY PREDICTED BY IDOCK:   -2.08 KCAL/MOL
REMARK 922        TOTAL FREE ENERGY PREDICTED BY IDOCK:   -4.46 KCAL/MOL
REMARK 923 INTER-LIGAND FREE ENERGY PREDICTED BY IDOCK:   -3.94 KCAL/MOL
REMARK 924 INTRA-LIGAND FREE ENERGY PREDICTED BY IDOCK:   -0.52 KCAL/MOL
REMARK 927      BINDING AFFINITY PREDICTED BY RF-SCORE:    0.00 PKD
ROOT
HETATM    1  C   UNL     1      -7.503  13.017  69.422  1.00  0.00     0.439 C  
HETATM    2  N   UNL     1      -7.883  12.215  68.254  1.00  0.00    -0.145 NA 
ENDROOT
BRANCH   2   3
HETATM    3  C   UNL     1      -9.339  12.292  68.008  1.00  0.00    -0.195 C  
BRANCH   3   4
HETATM    4  C   UNL     1      -9.928  13.686  68.178  1.00  0.00    -0.246 A  
HETATM    5  C   UNL     1     -10.977  13.964  69.099  1.00  0.00    -0.253 A  
HETATM    6  C   UNL     1      -9.418  14.719  67.369  1.00  0.00    -0.207 A  
HETATM    7  C   UNL     1     -11.554  12.997  69.951  1.00  0.00    -0.249 A  
HETATM    8  C   UNL     1      -9.930  16.009  67.450  1.00  0.00    -0.241 A  
HETATM    9  C   UNL     1     -12.616  13.302  70.803  1.00  0.00    -0.357 A  
HETATM   10  C   UNL     1     -10.963  16.287  68.341  1.00  0.00    -0.351 A  
HETATM   11  C   UNL     1     -13.121  14.594  70.840  1.00  0.00    -0.416 A  
HETATM   12  C   UNL     1     -11.498  15.283  69.161  1.00  0.00    -0.330 A  
HETATM   13  C   UNL     1     -12.560  15.579  70.031  1.00  0.00    -0.232 A  
ENDBRANCH   3   4
ENDBRANCH   2   3
BRANCH   2  14
HETATM   14  C   UNL     1      -7.482  10.804  68.396  1.00  0.00    -0.095 C  
BRANCH  14  15
HETATM   15  C   UNL     1      -7.452  10.040  67.088  1.00  0.00    -0.091 A  
HETATM   16  C   UNL     1      -8.067   8.123  65.719  1.00  0.00    -0.115 A  
HETATM   17  C   UNL     1      -6.844  10.605  65.967  1.00  0.00    -0.129 A  
HETATM   18  C   UNL     1      -6.863   9.948  64.733  1.00  0.00    -0.129 A  
HETATM   19  C   UNL     1      -8.047   8.779  66.958  1.00  0.00    -0.099 A  
HETATM   20  C   UNL     1      -7.492   8.703  64.571  1.00  0.00    -0.107 A  
BRANCH  20  21
HETATM   21  C   UNL     1      -7.583   8.006  63.201  1.00  0.00    -0.126 C  
HETATM   22  C   UNL     1      -8.773   8.502  62.347  1.00  0.00    -0.074 C  
HETATM   23  C   UNL     1      -6.297   8.253  62.387  1.00  0.00    -0.088 C  
HETATM   24  C   UNL     1      -7.769   6.485  63.390  1.00  0.00    -0.106 C  
ENDBRANCH  20  21
ENDBRANCH  14  15
ENDBRANCH   2  14
TORSDOF 5
ENDMDL
MODEL      210
REMARK 921   NORMALIZED FREE ENERGY PREDICTED BY IDOCK:   -2.07 KCAL/MOL
REMARK 922        TOTAL FREE ENERGY PREDICTED BY IDOCK:   -4.46 KCAL/MOL
REMARK 923 INTER-LIGAND FREE ENERGY PREDICTED BY IDOCK:   -4.08 KCAL/MOL
REMARK 924 INTRA-LIGAND FREE ENERGY PREDICTED BY IDOCK:   -0.38 KCAL/MOL
REMARK 927      BINDING AFFINITY PREDICTED BY RF-SCORE:    0.00 PKD
ROOT
HETATM    1  C   UNL     1     -11.467   8.178  69.546  1.00  0.00     0.442 C  
HETATM    2  N   UNL     1     -10.267   8.953  69.214  1.00  0.00    -0.204 NA 
ENDROOT
BRANCH   2   3
HETATM    3  C   UNL     1     -10.407   9.610  67.897  1.00  0.00    -0.224 C  
BRANCH   3   4
HETATM    4  C   UNL     1     -10.407  11.132  67.955  1.00  0.00    -0.211 A  
HETATM    5  C   UNL     1      -9.221  11.902  67.790  1.00  0.00    -0.184 A  
HETATM    6  C   UNL     1     -11.632  11.781  68.203  1.00  0.00    -0.391 A  
HETATM    7  C   UNL     1      -7.949  11.344  67.538  1.00  0.00    -0.127 A  
HETATM    8  C   UNL     1     -11.699  13.166  68.298  1.00  0.00    -0.384 A  
HETATM    9  C   UNL     1      -6.804  12.134  67.434  1.00  0.00    -0.147 A  
HETATM   10  C   UNL     1     -10.544  13.926  68.148  1.00  0.00    -0.258 A  
HETATM   11  C   UNL     1      -6.902  13.513  67.561  1.00  0.00    -0.156 A  
HETATM   12  C   UNL     1      -9.306  13.314  67.902  1.00  0.00    -0.214 A  
HETATM   13  C   UNL     1      -8.146  14.099  67.784  1.00  0.00    -0.170 A  
ENDBRANCH   3   4
ENDBRANCH   2   3
BRANCH   2  14
HETATM   14  C   UNL     1      -9.050   8.121  69.222  1.00  0.00    -0.151 C  
BRANCH  14  15
HETATM   15  C   UNL     1      -9.117   6.943  70.171  1.00  0.00    -0.152 A  
HETATM   16  C   UNL     1      -9.230   6.013  72.419  1.00  0.00    -0.143 A  
HETATM   17  C   UNL     1      -9.234   5.648  69.664  1.00  0.00    -0.163 A  
HETATM   18  C   UNL     1      -9.365   4.551  70.522  1.00  0.00    -0.218 A  
HETATM   19  C   UNL     1      -9.096   7.114  71.561  1.00  0.00    -0.143 A  
HETATM   20  C   UNL     1      -9.388   4.706  71.917  1.00  0.00    -0.185 A  
BRANCH  20  21
HETATM   21  C   UNL     1      -9.607   3.513  72.867  1.00  0.00    -0.169 C  
HETATM   22  C   UNL     1     -11.051   3.433  73.415  1.00  0.00    -0.288 C  
HETATM   23  C   UNL     1      -9.316   2.186  72.137  1.00  0.00    -0.153 C  
HETATM   24  C   UNL     1      -8.669   3.628  74.088  1.00  0.00    -0.088 C  
ENDBRANCH  20  21
ENDBRANCH  14  15
ENDBRANCH   2  14
TORSDOF 5
ENDMDL
MODEL      211
REMARK 921   NORMALIZED FREE ENERGY PREDICTED BY IDOCK:   -2.07 KCAL/MOL
REMARK 922        TOTAL FREE ENERGY PREDICTED BY IDOCK:   -4.46 KCAL/MOL
REMARK 923 INTER-LIGAND FREE ENERGY PREDICTED BY IDOCK:   -3.94 KCAL/MOL
REMARK 924 INTRA-LIGAND FREE ENERGY PREDICTED BY IDOCK:   -0.51 KCAL/MOL
REMARK 927      BINDING AFFINITY PREDICTED BY RF-SCORE:    0.00 PKD
ROOT
HETATM    1  C   UNL     1     -10.522   8.457  66.838  1.00  0.00    -0.289 C  
HETATM    2  N   UNL     1      -9.564   8.748  67.910  1.00  0.00    -0.142 NA 
ENDROOT
BRANCH   2   3
HETATM    3  C   UNL     1      -8.602   7.637  68.078  1.00  0.00    -0.123 C  
BRANCH   3   4
HETATM    4  C   UNL     1      -8.021   7.111  66.772  1.00  0.00    -0.108 A  
HETATM    5  C   UNL     1      -8.243   5.780  66.319  1.00  0.00    -0.109 A  
HETATM    6  C   UNL     1      -7.218   7.983  66.011  1.00  0.00    -0.069 A  
HETATM    7  C   UNL     1      -9.031   4.835  67.011  1.00  0.00    -0.111 A  
HETATM    8  C   UNL     1      -6.631   7.558  64.824  1.00  0.00    -0.040 A  
HETATM    9  C   UNL     1      -9.181   3.524  66.556  1.00  0.00    -0.186 A  
HETATM   10  C   UNL     1      -6.835   6.256  64.379  1.00  0.00    -0.042 A  
HETATM   11  C   UNL     1      -8.559   3.126  65.381  1.00  0.00    -0.110 A  
HETATM   12  C   UNL     1      -7.626   5.360  65.112  1.00  0.00    -0.079 A  
HETATM   13  C   UNL     1      -7.795   4.040  64.660  1.00  0.00    -0.085 A  
ENDBRANCH   3   4
ENDBRANCH   2   3
BRANCH   2  14
HETATM   14  C   UNL     1     -10.234   9.018  69.194  1.00  0.00    -0.205 C  
BRANCH  14  15
HETATM   15  C   UNL     1     -10.245   7.836  70.141  1.00  0.00    -0.205 A  
HETATM   16  C   UNL     1     -11.008   5.612  70.775  1.00  0.00    -0.257 A  
HETATM   17  C   UNL     1      -9.399   7.826  71.251  1.00  0.00    -0.171 A  
HETATM   18  C   UNL     1      -9.344   6.717  72.102  1.00  0.00    -0.145 A  
HETATM   19  C   UNL     1     -11.067   6.724  69.922  1.00  0.00    -0.374 A  
HETATM   20  C   UNL     1     -10.129   5.575  71.874  1.00  0.00    -0.239 A  
BRANCH  20  21
HETATM   21  C   UNL     1     -10.021   4.321  72.761  1.00  0.00    -0.206 C  
HETATM   22  C   UNL     1     -11.262   4.105  73.659  1.00  0.00    -0.312 C  
HETATM   23  C   UNL     1      -9.859   3.059  71.889  1.00  0.00    -0.236 C  
HETATM   24  C   UNL     1      -8.802   4.439  73.700  1.00  0.00    -0.101 C  
ENDBRANCH  20  21
ENDBRANCH  14  15
ENDBRANCH   2  14
TORSDOF 5
ENDMDL
MODEL      212
REMARK 921   NORMALIZED FREE ENERGY PREDICTED BY IDOCK:   -2.02 KCAL/MOL
REMARK 922        TOTAL FREE ENERGY PREDICTED BY IDOCK:   -4.39 KCAL/MOL
REMARK 923 INTER-LIGAND FREE ENERGY PREDICTED BY IDOCK:   -3.63 KCAL/MOL
REMARK 924 INTRA-LIGAND FREE ENERGY PREDICTED BY IDOCK:   -0.76 KCAL/MOL
REMARK 927      BINDING AFFINITY PREDICTED BY RF-SCORE:    0.00 PKD
ROOT
HETATM    1  C   UNL     1     -12.604   7.205  70.623  1.00  0.00    -0.034 C  
HETATM    2  N   UNL     1     -11.312   6.520  70.507  1.00  0.00    -0.341 NA 
ENDROOT
BRANCH   2   3
HETATM    3  C   UNL     1     -10.192   7.464  70.708  1.00  0.00    -0.197 C  
BRANCH   3   4
HETATM    4  C   UNL     1      -9.350   7.182  71.945  1.00  0.00    -0.150 A  
HETATM    5  C   UNL     1      -7.940   7.000  71.884  1.00  0.00    -0.098 A  
HETATM    6  C   UNL     1     -10.014   7.079  73.183  1.00  0.00    -0.242 A  
HETATM    7  C   UNL     1      -7.186   7.084  70.693  1.00  0.00    -0.068 A  
HETATM    8  C   UNL     1      -9.311   6.794  74.348  1.00  0.00    -0.259 A  
HETATM    9  C   UNL     1      -5.811   6.848  70.671  1.00  0.00    -0.027 A  
HETATM   10  C   UNL     1      -7.934   6.605  74.296  1.00  0.00    -0.119 A  
HETATM   11  C   UNL     1      -5.145   6.539  71.848  1.00  0.00    -0.027 A  
HETATM   12  C   UNL     1      -7.240   6.697  73.081  1.00  0.00    -0.077 A  
HETATM   13  C   UNL     1      -5.853   6.473  73.046  1.00  0.00    -0.042 A  
ENDBRANCH   3   4
ENDBRANCH   2   3
BRANCH   2  14
HETATM   14  C   UNL     1     -11.158   5.842  69.208  1.00  0.00    -0.282 C  
BRANCH  14  15
HETATM   15  C   UNL     1     -10.431   6.667  68.167  1.00  0.00    -0.257 A  
HETATM   16  C   UNL     1     -10.308   8.570  66.652  1.00  0.00    -0.303 A  
HETATM   17  C   UNL     1      -9.122   6.340  67.810  1.00  0.00    -0.114 A  
HETATM   18  C   UNL     1      -8.409   7.127  66.900  1.00  0.00    -0.118 A  
HETATM   19  C   UNL     1     -11.027   7.781  67.562  1.00  0.00    -0.040 A  
HETATM   20  C   UNL     1      -8.974   8.272  66.315  1.00  0.00    -0.221 A  
BRANCH  20  21
HETATM   21  C   UNL     1      -8.171   9.186  65.371  1.00  0.00    -0.131 C  
HETATM   22  C   UNL     1      -7.031   8.445  64.634  1.00  0.00    -0.073 C  
HETATM   23  C   UNL     1      -9.097   9.792  64.296  1.00  0.00    -0.293 C  
HETATM   24  C   UNL     1      -7.519  10.334  66.171  1.00  0.00    -0.121 C  
ENDBRANCH  20  21
ENDBRANCH  14  15
ENDBRANCH   2  14
TORSDOF 5
ENDMDL
MODEL      213
REMARK 921   NORMALIZED FREE ENERGY PREDICTED BY IDOCK:   -2.00 KCAL/MOL
REMARK 922        TOTAL FREE ENERGY PREDICTED BY IDOCK:   -4.36 KCAL/MOL
REMARK 923 INTER-LIGAND FREE ENERGY PREDICTED BY IDOCK:   -4.85 KCAL/MOL
REMARK 924 INTRA-LIGAND FREE ENERGY PREDICTED BY IDOCK:    0.49 KCAL/MOL
REMARK 927      BINDING AFFINITY PREDICTED BY RF-SCORE:    0.00 PKD
ROOT
HETATM    1  C   UNL     1      -6.255  10.120  67.781  1.00  0.00    -0.057 C  
HETATM    2  N   UNL     1      -6.869  10.250  69.107  1.00  0.00    -0.057 NA 
ENDROOT
BRANCH   2   3
HETATM    3  C   UNL     1      -8.334  10.422  68.998  1.00  0.00    -0.150 C  
BRANCH   3   4
HETATM    4  C   UNL     1      -9.144   9.295  69.625  1.00  0.00    -0.173 A  
HETATM    5  C   UNL     1      -9.707   8.239  68.853  1.00  0.00    -0.164 A  
HETATM    6  C   UNL     1      -9.351   9.329  71.017  1.00  0.00    -0.298 A  
HETATM    7  C   UNL     1      -9.555   8.119  67.455  1.00  0.00    -0.204 A  
HETATM    8  C   UNL     1     -10.106   8.348  71.651  1.00  0.00    -0.308 A  
HETATM    9  C   UNL     1     -10.166   7.095  66.731  1.00  0.00    -0.289 A  
HETATM   10  C   UNL     1     -10.668   7.318  70.903  1.00  0.00    -0.251 A  
HETATM   11  C   UNL     1     -10.936   6.147  67.391  1.00  0.00    -0.409 A  
HETATM   12  C   UNL     1     -10.485   7.254  69.514  1.00  0.00    -0.238 A  
HETATM   13  C   UNL     1     -11.086   6.221  68.774  1.00  0.00    -0.424 A  
ENDBRANCH   3   4
ENDBRANCH   2   3
BRANCH   2  14
HETATM   14  C   UNL     1      -6.298  11.370  69.876  1.00  0.00    -0.141 C  
BRANCH  14  15
HETATM   15  C   UNL     1      -6.484  12.723  69.221  1.00  0.00    -0.105 A  
HETATM   16  C   UNL     1      -7.483  14.159  67.528  1.00  0.00    -0.192 A  
HETATM   17  C   UNL     1      -5.886  13.853  69.781  1.00  0.00    -0.117 A  
HETATM   18  C   UNL     1      -6.098  15.122  69.233  1.00  0.00    -0.109 A  
HETATM   19  C   UNL     1      -7.270  12.885  68.074  1.00  0.00    -0.115 A  
HETATM   20  C   UNL     1      -6.917  15.311  68.108  1.00  0.00    -0.133 A  
BRANCH  20  21
HETATM   21  C   UNL     1      -7.217  16.712  67.542  1.00  0.00    -0.169 C  
HETATM   22  C   UNL     1      -7.209  17.816  68.625  1.00  0.00    -0.260 C  
HETATM   23  C   UNL     1      -6.166  17.098  66.482  1.00  0.00    -0.248 C  
HETATM   24  C   UNL     1      -8.615  16.733  66.889  1.00  0.00    -0.240 C  
ENDBRANCH  20  21
ENDBRANCH  14  15
ENDBRANCH   2  14
TORSDOF 5
ENDMDL
MODEL      214
REMARK 921   NORMALIZED FREE ENERGY PREDICTED BY IDOCK:   -1.85 KCAL/MOL
REMARK 922        TOTAL FREE ENERGY PREDICTED BY IDOCK:   -4.17 KCAL/MOL
REMARK 923 INTER-LIGAND FREE ENERGY PREDICTED BY IDOCK:   -5.61 KCAL/MOL
REMARK 924 INTRA-LIGAND FREE ENERGY PREDICTED BY IDOCK:    1.44 KCAL/MOL
REMARK 927      BINDING AFFINITY PREDICTED BY RF-SCORE:    0.00 PKD
ROOT
HETATM    1  C   UNL     1      -9.621  11.848  69.086  1.00  0.00     0.363 C  
HETATM    2  N   UNL     1     -10.994  12.349  69.198  1.00  0.00    -0.196 NA 
ENDROOT
BRANCH   2   3
HETATM    3  C   UNL     1     -11.742  11.621  70.245  1.00  0.00    -0.266 C  
BRANCH   3   4
HETATM    4  C   UNL     1     -11.302  10.176  70.437  1.00  0.00    -0.401 A  
HETATM    5  C   UNL     1     -12.196   9.156  70.869  1.00  0.00    -0.239 A  
HETATM    6  C   UNL     1      -9.951   9.861  70.193  1.00  0.00    -0.291 A  
HETATM    7  C   UNL     1     -13.565   9.373  71.139  1.00  0.00    -0.214 A  
HETATM    8  C   UNL     1      -9.474   8.568  70.377  1.00  0.00    -0.181 A  
HETATM    9  C   UNL     1     -14.395   8.355  71.610  1.00  0.00    -0.536 A  
HETATM   10  C   UNL     1     -10.339   7.568  70.809  1.00  0.00    -0.205 A  
HETATM   11  C   UNL     1     -13.880   7.081  71.808  1.00  0.00    -0.320 A  
HETATM   12  C   UNL     1     -11.691   7.845  71.064  1.00  0.00    -0.293 A  
HETATM   13  C   UNL     1     -12.540   6.826  71.528  1.00  0.00    -0.371 A  
ENDBRANCH   3   4
ENDBRANCH   2   3
BRANCH   2  14
HETATM   14  C   UNL     1     -11.723  12.259  67.920  1.00  0.00    -0.347 C  
BRANCH  14  15
HETATM   15  C   UNL     1     -10.894  11.711  66.777  1.00  0.00    -0.322 A  
HETATM   16  C   UNL     1      -9.591  12.016  64.744  1.00  0.00    -0.018 A  
HETATM   17  C   UNL     1     -10.566  10.355  66.745  1.00  0.00    -0.270 A  
HETATM   18  C   UNL     1      -9.747   9.838  65.736  1.00  0.00    -0.340 A  
HETATM   19  C   UNL     1     -10.415  12.536  65.753  1.00  0.00    -0.296 A  
HETATM   20  C   UNL     1      -9.221  10.658  64.724  1.00  0.00    -0.255 A  
BRANCH  20  21
HETATM   21  C   UNL     1      -8.258  10.114  63.652  1.00  0.00    -0.166 C  
HETATM   22  C   UNL     1      -8.603   8.675  63.202  1.00  0.00    -0.035 C  
HETATM   23  C   UNL     1      -8.291  11.009  62.397  1.00  0.00    -0.286 C  
HETATM   24  C   UNL     1      -6.816  10.079  64.203  1.00  0.00    -0.126 C  
ENDBRANCH  20  21
ENDBRANCH  14  15
ENDBRANCH   2  14
TORSDOF 5
ENDMDL
MODEL      215
REMARK 921   NORMALIZED FREE ENERGY PREDICTED BY IDOCK:   -1.82 KCAL/MOL
REMARK 922        TOTAL FREE ENERGY PREDICTED BY IDOCK:   -4.13 KCAL/MOL
REMARK 923 INTER-LIGAND FREE ENERGY PREDICTED BY IDOCK:   -3.91 KCAL/MOL
REMARK 924 INTRA-LIGAND FREE ENERGY PREDICTED BY IDOCK:   -0.23 KCAL/MOL
REMARK 927      BINDING AFFINITY PREDICTED BY RF-SCORE:    0.00 PKD
ROOT
HETATM    1  C   UNL     1      -5.964   9.508  66.350  1.00  0.00    -0.059 C  
HETATM    2  N   UNL     1      -7.028   8.846  67.113  1.00  0.00    -0.074 NA 
ENDROOT
BRANCH   2   3
HETATM    3  C   UNL     1      -8.286   8.798  66.337  1.00  0.00    -0.111 C  
BRANCH   3   4
HETATM    4  C   UNL     1      -9.059   7.494  66.479  1.00  0.00    -0.201 A  
HETATM    5  C   UNL     1      -8.795   6.357  65.665  1.00  0.00    -0.071 A  
HETATM    6  C   UNL     1     -10.084   7.439  67.443  1.00  0.00    -0.274 A  
HETATM    7  C   UNL     1      -7.790   6.315  64.674  1.00  0.00    -0.111 A  
HETATM    8  C   UNL     1     -10.850   6.290  67.606  1.00  0.00    -0.433 A  
HETATM    9  C   UNL     1      -7.599   5.196  63.863  1.00  0.00    -0.069 A  
HETATM   10  C   UNL     1     -10.605   5.177  66.808  1.00  0.00    -0.266 A  
HETATM   11  C   UNL     1      -8.399   4.075  64.034  1.00  0.00    -0.094 A  
HETATM   12  C   UNL     1      -9.593   5.196  65.836  1.00  0.00    -0.163 A  
HETATM   13  C   UNL     1      -9.383   4.072  65.020  1.00  0.00    -0.163 A  
ENDBRANCH   3   4
ENDBRANCH   2   3
BRANCH   2  14
HETATM   14  C   UNL     1      -7.274   9.505  68.408  1.00  0.00    -0.075 C  
BRANCH  14  15
HETATM   15  C   UNL     1      -7.591  10.981  68.296  1.00  0.00    -0.106 A  
HETATM   16  C   UNL     1      -7.019  13.323  68.641  1.00  0.00    -0.101 A  
HETATM   17  C   UNL     1      -8.746  11.395  67.631  1.00  0.00    -0.136 A  
HETATM   18  C   UNL     1      -9.026  12.754  67.458  1.00  0.00    -0.192 A  
HETATM   19  C   UNL     1      -6.738  11.960  68.819  1.00  0.00    -0.088 A  
HETATM   20  C   UNL     1      -8.161  13.751  67.938  1.00  0.00    -0.166 A  
BRANCH  20  21
HETATM   21  C   UNL     1      -8.422  15.248  67.686  1.00  0.00    -0.172 C  
HETATM   22  C   UNL     1      -7.152  16.022  67.264  1.00  0.00    -0.238 C  
HETATM   23  C   UNL     1      -9.466  15.430  66.565  1.00  0.00    -0.298 C  
HETATM   24  C   UNL     1      -8.950  15.918  68.973  1.00  0.00    -0.245 C  
ENDBRANCH  20  21
ENDBRANCH  14  15
ENDBRANCH   2  14
TORSDOF 5
ENDMDL
MODEL      216
REMARK 921   NORMALIZED FREE ENERGY PREDICTED BY IDOCK:   -1.80 KCAL/MOL
REMARK 922        TOTAL FREE ENERGY PREDICTED BY IDOCK:   -4.10 KCAL/MOL
REMARK 923 INTER-LIGAND FREE ENERGY PREDICTED BY IDOCK:   -4.08 KCAL/MOL
REMARK 924 INTRA-LIGAND FREE ENERGY PREDICTED BY IDOCK:   -0.02 KCAL/MOL
REMARK 927      BINDING AFFINITY PREDICTED BY RF-SCORE:    0.00 PKD
ROOT
HETATM    1  C   UNL     1     -10.593   6.729  71.764  1.00  0.00    -0.213 C  
HETATM    2  N   UNL     1     -10.464   5.811  70.627  1.00  0.00    -0.246 NA 
ENDROOT
BRANCH   2   3
HETATM    3  C   UNL     1      -9.054   5.695  70.196  1.00  0.00    -0.138 C  
BRANCH   3   4
HETATM    4  C   UNL     1      -8.041   5.871  71.319  1.00  0.00    -0.118 A  
HETATM    5  C   UNL     1      -7.846   4.890  72.333  1.00  0.00    -0.093 A  
HETATM    6  C   UNL     1      -7.294   7.065  71.351  1.00  0.00    -0.080 A  
HETATM    7  C   UNL     1      -8.546   3.665  72.386  1.00  0.00    -0.093 A  
HETATM    8  C   UNL     1      -6.373   7.304  72.365  1.00  0.00    -0.051 A  
HETATM    9  C   UNL     1      -8.360   2.754  73.427  1.00  0.00    -0.071 A  
HETATM   10  C   UNL     1      -6.184   6.355  73.365  1.00  0.00    -0.063 A  
HETATM   11  C   UNL     1      -7.452   3.036  74.438  1.00  0.00    -0.048 A  
HETATM   12  C   UNL     1      -6.912   5.156  73.367  1.00  0.00    -0.077 A  
HETATM   13  C   UNL     1      -6.726   4.225  74.403  1.00  0.00    -0.059 A  
ENDBRANCH   3   4
ENDBRANCH   2   3
BRANCH   2  14
HETATM   14  C   UNL     1     -11.295   6.225  69.483  1.00  0.00    -0.404 C  
BRANCH  14  15
HETATM   15  C   UNL     1     -10.716   7.374  68.686  1.00  0.00    -0.134 A  
HETATM   16  C   UNL     1      -9.918   8.339  66.598  1.00  0.00    -0.348 A  
HETATM   17  C   UNL     1     -10.526   8.616  69.294  1.00  0.00    -0.226 A  
HETATM   18  C   UNL     1     -10.054   9.710  68.561  1.00  0.00    -0.195 A  
HETATM   19  C   UNL     1     -10.387   7.240  67.331  1.00  0.00    -0.330 A  
HETATM   20  C   UNL     1      -9.760   9.606  67.192  1.00  0.00    -0.222 A  
BRANCH  20  21
HETATM   21  C   UNL     1      -9.312  10.823  66.360  1.00  0.00    -0.198 C  
HETATM   22  C   UNL     1     -10.426  11.366  65.435  1.00  0.00    -0.336 C  
HETATM   23  C   UNL     1      -8.879  11.977  67.286  1.00  0.00    -0.183 C  
HETATM   24  C   UNL     1      -8.124  10.437  65.453  1.00  0.00    -0.152 C  
ENDBRANCH  20  21
ENDBRANCH  14  15
ENDBRANCH   2  14
TORSDOF 5
ENDMDL
MODEL      217
REMARK 921   NORMALIZED FREE ENERGY PREDICTED BY IDOCK:   -1.63 KCAL/MOL
REMARK 922        TOTAL FREE ENERGY PREDICTED BY IDOCK:   -3.89 KCAL/MOL
REMARK 923 INTER-LIGAND FREE ENERGY PREDICTED BY IDOCK:   -3.61 KCAL/MOL
REMARK 924 INTRA-LIGAND FREE ENERGY PREDICTED BY IDOCK:   -0.28 KCAL/MOL
REMARK 927      BINDING AFFINITY PREDICTED BY RF-SCORE:    0.00 PKD
ROOT
HETATM    1  C   UNL     1     -10.103   6.466  71.229  1.00  0.00    -0.187 C  
HETATM    2  N   UNL     1      -9.973   5.557  70.085  1.00  0.00    -0.203 NA 
ENDROOT
BRANCH   2   3
HETATM    3  C   UNL     1      -8.613   5.620  69.509  1.00  0.00    -0.110 C  
BRANCH   3   4
HETATM    4  C   UNL     1      -7.724   6.694  70.120  1.00  0.00    -0.102 A  
HETATM    5  C   UNL     1      -6.947   6.467  71.290  1.00  0.00    -0.075 A  
HETATM    6  C   UNL     1      -7.702   7.960  69.502  1.00  0.00    -0.104 A  
HETATM    7  C   UNL     1      -6.904   5.236  71.980  1.00  0.00    -0.065 A  
HETATM    8  C   UNL     1      -6.935   8.996  70.024  1.00  0.00    -0.050 A  
HETATM    9  C   UNL     1      -6.167   5.072  73.153  1.00  0.00    -0.038 A  
HETATM   10  C   UNL     1      -6.180   8.785  71.173  1.00  0.00    -0.051 A  
HETATM   11  C   UNL     1      -5.434   6.135  73.662  1.00  0.00    -0.040 A  
HETATM   12  C   UNL     1      -6.180   7.539  71.817  1.00  0.00    -0.039 A  
HETATM   13  C   UNL     1      -5.433   7.357  72.993  1.00  0.00    -0.041 A  
ENDBRANCH   3   4
ENDBRANCH   2   3
BRANCH   2  14
HETATM   14  C   UNL     1     -10.967   5.842  69.035  1.00  0.00    -0.289 C  
BRANCH  14  15
HETATM   15  C   UNL     1     -10.790   7.192  68.372  1.00  0.00    -0.148 A  
HETATM   16  C   UNL     1     -10.871   9.625  68.422  1.00  0.00    -0.212 A  
HETATM   17  C   UNL     1     -10.267   7.269  67.080  1.00  0.00    -0.339 A  
HETATM   18  C   UNL     1     -10.033   8.507  66.474  1.00  0.00    -0.350 A  
HETATM   19  C   UNL     1     -11.110   8.385  69.032  1.00  0.00     0.220 A  
HETATM   20  C   UNL     1     -10.307   9.715  67.135  1.00  0.00    -0.319 A  
BRANCH  20  21
HETATM   21  C   UNL     1      -9.982  11.082  66.505  1.00  0.00    -0.253 C  
HETATM   22  C   UNL     1      -8.961  11.901  67.328  1.00  0.00    -0.176 C  
HETATM   23  C   UNL     1      -9.392  10.895  65.093  1.00  0.00    -0.252 C  
HETATM   24  C   UNL     1     -11.264  11.936  66.401  1.00  0.00    -0.387 C  
ENDBRANCH  20  21
ENDBRANCH  14  15
ENDBRANCH   2  14
TORSDOF 5
ENDMDL
MODEL      218
REMARK 921   NORMALIZED FREE ENERGY PREDICTED BY IDOCK:   -1.62 KCAL/MOL
REMARK 922        TOTAL FREE ENERGY PREDICTED BY IDOCK:   -3.88 KCAL/MOL
REMARK 923 INTER-LIGAND FREE ENERGY PREDICTED BY IDOCK:   -3.86 KCAL/MOL
REMARK 924 INTRA-LIGAND FREE ENERGY PREDICTED BY IDOCK:   -0.02 KCAL/MOL
REMARK 927      BINDING AFFINITY PREDICTED BY RF-SCORE:    0.00 PKD
ROOT
HETATM    1  C   UNL     1     -10.608   7.430  73.154  1.00  0.00    -0.374 C  
HETATM    2  N   UNL     1     -10.372   6.564  71.994  1.00  0.00    -0.198 NA 
ENDROOT
BRANCH   2   3
HETATM    3  C   UNL     1      -8.966   6.649  71.546  1.00  0.00    -0.139 C  
BRANCH   3   4
HETATM    4  C   UNL     1      -8.516   5.484  70.675  1.00  0.00    -0.121 A  
HETATM    5  C   UNL     1      -8.399   4.156  71.176  1.00  0.00    -0.094 A  
HETATM    6  C   UNL     1      -8.186   5.755  69.333  1.00  0.00    -0.108 A  
HETATM    7  C   UNL     1      -8.705   3.786  72.504  1.00  0.00    -0.104 A  
HETATM    8  C   UNL     1      -7.740   4.743  68.489  1.00  0.00    -0.077 A  
HETATM    9  C   UNL     1      -8.527   2.482  72.967  1.00  0.00    -0.070 A  
HETATM   10  C   UNL     1      -7.613   3.445  68.973  1.00  0.00    -0.052 A  
HETATM   11  C   UNL     1      -8.054   1.503  72.105  1.00  0.00    -0.045 A  
HETATM   12  C   UNL     1      -7.930   3.139  70.305  1.00  0.00    -0.050 A  
HETATM   13  C   UNL     1      -7.766   1.827  70.781  1.00  0.00    -0.035 A  
ENDBRANCH   3   4
ENDBRANCH   2   3
BRANCH   2  14
HETATM   14  C   UNL     1     -11.268   6.886  70.870  1.00  0.00    -0.289 C  
BRANCH  14  15
HETATM   15  C   UNL     1     -10.748   7.985  69.966  1.00  0.00    -0.244 A  
HETATM   16  C   UNL     1     -10.323   8.910  67.754  1.00  0.00    -0.301 A  
HETATM   17  C   UNL     1     -10.284   9.179  70.519  1.00  0.00    -0.288 A  
HETATM   18  C   UNL     1      -9.862  10.232  69.702  1.00  0.00    -0.230 A  
HETATM   19  C   UNL     1     -10.744   7.852  68.572  1.00  0.00    -0.069 A  
HETATM   20  C   UNL     1      -9.891  10.134  68.301  1.00  0.00    -0.162 A  
BRANCH  20  21
HETATM   21  C   UNL     1      -9.499  11.315  67.392  1.00  0.00    -0.175 C  
HETATM   22  C   UNL     1      -8.030  11.762  67.580  1.00  0.00    -0.143 C  
HETATM   23  C   UNL     1      -9.678  10.932  65.909  1.00  0.00    -0.269 C  
HETATM   24  C   UNL     1     -10.385  12.540  67.703  1.00  0.00    -0.222 C  
ENDBRANCH  20  21
ENDBRANCH  14  15
ENDBRANCH   2  14
TORSDOF 5
ENDMDL
MODEL      219
REMARK 921   NORMALIZED FREE ENERGY PREDICTED BY IDOCK:   -1.39 KCAL/MOL
REMARK 922        TOTAL FREE ENERGY PREDICTED BY IDOCK:   -3.58 KCAL/MOL
REMARK 923 INTER-LIGAND FREE ENERGY PREDICTED BY IDOCK:   -3.44 KCAL/MOL
REMARK 924 INTRA-LIGAND FREE ENERGY PREDICTED BY IDOCK:   -0.14 KCAL/MOL
REMARK 927      BINDING AFFINITY PREDICTED BY RF-SCORE:    0.00 PKD
ROOT
HETATM    1  C   UNL     1      -6.108  10.137  67.866  1.00  0.00    -0.052 C  
HETATM    2  N   UNL     1      -6.459   9.886  69.268  1.00  0.00    -0.047 NA 
ENDROOT
BRANCH   2   3
HETATM    3  C   UNL     1      -7.903  10.099  69.500  1.00  0.00    -0.162 C  
BRANCH   3   4
HETATM    4  C   UNL     1      -8.733  10.200  68.227  1.00  0.00    -0.120 A  
HETATM    5  C   UNL     1      -9.148  11.448  67.682  1.00  0.00    -0.155 A  
HETATM    6  C   UNL     1      -9.112   9.001  67.592  1.00  0.00    -0.144 A  
HETATM    7  C   UNL     1      -8.819  12.700  68.245  1.00  0.00    -0.172 A  
HETATM    8  C   UNL     1      -9.894   9.018  66.443  1.00  0.00    -0.356 A  
HETATM    9  C   UNL     1      -9.290  13.898  67.707  1.00  0.00    -0.204 A  
HETATM   10  C   UNL     1     -10.312  10.233  65.910  1.00  0.00    -0.241 A  
HETATM   11  C   UNL     1     -10.091  13.878  66.574  1.00  0.00    -0.286 A  
HETATM   12  C   UNL     1      -9.956  11.447  66.516  1.00  0.00    -0.243 A  
HETATM   13  C   UNL     1     -10.414  12.661  65.978  1.00  0.00    -0.288 A  
ENDBRANCH   3   4
ENDBRANCH   2   3
BRANCH   2  14
HETATM   14  C   UNL     1      -5.681  10.728  70.194  1.00  0.00    -0.082 C  
BRANCH  14  15
HETATM   15  C   UNL     1      -5.841  12.215  69.953  1.00  0.00    -0.140 A  
HETATM   16  C   UNL     1      -6.206  14.484  70.758  1.00  0.00    -0.099 A  
HETATM   17  C   UNL     1      -5.668  12.733  68.669  1.00  0.00    -0.067 A  
HETATM   18  C   UNL     1      -5.744  14.109  68.434  1.00  0.00    -0.105 A  
HETATM   19  C   UNL     1      -6.132  13.103  70.995  1.00  0.00     0.345 A  
HETATM   20  C   UNL     1      -5.993  15.021  69.474  1.00  0.00    -0.108 A  
BRANCH  20  21
HETATM   21  C   UNL     1      -6.005  16.543  69.239  1.00  0.00    -0.165 C  
HETATM   22  C   UNL     1      -5.163  16.974  68.015  1.00  0.00    -0.122 C  
HETATM   23  C   UNL     1      -7.446  17.038  69.004  1.00  0.00    -0.211 C  
HETATM   24  C   UNL     1      -5.420  17.274  70.467  1.00  0.00    -0.218 C  
ENDBRANCH  20  21
ENDBRANCH  14  15
ENDBRANCH   2  14
TORSDOF 5
ENDMDL
MODEL      220
REMARK 921   NORMALIZED FREE ENERGY PREDICTED BY IDOCK:   -1.24 KCAL/MOL
REMARK 922        TOTAL FREE ENERGY PREDICTED BY IDOCK:   -3.38 KCAL/MOL
REMARK 923 INTER-LIGAND FREE ENERGY PREDICTED BY IDOCK:   -2.81 KCAL/MOL
REMARK 924 INTRA-LIGAND FREE ENERGY PREDICTED BY IDOCK:   -0.58 KCAL/MOL
REMARK 927      BINDING AFFINITY PREDICTED BY RF-SCORE:    0.00 PKD
ROOT
HETATM    1  C   UNL     1      -6.012   9.467  66.712  1.00  0.00    -0.060 C  
HETATM    2  N   UNL     1      -7.293   8.813  67.003  1.00  0.00    -0.079 NA 
ENDROOT
BRANCH   2   3
HETATM    3  C   UNL     1      -8.058   8.570  65.761  1.00  0.00    -0.116 C  
BRANCH   3   4
HETATM    4  C   UNL     1      -8.537   7.134  65.593  1.00  0.00    -0.119 A  
HETATM    5  C   UNL     1      -8.093   6.301  64.527  1.00  0.00    -0.102 A  
HETATM    6  C   UNL     1      -9.470   6.638  66.524  1.00  0.00    -0.192 A  
HETATM    7  C   UNL     1      -7.162   6.708  63.546  1.00  0.00    -0.065 A  
HETATM    8  C   UNL     1      -9.972   5.346  66.412  1.00  0.00    -0.218 A  
HETATM    9  C   UNL     1      -6.793   5.876  62.488  1.00  0.00    -0.040 A  
HETATM   10  C   UNL     1      -9.551   4.529  65.368  1.00  0.00    -0.185 A  
HETATM   11  C   UNL     1      -7.334   4.601  62.392  1.00  0.00    -0.039 A  
HETATM   12  C   UNL     1      -8.625   4.990  64.420  1.00  0.00    -0.135 A  
HETATM   13  C   UNL     1      -8.236   4.158  63.357  1.00  0.00    -0.092 A  
ENDBRANCH   3   4
ENDBRANCH   2   3
BRANCH   2  14
HETATM   14  C   UNL     1      -8.115   9.596  67.942  1.00  0.00    -0.106 C  
BRANCH  14  15
HETATM   15  C   UNL     1      -8.956   8.749  68.875  1.00  0.00    -0.134 A  
HETATM   16  C   UNL     1      -9.215   7.389  70.878  1.00  0.00    -0.154 A  
HETATM   17  C   UNL     1     -10.327   8.617  68.648  1.00  0.00    -0.219 A  
HETATM   18  C   UNL     1     -11.134   7.896  69.532  1.00  0.00     0.014 A  
HETATM   19  C   UNL     1      -8.402   8.110  69.990  1.00  0.00    -0.122 A  
HETATM   20  C   UNL     1     -10.605   7.283  70.680  1.00  0.00    -0.240 A  
BRANCH  20  21
HETATM   21  C   UNL     1     -11.497   6.550  71.699  1.00  0.00    -0.345 C  
HETATM   22  C   UNL     1     -11.042   5.097  71.969  1.00  0.00    -0.085 C  
HETATM   23  C   UNL     1     -11.490   7.293  73.050  1.00  0.00    -0.164 C  
HETATM   24  C   UNL     1     -12.948   6.477  71.177  1.00  0.00     0.186 C  
ENDBRANCH  20  21
ENDBRANCH  14  15
ENDBRANCH   2  14
TORSDOF 5
ENDMDL
MODEL      221
REMARK 921   NORMALIZED FREE ENERGY PREDICTED BY IDOCK:    0.73 KCAL/MOL
REMARK 922        TOTAL FREE ENERGY PREDICTED BY IDOCK:   -0.84 KCAL/MOL
REMARK 923 INTER-LIGAND FREE ENERGY PREDICTED BY IDOCK:   -0.70 KCAL/MOL
REMARK 924 INTRA-LIGAND FREE ENERGY PREDICTED BY IDOCK:   -0.14 KCAL/MOL
REMARK 927      BINDING AFFINITY PREDICTED BY RF-SCORE:    0.00 PKD
ROOT
HETATM    1  C   UNL     1      -7.853  10.080  70.193  1.00  0.00    -0.123 C  
HETATM    2  N   UNL     1      -9.143   9.462  69.870  1.00  0.00    -0.187 NA 
ENDROOT
BRANCH   2   3
HETATM    3  C   UNL     1      -9.445   8.349  70.794  1.00  0.00    -0.169 C  
BRANCH   3   4
HETATM    4  C   UNL     1     -10.898   7.892  70.770  1.00  0.00    -0.238 A  
HETATM    5  C   UNL     1     -11.965   8.715  71.229  1.00  0.00    -0.339 A  
HETATM    6  C   UNL     1     -11.172   6.596  70.292  1.00  0.00    -0.408 A  
HETATM    7  C   UNL     1     -11.790  10.026  71.725  1.00  0.00    -0.169 A  
HETATM    8  C   UNL     1     -12.473   6.104  70.270  1.00  0.00     1.366 A  
HETATM    9  C   UNL     1     -12.858  10.779  72.212  1.00  0.00     0.031 A  
HETATM   10  C   UNL     1     -13.520   6.898  70.726  1.00  0.00     0.438 A  
HETATM   11  C   UNL     1     -14.140  10.247  72.201  1.00  0.00     0.341 A  
HETATM   12  C   UNL     1     -13.284   8.193  71.211  1.00  0.00    -0.158 A  
HETATM   13  C   UNL     1     -14.352   8.967  71.695  1.00  0.00    -0.240 A  
ENDBRANCH   3   4
ENDBRANCH   2   3
BRANCH   2  14
HETATM   14  C   UNL     1      -9.192   8.976  68.480  1.00  0.00    -0.136 C  
BRANCH  14  15
HETATM   15  C   UNL     1      -8.479   7.657  68.265  1.00  0.00    -0.125 A  
HETATM   16  C   UNL     1      -6.541   6.208  68.531  1.00  0.00    -0.059 A  
HETATM   17  C   UNL     1      -9.153   6.592  67.665  1.00  0.00    -0.112 A  
HETATM   18  C   UNL     1      -8.536   5.346  67.517  1.00  0.00    -0.108 A  
HETATM   19  C   UNL     1      -7.156   7.460  68.679  1.00  0.00    -0.084 A  
HETATM   20  C   UNL     1      -7.225   5.115  67.965  1.00  0.00    -0.067 A  
BRANCH  20  21
HETATM   21  C   UNL     1      -6.564   3.726  67.873  1.00  0.00    -0.042 C  
HETATM   22  C   UNL     1      -6.071   3.200  69.241  1.00  0.00    -0.024 C  
HETATM   23  C   UNL     1      -7.564   2.693  67.315  1.00  0.00    -0.069 C  
HETATM   24  C   UNL     1      -5.334   3.785  66.943  1.00  0.00    -0.013 C  
ENDBRANCH  20  21
ENDBRANCH  14  15
ENDBRANCH   2  14
TORSDOF 5
ENDMDL
MODEL      222
REMARK 921   NORMALIZED FREE ENERGY PREDICTED BY IDOCK:   70.38 KCAL/MOL
REMARK 922        TOTAL FREE ENERGY PREDICTED BY IDOCK:   89.18 KCAL/MOL
REMARK 923 INTER-LIGAND FREE ENERGY PREDICTED BY IDOCK:   88.92 KCAL/MOL
REMARK 924 INTRA-LIGAND FREE ENERGY PREDICTED BY IDOCK:    0.26 KCAL/MOL
REMARK 927      BINDING AFFINITY PREDICTED BY RF-SCORE:    0.00 PKD
ROOT
HETATM    1  C   UNL     1      -9.908  10.699  67.887  1.00  0.00    -0.161 C  
HETATM    2  N   UNL     1     -10.108  11.013  69.305  1.00  0.00    -0.151 NA 
ENDROOT
BRANCH   2   3
HETATM    3  C   UNL     1     -11.488  10.694  69.729  1.00  0.00    -0.302 C  
BRANCH   3   4
HETATM    4  C   UNL     1     -11.708   9.233  70.099  1.00  0.00    -0.008 A  
HETATM    5  C   UNL     1     -12.428   8.334  69.263  1.00  0.00     3.151 A  
HETATM    6  C   UNL     1     -11.190   8.781  71.328  1.00  0.00    -0.352 A  
HETATM    7  C   UNL     1     -12.985   8.693  68.016  1.00  0.00    11.729 A  
HETATM    8  C   UNL     1     -11.379   7.467  71.742  1.00  0.00    -0.287 A  
HETATM    9  C   UNL     1     -13.728   7.793  67.252  1.00  0.00    22.164 A  
HETATM   10  C   UNL     1     -12.091   6.584  70.936  1.00  0.00    -0.293 A  
HETATM   11  C   UNL     1     -13.921   6.496  67.708  1.00  0.00    20.949 A  
HETATM   12  C   UNL     1     -12.623   7.000  69.706  1.00  0.00     1.278 A  
HETATM   13  C   UNL     1     -13.364   6.100  68.922  1.00  0.00    11.309 A  
ENDBRANCH   3   4
ENDBRANCH   2   3
BRANCH   2  14
HETATM   14  C   UNL     1      -9.813  12.424  69.609  1.00  0.00     1.496 C  
BRANCH  14  15
HETATM   15  C   UNL     1     -10.632  13.410  68.803  1.00  0.00    -0.230 A  
HETATM   16  C   UNL     1     -11.879  15.491  68.601  1.00  0.00    -0.318 A  
HETATM   17  C   UNL     1     -10.827  13.199  67.437  1.00  0.00    -0.269 A  
HETATM   18  C   UNL     1     -11.523  14.129  66.659  1.00  0.00    -0.378 A  
HETATM   19  C   UNL     1     -11.184  14.558  69.384  1.00  0.00    -0.312 A  
HETATM   20  C   UNL     1     -12.047  15.308  67.215  1.00  0.00     0.349 A  
BRANCH  20  21
HETATM   21  C   UNL     1     -12.750  16.374  66.353  1.00  0.00     4.244 C  
HETATM   22  C   UNL     1     -12.471  16.210  64.841  1.00  0.00     1.459 C  
HETATM   23  C   UNL     1     -14.278  16.302  66.551  1.00  0.00     9.554 C  
HETATM   24  C   UNL     1     -12.261  17.783  66.750  1.00  0.00     4.298 C  
ENDBRANCH  20  21
ENDBRANCH  14  15
ENDBRANCH   2  14
TORSDOF 5
ENDMDL
